MODEL 1
REMARK VINA RESULT:      -6.3      0.000      0.000
REMARK  Name = Xanthinol
REMARK  11 active torsions:
REMARK  status: ('A' for Active; 'I' for Inactive)
REMARK    1  A    between atoms: C_1  and  N_2
REMARK    2  A    between atoms: N_2  and  C_3
REMARK    3  A    between atoms: N_2  and  C_6
REMARK    4  A    between atoms: C_3  and  C_4
REMARK    5  A    between atoms: C_4  and  O_5
REMARK    6  A    between atoms: C_6  and  C_7
REMARK    7  A    between atoms: C_7  and  O_8
REMARK    8  A    between atoms: C_7  and  C_9
REMARK    9  A    between atoms: C_9  and  N_10
REMARK   10  A    between atoms: N_17  and  C_18
REMARK   11  A    between atoms: N_21  and  C_22
REMARK                            x       y       z     vdW  Elec       q    Type
REMARK                         _______ _______ _______ _____ _____    ______ ____
ROOT
ATOM      1  N   UNL     1      -8.038   2.685 123.295  0.00  0.00    +0.000 N 
ATOM      2  C   UNL     1      -7.061   2.760 124.258  0.00  0.00    +0.000 A 
ATOM      3  N   UNL     1      -5.975   3.356 123.804  0.00  0.00    +0.000 NA
ATOM      4  C   UNL     1      -6.289   3.700 122.524  0.00  0.00    +0.000 A 
ATOM      5  C   UNL     1      -7.552   3.310 122.187  0.00  0.00    +0.000 A 
ATOM      6  C   UNL     1      -8.137   3.563 120.922  0.00  0.00    +0.000 A 
ATOM      7  O   UNL     1      -9.293   3.234 120.644  0.00  0.00    +0.000 OA
ATOM      8  N   UNL     1      -7.273   4.206 120.044  0.00  0.00    +0.000 N 
ATOM      9  C   UNL     1      -7.739   4.484 118.702  0.00  0.00    +0.000 C 
ATOM     10  C   UNL     1      -5.961   4.617 120.344  0.00  0.00    +0.000 A 
ATOM     11  O   UNL     1      -5.270   5.184 119.491  0.00  0.00    +0.000 OA
ATOM     12  N   UNL     1      -5.481   4.353 121.625  0.00  0.00    +0.000 N 
ATOM     13  C   UNL     1      -4.134   4.754 121.982  0.00  0.00    +0.000 C 
ENDROOT
BRANCH   1  14
ATOM     14  C   UNL     1      -9.377   2.142 123.470  0.00  0.00    +0.000 C 
BRANCH  14  15
ATOM     15  C   UNL     1      -9.401   0.668 123.085  0.00  0.00    +0.000 C 
BRANCH  15  16
ATOM     16  O   UNL     1     -10.703   0.447 122.519  0.00  0.00    +0.000 OA
ATOM     17  H   UNL     1     -11.338   1.030 122.966  0.00  0.00    +0.000 HD
ENDBRANCH  15  16
BRANCH  15  18
ATOM     18  C   UNL     1      -9.143  -0.237 124.317  0.00  0.00    +0.000 C 
BRANCH  18  20
ATOM     19  C   UNL     1      -8.851  -2.425 123.346  0.00  0.00    +0.000 C 
ATOM     20  N   UNL     1      -8.189  -1.344 124.078  0.00  0.00    +0.000 NA
BRANCH  20  21
ATOM     21  C   UNL     1      -6.988  -0.887 123.360  0.00  0.00    +0.000 C 
BRANCH  21  22
ATOM     22  C   UNL     1      -6.300  -1.938 122.493  0.00  0.00    +0.000 C 
BRANCH  22  23
ATOM     23  O   UNL     1      -5.318  -2.628 123.262  0.00  0.00    +0.000 OA
ATOM     24  H   UNL     1      -4.853  -1.965 123.798  0.00  0.00    +0.000 HD
ENDBRANCH  22  23
ENDBRANCH  21  22
ENDBRANCH  20  21
ENDBRANCH  18  20
ENDBRANCH  15  18
ENDBRANCH  14  15
ENDBRANCH   1  14
TORSDOF 8
ENDMDL
MODEL 2
REMARK VINA RESULT:      -6.1      8.355     10.309
REMARK  Name = Xanthinol
REMARK  11 active torsions:
REMARK  status: ('A' for Active; 'I' for Inactive)
REMARK    1  A    between atoms: C_1  and  N_2
REMARK    2  A    between atoms: N_2  and  C_3
REMARK    3  A    between atoms: N_2  and  C_6
REMARK    4  A    between atoms: C_3  and  C_4
REMARK    5  A    between atoms: C_4  and  O_5
REMARK    6  A    between atoms: C_6  and  C_7
REMARK    7  A    between atoms: C_7  and  O_8
REMARK    8  A    between atoms: C_7  and  C_9
REMARK    9  A    between atoms: C_9  and  N_10
REMARK   10  A    between atoms: N_17  and  C_18
REMARK   11  A    between atoms: N_21  and  C_22
REMARK                            x       y       z     vdW  Elec       q    Type
REMARK                         _______ _______ _______ _____ _____    ______ ____
ROOT
ATOM      1  N   UNL     1     -10.312   5.652 131.282  0.00  0.00    +0.000 N 
ATOM      2  C   UNL     1     -10.250   6.149 132.562  0.00  0.00    +0.000 A 
ATOM      3  N   UNL     1      -9.012   6.160 133.020  0.00  0.00    +0.000 NA
ATOM      4  C   UNL     1      -8.265   5.689 131.983  0.00  0.00    +0.000 A 
ATOM      5  C   UNL     1      -9.034   5.379 130.900  0.00  0.00    +0.000 A 
ATOM      6  C   UNL     1      -8.505   4.889 129.681  0.00  0.00    +0.000 A 
ATOM      7  O   UNL     1      -9.209   4.645 128.699  0.00  0.00    +0.000 OA
ATOM      8  N   UNL     1      -7.127   4.712 129.720  0.00  0.00    +0.000 N 
ATOM      9  C   UNL     1      -6.470   4.175 128.547  0.00  0.00    +0.000 C 
ATOM     10  C   UNL     1      -6.296   5.008 130.816  0.00  0.00    +0.000 A 
ATOM     11  O   UNL     1      -5.078   4.815 130.751  0.00  0.00    +0.000 OA
ATOM     12  N   UNL     1      -6.901   5.516 131.964  0.00  0.00    +0.000 N 
ATOM     13  C   UNL     1      -6.089   5.834 133.121  0.00  0.00    +0.000 C 
ENDROOT
BRANCH   1  14
ATOM     14  C   UNL     1     -11.506   5.550 130.458  0.00  0.00    +0.000 C 
BRANCH  14  15
ATOM     15  C   UNL     1     -12.204   6.902 130.371  0.00  0.00    +0.000 C 
BRANCH  15  16
ATOM     16  O   UNL     1     -13.115   6.929 131.482  0.00  0.00    +0.000 OA
ATOM     17  H   UNL     1     -13.449   7.834 131.588  0.00  0.00    +0.000 HD
ENDBRANCH  15  16
BRANCH  15  18
ATOM     18  C   UNL     1     -12.935   7.069 129.016  0.00  0.00    +0.000 C 
BRANCH  18  20
ATOM     19  C   UNL     1     -12.875   9.476 129.163  0.00  0.00    +0.000 C 
ATOM     20  N   UNL     1     -12.618   8.325 128.296  0.00  0.00    +0.000 NA
BRANCH  20  21
ATOM     21  C   UNL     1     -11.231   8.340 127.805  0.00  0.00    +0.000 C 
BRANCH  21  22
ATOM     22  C   UNL     1     -10.954   7.461 126.589  0.00  0.00    +0.000 C 
BRANCH  22  23
ATOM     23  O   UNL     1      -9.880   6.568 126.875  0.00  0.00    +0.000 OA
ATOM     24  H   UNL     1      -9.078   6.945 126.478  0.00  0.00    +0.000 HD
ENDBRANCH  22  23
ENDBRANCH  21  22
ENDBRANCH  20  21
ENDBRANCH  18  20
ENDBRANCH  15  18
ENDBRANCH  14  15
ENDBRANCH   1  14
TORSDOF 8
ENDMDL
MODEL 3
REMARK VINA RESULT:      -6.0      8.644     10.431
REMARK  Name = Xanthinol
REMARK  11 active torsions:
REMARK  status: ('A' for Active; 'I' for Inactive)
REMARK    1  A    between atoms: C_1  and  N_2
REMARK    2  A    between atoms: N_2  and  C_3
REMARK    3  A    between atoms: N_2  and  C_6
REMARK    4  A    between atoms: C_3  and  C_4
REMARK    5  A    between atoms: C_4  and  O_5
REMARK    6  A    between atoms: C_6  and  C_7
REMARK    7  A    between atoms: C_7  and  O_8
REMARK    8  A    between atoms: C_7  and  C_9
REMARK    9  A    between atoms: C_9  and  N_10
REMARK   10  A    between atoms: N_17  and  C_18
REMARK   11  A    between atoms: N_21  and  C_22
REMARK                            x       y       z     vdW  Elec       q    Type
REMARK                         _______ _______ _______ _____ _____    ______ ____
ROOT
ATOM      1  N   UNL     1      -9.008   5.771 130.958  0.00  0.00    +0.000 N 
ATOM      2  C   UNL     1      -9.435   5.855 132.261  0.00  0.00    +0.000 A 
ATOM      3  N   UNL     1     -10.610   6.450 132.351  0.00  0.00    +0.000 NA
ATOM      4  C   UNL     1     -10.952   6.717 131.059  0.00  0.00    +0.000 A 
ATOM      5  C   UNL     1      -9.993   6.302 130.182  0.00  0.00    +0.000 A 
ATOM      6  C   UNL     1     -10.106   6.439 128.777  0.00  0.00    +0.000 A 
ATOM      7  O   UNL     1      -9.246   6.030 127.995  0.00  0.00    +0.000 OA
ATOM      8  N   UNL     1     -11.276   7.084 128.389  0.00  0.00    +0.000 N 
ATOM      9  C   UNL     1     -11.490   7.323 126.977  0.00  0.00    +0.000 C 
ATOM     10  C   UNL     1     -12.286   7.536 129.256  0.00  0.00    +0.000 A 
ATOM     11  O   UNL     1     -13.290   8.100 128.811  0.00  0.00    +0.000 OA
ATOM     12  N   UNL     1     -12.101   7.330 130.622  0.00  0.00    +0.000 N 
ATOM     13  C   UNL     1     -13.112   7.781 131.558  0.00  0.00    +0.000 C 
ENDROOT
BRANCH   1  14
ATOM     14  C   UNL     1      -7.787   5.130 130.495  0.00  0.00    +0.000 C 
BRANCH  14  15
ATOM     15  C   UNL     1      -6.567   5.875 131.026  0.00  0.00    +0.000 C 
BRANCH  15  16
ATOM     16  O   UNL     1      -6.709   7.222 130.546  0.00  0.00    +0.000 OA
ATOM     17  H   UNL     1      -7.060   7.193 129.642  0.00  0.00    +0.000 HD
ENDBRANCH  15  16
BRANCH  15  18
ATOM     18  C   UNL     1      -5.253   5.219 130.534  0.00  0.00    +0.000 C 
BRANCH  18  20
ATOM     19  C   UNL     1      -3.273   5.588 131.862  0.00  0.00    +0.000 C 
ATOM     20  N   UNL     1      -4.043   6.057 130.708  0.00  0.00    +0.000 NA
BRANCH  20  21
ATOM     21  C   UNL     1      -3.209   6.075 129.496  0.00  0.00    +0.000 C 
BRANCH  21  22
ATOM     22  C   UNL     1      -3.459   7.240 128.543  0.00  0.00    +0.000 C 
BRANCH  22  23
ATOM     23  O   UNL     1      -4.288   8.211 129.177  0.00  0.00    +0.000 OA
ATOM     24  H   UNL     1      -3.788   8.570 129.929  0.00  0.00    +0.000 HD
ENDBRANCH  22  23
ENDBRANCH  21  22
ENDBRANCH  20  21
ENDBRANCH  18  20
ENDBRANCH  15  18
ENDBRANCH  14  15
ENDBRANCH   1  14
TORSDOF 8
ENDMDL
MODEL 4
REMARK VINA RESULT:      -5.9      7.926      9.829
REMARK  Name = Xanthinol
REMARK  11 active torsions:
REMARK  status: ('A' for Active; 'I' for Inactive)
REMARK    1  A    between atoms: C_1  and  N_2
REMARK    2  A    between atoms: N_2  and  C_3
REMARK    3  A    between atoms: N_2  and  C_6
REMARK    4  A    between atoms: C_3  and  C_4
REMARK    5  A    between atoms: C_4  and  O_5
REMARK    6  A    between atoms: C_6  and  C_7
REMARK    7  A    between atoms: C_7  and  O_8
REMARK    8  A    between atoms: C_7  and  C_9
REMARK    9  A    between atoms: C_9  and  N_10
REMARK   10  A    between atoms: N_17  and  C_18
REMARK   11  A    between atoms: N_21  and  C_22
REMARK                            x       y       z     vdW  Elec       q    Type
REMARK                         _______ _______ _______ _____ _____    ______ ____
ROOT
ATOM      1  N   UNL     1      -8.949   5.886 130.836  0.00  0.00    +0.000 N 
ATOM      2  C   UNL     1      -9.337   5.971 132.152  0.00  0.00    +0.000 A 
ATOM      3  N   UNL     1     -10.532   6.517 132.273  0.00  0.00    +0.000 NA
ATOM      4  C   UNL     1     -10.927   6.752 130.990  0.00  0.00    +0.000 A 
ATOM      5  C   UNL     1      -9.980   6.365 130.087  0.00  0.00    +0.000 A 
ATOM      6  C   UNL     1     -10.145   6.478 128.685  0.00  0.00    +0.000 A 
ATOM      7  O   UNL     1      -9.294   6.093 127.880  0.00  0.00    +0.000 OA
ATOM      8  N   UNL     1     -11.352   7.068 128.327  0.00  0.00    +0.000 N 
ATOM      9  C   UNL     1     -11.622   7.278 126.920  0.00  0.00    +0.000 C 
ATOM     10  C   UNL     1     -12.351   7.490 129.222  0.00  0.00    +0.000 A 
ATOM     11  O   UNL     1     -13.393   8.005 128.802  0.00  0.00    +0.000 OA
ATOM     12  N   UNL     1     -12.114   7.311 130.583  0.00  0.00    +0.000 N 
ATOM     13  C   UNL     1     -13.112   7.733 131.546  0.00  0.00    +0.000 C 
ENDROOT
BRANCH   1  14
ATOM     14  C   UNL     1      -7.718   5.290 130.342  0.00  0.00    +0.000 C 
BRANCH  14  15
ATOM     15  C   UNL     1      -6.511   6.038 130.895  0.00  0.00    +0.000 C 
BRANCH  15  16
ATOM     16  O   UNL     1      -6.701   7.406 130.499  0.00  0.00    +0.000 OA
ATOM     17  H   UNL     1      -5.830   7.810 130.353  0.00  0.00    +0.000 HD
ENDBRANCH  15  16
BRANCH  15  18
ATOM     18  C   UNL     1      -5.187   5.452 130.343  0.00  0.00    +0.000 C 
BRANCH  18  20
ATOM     19  C   UNL     1      -3.767   6.566 128.743  0.00  0.00    +0.000 C 
ATOM     20  N   UNL     1      -4.949   5.718 128.905  0.00  0.00    +0.000 NA
BRANCH  20  21
ATOM     21  C   UNL     1      -4.808   4.472 128.133  0.00  0.00    +0.000 C 
BRANCH  21  22
ATOM     22  C   UNL     1      -5.458   4.476 126.753  0.00  0.00    +0.000 C 
BRANCH  22  23
ATOM     23  O   UNL     1      -6.829   4.849 126.868  0.00  0.00    +0.000 OA
ATOM     24  H   UNL     1      -6.852   5.793 127.097  0.00  0.00    +0.000 HD
ENDBRANCH  22  23
ENDBRANCH  21  22
ENDBRANCH  20  21
ENDBRANCH  18  20
ENDBRANCH  15  18
ENDBRANCH  14  15
ENDBRANCH   1  14
TORSDOF 8
ENDMDL
MODEL 5
REMARK VINA RESULT:      -5.8      7.684      9.751
REMARK  Name = Xanthinol
REMARK  11 active torsions:
REMARK  status: ('A' for Active; 'I' for Inactive)
REMARK    1  A    between atoms: C_1  and  N_2
REMARK    2  A    between atoms: N_2  and  C_3
REMARK    3  A    between atoms: N_2  and  C_6
REMARK    4  A    between atoms: C_3  and  C_4
REMARK    5  A    between atoms: C_4  and  O_5
REMARK    6  A    between atoms: C_6  and  C_7
REMARK    7  A    between atoms: C_7  and  O_8
REMARK    8  A    between atoms: C_7  and  C_9
REMARK    9  A    between atoms: C_9  and  N_10
REMARK   10  A    between atoms: N_17  and  C_18
REMARK   11  A    between atoms: N_21  and  C_22
REMARK                            x       y       z     vdW  Elec       q    Type
REMARK                         _______ _______ _______ _____ _____    ______ ____
ROOT
ATOM      1  N   UNL     1      -9.572   4.432 131.074  0.00  0.00    +0.000 N 
ATOM      2  C   UNL     1      -9.362   4.089 132.388  0.00  0.00    +0.000 A 
ATOM      3  N   UNL     1      -8.131   3.659 132.588  0.00  0.00    +0.000 NA
ATOM      4  C   UNL     1      -7.534   3.768 131.368  0.00  0.00    +0.000 A 
ATOM      5  C   UNL     1      -8.391   4.249 130.422  0.00  0.00    +0.000 A 
ATOM      6  C   UNL     1      -8.019   4.479 129.075  0.00  0.00    +0.000 A 
ATOM      7  O   UNL     1      -8.795   4.947 128.239  0.00  0.00    +0.000 OA
ATOM      8  N   UNL     1      -6.703   4.118 128.807  0.00  0.00    +0.000 N 
ATOM      9  C   UNL     1      -6.214   4.266 127.452  0.00  0.00    +0.000 C 
ATOM     10  C   UNL     1      -5.788   3.609 129.746  0.00  0.00    +0.000 A 
ATOM     11  O   UNL     1      -4.638   3.317 129.407  0.00  0.00    +0.000 OA
ATOM     12  N   UNL     1      -6.235   3.445 131.056  0.00  0.00    +0.000 N 
ATOM     13  C   UNL     1      -5.331   2.921 132.061  0.00  0.00    +0.000 C 
ENDROOT
BRANCH   1  14
ATOM     14  C   UNL     1     -10.794   4.993 130.518  0.00  0.00    +0.000 C 
BRANCH  14  15
ATOM     15  C   UNL     1     -11.022   6.399 131.060  0.00  0.00    +0.000 C 
BRANCH  15  16
ATOM     16  O   UNL     1     -12.303   6.350 131.710  0.00  0.00    +0.000 OA
ATOM     17  H   UNL     1     -12.969   6.724 131.112  0.00  0.00    +0.000 HD
ENDBRANCH  15  16
BRANCH  15  18
ATOM     18  C   UNL     1     -10.989   7.450 129.923  0.00  0.00    +0.000 C 
BRANCH  18  20
ATOM     19  C   UNL     1     -12.650   9.090 129.312  0.00  0.00    +0.000 C 
ATOM     20  N   UNL     1     -12.291   7.672 129.251  0.00  0.00    +0.000 NA
BRANCH  20  21
ATOM     21  C   UNL     1     -12.277   7.196 127.858  0.00  0.00    +0.000 C 
BRANCH  21  22
ATOM     22  C   UNL     1     -11.045   7.584 127.044  0.00  0.00    +0.000 C 
BRANCH  22  23
ATOM     23  O   UNL     1     -10.579   6.454 126.310  0.00  0.00    +0.000 OA
ATOM     24  H   UNL     1      -9.609   6.509 126.283  0.00  0.00    +0.000 HD
ENDBRANCH  22  23
ENDBRANCH  21  22
ENDBRANCH  20  21
ENDBRANCH  18  20
ENDBRANCH  15  18
ENDBRANCH  14  15
ENDBRANCH   1  14
TORSDOF 8
ENDMDL
MODEL 6
REMARK VINA RESULT:      -5.7      7.408      8.945
REMARK  Name = Xanthinol
REMARK  11 active torsions:
REMARK  status: ('A' for Active; 'I' for Inactive)
REMARK    1  A    between atoms: C_1  and  N_2
REMARK    2  A    between atoms: N_2  and  C_3
REMARK    3  A    between atoms: N_2  and  C_6
REMARK    4  A    between atoms: C_3  and  C_4
REMARK    5  A    between atoms: C_4  and  O_5
REMARK    6  A    between atoms: C_6  and  C_7
REMARK    7  A    between atoms: C_7  and  O_8
REMARK    8  A    between atoms: C_7  and  C_9
REMARK    9  A    between atoms: C_9  and  N_10
REMARK   10  A    between atoms: N_17  and  C_18
REMARK   11  A    between atoms: N_21  and  C_22
REMARK                            x       y       z     vdW  Elec       q    Type
REMARK                         _______ _______ _______ _____ _____    ______ ____
ROOT
ATOM      1  N   UNL     1      -8.963   5.768 130.708  0.00  0.00    +0.000 N 
ATOM      2  C   UNL     1      -9.328   5.822 132.032  0.00  0.00    +0.000 A 
ATOM      3  N   UNL     1     -10.494   6.419 132.192  0.00  0.00    +0.000 NA
ATOM      4  C   UNL     1     -10.895   6.718 130.925  0.00  0.00    +0.000 A 
ATOM      5  C   UNL     1      -9.981   6.322 129.994  0.00  0.00    +0.000 A 
ATOM      6  C   UNL     1     -10.161   6.494 128.599  0.00  0.00    +0.000 A 
ATOM      7  O   UNL     1      -9.341   6.101 127.767  0.00  0.00    +0.000 OA
ATOM      8  N   UNL     1     -11.344   7.152 128.283  0.00  0.00    +0.000 N 
ATOM      9  C   UNL     1     -11.625   7.427 126.889  0.00  0.00    +0.000 C 
ATOM     10  C   UNL     1     -12.310   7.587 129.208  0.00  0.00    +0.000 A 
ATOM     11  O   UNL     1     -13.332   8.165 128.825  0.00  0.00    +0.000 OA
ATOM     12  N   UNL     1     -12.061   7.347 130.558  0.00  0.00    +0.000 N 
ATOM     13  C   UNL     1     -13.024   7.778 131.552  0.00  0.00    +0.000 C 
ENDROOT
BRANCH   1  14
ATOM     14  C   UNL     1      -7.769   5.135 130.172  0.00  0.00    +0.000 C 
BRANCH  14  15
ATOM     15  C   UNL     1      -7.847   3.623 130.356  0.00  0.00    +0.000 C 
BRANCH  15  16
ATOM     16  O   UNL     1      -6.482   3.185 130.457  0.00  0.00    +0.000 OA
ATOM     17  H   UNL     1      -5.914   3.833 130.011  0.00  0.00    +0.000 HD
ENDBRANCH  15  16
BRANCH  15  18
ATOM     18  C   UNL     1      -8.585   2.953 129.171  0.00  0.00    +0.000 C 
BRANCH  18  20
ATOM     19  C   UNL     1      -8.195   1.031 127.766  0.00  0.00    +0.000 C 
ATOM     20  N   UNL     1      -7.694   2.352 128.150  0.00  0.00    +0.000 NA
BRANCH  20  21
ATOM     21  C   UNL     1      -7.551   3.220 126.970  0.00  0.00    +0.000 C 
BRANCH  21  22
ATOM     22  C   UNL     1      -8.188   2.695 125.687  0.00  0.00    +0.000 C 
BRANCH  22  23
ATOM     23  O   UNL     1      -9.003   3.710 125.105  0.00  0.00    +0.000 OA
ATOM     24  H   UNL     1      -9.908   3.573 125.429  0.00  0.00    +0.000 HD
ENDBRANCH  22  23
ENDBRANCH  21  22
ENDBRANCH  20  21
ENDBRANCH  18  20
ENDBRANCH  15  18
ENDBRANCH  14  15
ENDBRANCH   1  14
TORSDOF 8
ENDMDL
MODEL 7
REMARK VINA RESULT:      -5.5      8.595      9.885
REMARK  Name = Xanthinol
REMARK  11 active torsions:
REMARK  status: ('A' for Active; 'I' for Inactive)
REMARK    1  A    between atoms: C_1  and  N_2
REMARK    2  A    between atoms: N_2  and  C_3
REMARK    3  A    between atoms: N_2  and  C_6
REMARK    4  A    between atoms: C_3  and  C_4
REMARK    5  A    between atoms: C_4  and  O_5
REMARK    6  A    between atoms: C_6  and  C_7
REMARK    7  A    between atoms: C_7  and  O_8
REMARK    8  A    between atoms: C_7  and  C_9
REMARK    9  A    between atoms: C_9  and  N_10
REMARK   10  A    between atoms: N_17  and  C_18
REMARK   11  A    between atoms: N_21  and  C_22
REMARK                            x       y       z     vdW  Elec       q    Type
REMARK                         _______ _______ _______ _____ _____    ______ ____
ROOT
ATOM      1  N   UNL     1      -9.277   5.001 130.326  0.00  0.00    +0.000 N 
ATOM      2  C   UNL     1      -8.644   4.927 129.108  0.00  0.00    +0.000 A 
ATOM      3  N   UNL     1      -9.178   5.757 128.232  0.00  0.00    +0.000 NA
ATOM      4  C   UNL     1     -10.155   6.401 128.930  0.00  0.00    +0.000 A 
ATOM      5  C   UNL     1     -10.232   5.965 130.220  0.00  0.00    +0.000 A 
ATOM      6  C   UNL     1     -11.148   6.484 131.167  0.00  0.00    +0.000 A 
ATOM      7  O   UNL     1     -11.183   6.103 132.339  0.00  0.00    +0.000 OA
ATOM      8  N   UNL     1     -11.992   7.450 130.632  0.00  0.00    +0.000 N 
ATOM      9  C   UNL     1     -13.004   8.029 131.490  0.00  0.00    +0.000 C 
ATOM     10  C   UNL     1     -11.956   7.923 129.308  0.00  0.00    +0.000 A 
ATOM     11  O   UNL     1     -12.753   8.786 128.927  0.00  0.00    +0.000 OA
ATOM     12  N   UNL     1     -11.000   7.375 128.455  0.00  0.00    +0.000 N 
ATOM     13  C   UNL     1     -10.924   7.827 127.079  0.00  0.00    +0.000 C 
ENDROOT
BRANCH   1  14
ATOM     14  C   UNL     1      -8.912   4.266 131.528  0.00  0.00    +0.000 C 
BRANCH  14  15
ATOM     15  C   UNL     1      -9.654   2.936 131.578  0.00  0.00    +0.000 C 
BRANCH  15  16
ATOM     16  O   UNL     1      -9.954   2.723 132.967  0.00  0.00    +0.000 OA
ATOM     17  H   UNL     1      -9.127   2.768 133.473  0.00  0.00    +0.000 HD
ENDBRANCH  15  16
BRANCH  15  18
ATOM     18  C   UNL     1      -8.792   1.792 130.988  0.00  0.00    +0.000 C 
BRANCH  18  20
ATOM     19  C   UNL     1      -8.404  -0.527 131.530  0.00  0.00    +0.000 C 
ATOM     20  N   UNL     1      -8.244   0.852 131.995  0.00  0.00    +0.000 NA
BRANCH  20  21
ATOM     21  C   UNL     1      -6.833   1.140 132.300  0.00  0.00    +0.000 C 
BRANCH  21  22
ATOM     22  C   UNL     1      -6.560   1.678 133.702  0.00  0.00    +0.000 C 
BRANCH  22  23
ATOM     23  O   UNL     1      -6.388   0.592 134.609  0.00  0.00    +0.000 OA
ATOM     24  H   UNL     1      -6.123   0.969 135.464  0.00  0.00    +0.000 HD
ENDBRANCH  22  23
ENDBRANCH  21  22
ENDBRANCH  20  21
ENDBRANCH  18  20
ENDBRANCH  15  18
ENDBRANCH  14  15
ENDBRANCH   1  14
TORSDOF 8
ENDMDL
MODEL 8
REMARK VINA RESULT:      -5.5      8.048     10.365
REMARK  Name = Xanthinol
REMARK  11 active torsions:
REMARK  status: ('A' for Active; 'I' for Inactive)
REMARK    1  A    between atoms: C_1  and  N_2
REMARK    2  A    between atoms: N_2  and  C_3
REMARK    3  A    between atoms: N_2  and  C_6
REMARK    4  A    between atoms: C_3  and  C_4
REMARK    5  A    between atoms: C_4  and  O_5
REMARK    6  A    between atoms: C_6  and  C_7
REMARK    7  A    between atoms: C_7  and  O_8
REMARK    8  A    between atoms: C_7  and  C_9
REMARK    9  A    between atoms: C_9  and  N_10
REMARK   10  A    between atoms: N_17  and  C_18
REMARK   11  A    between atoms: N_21  and  C_22
REMARK                            x       y       z     vdW  Elec       q    Type
REMARK                         _______ _______ _______ _____ _____    ______ ____
ROOT
ATOM      1  N   UNL     1      -9.053   4.555 130.238  0.00  0.00    +0.000 N 
ATOM      2  C   UNL     1      -8.519   4.826 129.001  0.00  0.00    +0.000 A 
ATOM      3  N   UNL     1      -7.224   4.573 128.964  0.00  0.00    +0.000 NA
ATOM      4  C   UNL     1      -6.938   4.095 130.207  0.00  0.00    +0.000 A 
ATOM      5  C   UNL     1      -8.043   4.063 131.007  0.00  0.00    +0.000 A 
ATOM      6  C   UNL     1      -8.028   3.588 132.342  0.00  0.00    +0.000 A 
ATOM      7  O   UNL     1      -9.041   3.534 133.041  0.00  0.00    +0.000 OA
ATOM      8  N   UNL     1      -6.761   3.203 132.766  0.00  0.00    +0.000 N 
ATOM      9  C   UNL     1      -6.605   2.738 134.128  0.00  0.00    +0.000 C 
ATOM     10  C   UNL     1      -5.594   3.229 131.981  0.00  0.00    +0.000 A 
ATOM     11  O   UNL     1      -4.512   2.865 132.452  0.00  0.00    +0.000 OA
ATOM     12  N   UNL     1      -5.711   3.683 130.669  0.00  0.00    +0.000 N 
ATOM     13  C   UNL     1      -4.537   3.731 129.820  0.00  0.00    +0.000 C 
ENDROOT
BRANCH   1  14
ATOM     14  C   UNL     1     -10.454   4.668 130.612  0.00  0.00    +0.000 C 
BRANCH  14  15
ATOM     15  C   UNL     1     -10.732   6.046 131.203  0.00  0.00    +0.000 C 
BRANCH  15  16
ATOM     16  O   UNL     1     -11.057   5.806 132.581  0.00  0.00    +0.000 OA
ATOM     17  H   UNL     1     -10.424   5.165 132.942  0.00  0.00    +0.000 HD
ENDBRANCH  15  16
BRANCH  15  18
ATOM     18  C   UNL     1     -11.885   6.755 130.450  0.00  0.00    +0.000 C 
BRANCH  18  20
ATOM     19  C   UNL     1     -13.228   6.681 128.447  0.00  0.00    +0.000 C 
ATOM     20  N   UNL     1     -11.869   6.567 128.980  0.00  0.00    +0.000 NA
BRANCH  20  21
ATOM     21  C   UNL     1     -10.966   7.520 128.316  0.00  0.00    +0.000 C 
BRANCH  21  22
ATOM     22  C   UNL     1     -11.083   7.587 126.796  0.00  0.00    +0.000 C 
BRANCH  22  23
ATOM     23  O   UNL     1     -10.446   6.453 126.214  0.00  0.00    +0.000 OA
ATOM     24  H   UNL     1     -10.172   5.871 126.942  0.00  0.00    +0.000 HD
ENDBRANCH  22  23
ENDBRANCH  21  22
ENDBRANCH  20  21
ENDBRANCH  18  20
ENDBRANCH  15  18
ENDBRANCH  14  15
ENDBRANCH   1  14
TORSDOF 8
ENDMDL
MODEL 9
REMARK VINA RESULT:      -5.5      7.990      9.408
REMARK  Name = Xanthinol
REMARK  11 active torsions:
REMARK  status: ('A' for Active; 'I' for Inactive)
REMARK    1  A    between atoms: C_1  and  N_2
REMARK    2  A    between atoms: N_2  and  C_3
REMARK    3  A    between atoms: N_2  and  C_6
REMARK    4  A    between atoms: C_3  and  C_4
REMARK    5  A    between atoms: C_4  and  O_5
REMARK    6  A    between atoms: C_6  and  C_7
REMARK    7  A    between atoms: C_7  and  O_8
REMARK    8  A    between atoms: C_7  and  C_9
REMARK    9  A    between atoms: C_9  and  N_10
REMARK   10  A    between atoms: N_17  and  C_18
REMARK   11  A    between atoms: N_21  and  C_22
REMARK                            x       y       z     vdW  Elec       q    Type
REMARK                         _______ _______ _______ _____ _____    ______ ____
ROOT
ATOM      1  N   UNL     1      -9.153   5.105 130.569  0.00  0.00    +0.000 N 
ATOM      2  C   UNL     1      -8.490   4.930 129.378  0.00  0.00    +0.000 A 
ATOM      3  N   UNL     1      -9.045   5.627 128.404  0.00  0.00    +0.000 NA
ATOM      4  C   UNL     1     -10.071   6.291 129.008  0.00  0.00    +0.000 A 
ATOM      5  C   UNL     1     -10.155   5.998 130.337  0.00  0.00    +0.000 A 
ATOM      6  C   UNL     1     -11.118   6.570 131.204  0.00  0.00    +0.000 A 
ATOM      7  O   UNL     1     -11.161   6.321 132.411  0.00  0.00    +0.000 OA
ATOM      8  N   UNL     1     -11.999   7.422 130.548  0.00  0.00    +0.000 N 
ATOM      9  C   UNL     1     -13.060   8.038 131.318  0.00  0.00    +0.000 C 
ATOM     10  C   UNL     1     -11.957   7.745 129.180  0.00  0.00    +0.000 A 
ATOM     11  O   UNL     1     -12.788   8.516 128.690  0.00  0.00    +0.000 OA
ATOM     12  N   UNL     1     -10.954   7.158 128.411  0.00  0.00    +0.000 N 
ATOM     13  C   UNL     1     -10.870   7.456 126.995  0.00  0.00    +0.000 C 
ENDROOT
BRANCH   1  14
ATOM     14  C   UNL     1      -8.779   4.531 131.852  0.00  0.00    +0.000 C 
BRANCH  14  15
ATOM     15  C   UNL     1      -8.996   3.023 131.837  0.00  0.00    +0.000 C 
BRANCH  15  16
ATOM     16  O   UNL     1      -9.881   2.758 132.938  0.00  0.00    +0.000 OA
ATOM     17  H   UNL     1     -10.656   2.279 132.604  0.00  0.00    +0.000 HD
ENDBRANCH  15  16
BRANCH  15  18
ATOM     18  C   UNL     1      -7.653   2.263 131.977  0.00  0.00    +0.000 C 
BRANCH  18  20
ATOM     19  C   UNL     1      -6.304   0.479 131.073  0.00  0.00    +0.000 C 
ATOM     20  N   UNL     1      -7.194   1.592 130.738  0.00  0.00    +0.000 NA
BRANCH  20  21
ATOM     21  C   UNL     1      -8.323   1.128 129.915  0.00  0.00    +0.000 C 
BRANCH  21  22
ATOM     22  C   UNL     1      -8.065   1.080 128.412  0.00  0.00    +0.000 C 
BRANCH  22  23
ATOM     23  O   UNL     1      -9.002   1.914 127.736  0.00  0.00    +0.000 OA
ATOM     24  H   UNL     1      -8.514   2.400 127.050  0.00  0.00    +0.000 HD
ENDBRANCH  22  23
ENDBRANCH  21  22
ENDBRANCH  20  21
ENDBRANCH  18  20
ENDBRANCH  15  18
ENDBRANCH  14  15
ENDBRANCH   1  14
TORSDOF 8
ENDMDL
