MODEL 1
REMARK VINA RESULT:      -4.1      0.000      0.000
REMARK  Name = Xylose
REMARK  8 active torsions:
REMARK  status: ('A' for Active; 'I' for Inactive)
REMARK    1  A    between atoms: O_1  and  C_2
REMARK    2  A    between atoms: C_2  and  C_3
REMARK    3  A    between atoms: C_3  and  O_4
REMARK    4  A    between atoms: C_3  and  C_5
REMARK    5  A    between atoms: C_5  and  O_6
REMARK    6  A    between atoms: C_5  and  C_7
REMARK    7  A    between atoms: C_7  and  O_8
REMARK    8  A    between atoms: C_7  and  C_9
REMARK                            x       y       z     vdW  Elec       q    Type
REMARK                         _______ _______ _______ _____ _____    ______ ____
ROOT
ATOM      1  C   UNL     1     -11.778   6.954 129.723  0.00  0.00    +0.000 C 
ENDROOT
BRANCH   1   2
ATOM      2  O   UNL     1     -12.413   6.105 128.751  0.00  0.00    +0.000 OA
ATOM      3  H   UNL     1     -12.324   5.181 129.039  0.00  0.00    +0.000 HD
ENDBRANCH   1   2
BRANCH   1   4
ATOM      4  C   UNL     1     -11.167   6.108 130.860  0.00  0.00    +0.000 C 
BRANCH   4   5
ATOM      5  O   UNL     1     -12.051   6.124 131.987  0.00  0.00    +0.000 OA
ATOM      6  H   UNL     1     -12.856   5.644 131.696  0.00  0.00    +0.000 HD
ENDBRANCH   4   5
BRANCH   4   7
ATOM      7  C   UNL     1     -10.930   4.654 130.451  0.00  0.00    +0.000 C 
BRANCH   7   8
ATOM      8  O   UNL     1      -9.887   4.614 129.479  0.00  0.00    +0.000 OA
ATOM      9  H   UNL     1      -9.051   4.716 129.967  0.00  0.00    +0.000 HD
ENDBRANCH   7   8
ENDBRANCH   4   7
ENDBRANCH   1   4
BRANCH   1  10
ATOM     10  C   UNL     1     -10.717   7.827 129.024  0.00  0.00    +0.000 C 
BRANCH  10  11
ATOM     11  O   UNL     1      -9.456   7.682 129.685  0.00  0.00    +0.000 OA
ATOM     12  H   UNL     1      -9.440   6.811 130.116  0.00  0.00    +0.000 HD
ENDBRANCH  10  11
BRANCH  10  13
ATOM     13  C   UNL     1     -10.560   7.530 127.539  0.00  0.00    +0.000 C 
ATOM     14  O   UNL     1      -9.952   6.550 127.100  0.00  0.00    +0.000 OA
ENDBRANCH  10  13
ENDBRANCH   1  10
TORSDOF 8
ENDMDL
MODEL 2
REMARK VINA RESULT:      -4.0      1.383      3.383
REMARK  Name = Xylose
REMARK  8 active torsions:
REMARK  status: ('A' for Active; 'I' for Inactive)
REMARK    1  A    between atoms: O_1  and  C_2
REMARK    2  A    between atoms: C_2  and  C_3
REMARK    3  A    between atoms: C_3  and  O_4
REMARK    4  A    between atoms: C_3  and  C_5
REMARK    5  A    between atoms: C_5  and  O_6
REMARK    6  A    between atoms: C_5  and  C_7
REMARK    7  A    between atoms: C_7  and  O_8
REMARK    8  A    between atoms: C_7  and  C_9
REMARK                            x       y       z     vdW  Elec       q    Type
REMARK                         _______ _______ _______ _____ _____    ______ ____
ROOT
ATOM      1  C   UNL     1     -10.892   7.705 129.473  0.00  0.00    +0.000 C 
ENDROOT
BRANCH   1   2
ATOM      2  O   UNL     1      -9.510   7.990 129.196  0.00  0.00    +0.000 OA
ATOM      3  H   UNL     1      -8.972   7.680 129.945  0.00  0.00    +0.000 HD
ENDBRANCH   1   2
BRANCH   1   4
ATOM      4  C   UNL     1     -11.761   7.988 128.229  0.00  0.00    +0.000 C 
BRANCH   4   5
ATOM      5  O   UNL     1     -12.390   9.267 128.375  0.00  0.00    +0.000 OA
ATOM      6  H   UNL     1     -12.936   9.385 127.569  0.00  0.00    +0.000 HD
ENDBRANCH   4   5
BRANCH   4   7
ATOM      7  C   UNL     1     -10.951   7.993 126.933  0.00  0.00    +0.000 C 
BRANCH   7   8
ATOM      8  O   UNL     1     -10.650   6.646 126.573  0.00  0.00    +0.000 OA
ATOM      9  H   UNL     1     -11.374   6.347 125.995  0.00  0.00    +0.000 HD
ENDBRANCH   7   8
ENDBRANCH   4   7
ENDBRANCH   1   4
BRANCH   1  10
ATOM     10  C   UNL     1     -11.027   6.243 129.945  0.00  0.00    +0.000 C 
BRANCH  10  11
ATOM     11  O   UNL     1     -12.084   5.596 129.230  0.00  0.00    +0.000 OA
ATOM     12  H   UNL     1     -11.905   4.640 129.229  0.00  0.00    +0.000 HD
ENDBRANCH  10  11
BRANCH  10  13
ATOM     13  C   UNL     1      -9.743   5.435 129.814  0.00  0.00    +0.000 C 
ATOM     14  O   UNL     1      -9.238   5.130 128.730  0.00  0.00    +0.000 OA
ENDBRANCH  10  13
ENDBRANCH   1  10
TORSDOF 8
ENDMDL
MODEL 3
REMARK VINA RESULT:      -4.0      1.173      3.914
REMARK  Name = Xylose
REMARK  8 active torsions:
REMARK  status: ('A' for Active; 'I' for Inactive)
REMARK    1  A    between atoms: O_1  and  C_2
REMARK    2  A    between atoms: C_2  and  C_3
REMARK    3  A    between atoms: C_3  and  O_4
REMARK    4  A    between atoms: C_3  and  C_5
REMARK    5  A    between atoms: C_5  and  O_6
REMARK    6  A    between atoms: C_5  and  C_7
REMARK    7  A    between atoms: C_7  and  O_8
REMARK    8  A    between atoms: C_7  and  C_9
REMARK                            x       y       z     vdW  Elec       q    Type
REMARK                         _______ _______ _______ _____ _____    ______ ____
ROOT
ATOM      1  C   UNL     1     -10.649   7.639 129.294  0.00  0.00    +0.000 C 
ENDROOT
BRANCH   1   2
ATOM      2  O   UNL     1      -9.323   7.425 129.809  0.00  0.00    +0.000 OA
ATOM      3  H   UNL     1      -8.977   8.272 130.138  0.00  0.00    +0.000 HD
ENDBRANCH   1   2
BRANCH   1   4
ATOM      4  C   UNL     1     -10.628   7.678 127.751  0.00  0.00    +0.000 C 
BRANCH   4   5
ATOM      5  O   UNL     1      -9.854   6.576 127.262  0.00  0.00    +0.000 OA
ATOM      6  H   UNL     1     -10.424   6.127 126.601  0.00  0.00    +0.000 HD
ENDBRANCH   4   5
BRANCH   4   7
ATOM      7  C   UNL     1     -12.026   7.595 127.140  0.00  0.00    +0.000 C 
BRANCH   7   8
ATOM      8  O   UNL     1     -12.036   6.568 126.149  0.00  0.00    +0.000 OA
ATOM      9  H   UNL     1     -11.116   6.261 126.062  0.00  0.00    +0.000 HD
ENDBRANCH   7   8
ENDBRANCH   4   7
ENDBRANCH   1   4
BRANCH   1  10
ATOM     10  C   UNL     1     -11.588   6.537 129.825  0.00  0.00    +0.000 C 
BRANCH  10  11
ATOM     11  O   UNL     1     -10.973   5.255 129.668  0.00  0.00    +0.000 OA
ATOM     12  H   UNL     1     -11.554   4.590 130.078  0.00  0.00    +0.000 HD
ENDBRANCH  10  11
BRANCH  10  13
ATOM     13  C   UNL     1     -12.007   6.736 131.276  0.00  0.00    +0.000 C 
ATOM     14  O   UNL     1     -13.122   7.142 131.613  0.00  0.00    +0.000 OA
ENDBRANCH  10  13
ENDBRANCH   1  10
TORSDOF 8
ENDMDL
MODEL 4
REMARK VINA RESULT:      -4.0      1.651      2.069
REMARK  Name = Xylose
REMARK  8 active torsions:
REMARK  status: ('A' for Active; 'I' for Inactive)
REMARK    1  A    between atoms: O_1  and  C_2
REMARK    2  A    between atoms: C_2  and  C_3
REMARK    3  A    between atoms: C_3  and  O_4
REMARK    4  A    between atoms: C_3  and  C_5
REMARK    5  A    between atoms: C_5  and  O_6
REMARK    6  A    between atoms: C_5  and  C_7
REMARK    7  A    between atoms: C_7  and  O_8
REMARK    8  A    between atoms: C_7  and  C_9
REMARK                            x       y       z     vdW  Elec       q    Type
REMARK                         _______ _______ _______ _____ _____    ______ ____
ROOT
ATOM      1  C   UNL     1     -12.391   6.936 129.481  0.00  0.00    +0.000 C 
ENDROOT
BRANCH   1   2
ATOM      2  O   UNL     1     -11.459   5.917 129.081  0.00  0.00    +0.000 OA
ATOM      3  H   UNL     1     -11.240   5.372 129.857  0.00  0.00    +0.000 HD
ENDBRANCH   1   2
BRANCH   1   4
ATOM      4  C   UNL     1     -12.195   7.292 130.971  0.00  0.00    +0.000 C 
BRANCH   4   5
ATOM      5  O   UNL     1     -13.460   7.234 131.639  0.00  0.00    +0.000 OA
ATOM      6  H   UNL     1     -13.629   6.280 131.798  0.00  0.00    +0.000 HD
ENDBRANCH   4   5
BRANCH   4   7
ATOM      7  C   UNL     1     -11.228   6.345 131.680  0.00  0.00    +0.000 C 
BRANCH   7   8
ATOM      8  O   UNL     1      -9.893   6.797 131.457  0.00  0.00    +0.000 OA
ATOM      9  H   UNL     1      -9.359   6.457 132.197  0.00  0.00    +0.000 HD
ENDBRANCH   7   8
ENDBRANCH   4   7
ENDBRANCH   1   4
BRANCH   1  10
ATOM     10  C   UNL     1     -12.223   8.169 128.571  0.00  0.00    +0.000 C 
BRANCH  10  11
ATOM     11  O   UNL     1     -12.638   9.348 129.265  0.00  0.00    +0.000 OA
ATOM     12  H   UNL     1     -12.196   9.358 130.132  0.00  0.00    +0.000 HD
ENDBRANCH  10  11
BRANCH  10  13
ATOM     13  C   UNL     1     -10.806   8.351 128.041  0.00  0.00    +0.000 C 
ATOM     14  O   UNL     1      -9.800   8.277 128.750  0.00  0.00    +0.000 OA
ENDBRANCH  10  13
ENDBRANCH   1  10
TORSDOF 8
ENDMDL
MODEL 5
REMARK VINA RESULT:      -3.9      1.741      2.590
REMARK  Name = Xylose
REMARK  8 active torsions:
REMARK  status: ('A' for Active; 'I' for Inactive)
REMARK    1  A    between atoms: O_1  and  C_2
REMARK    2  A    between atoms: C_2  and  C_3
REMARK    3  A    between atoms: C_3  and  O_4
REMARK    4  A    between atoms: C_3  and  C_5
REMARK    5  A    between atoms: C_5  and  O_6
REMARK    6  A    between atoms: C_5  and  C_7
REMARK    7  A    between atoms: C_7  and  O_8
REMARK    8  A    between atoms: C_7  and  C_9
REMARK                            x       y       z     vdW  Elec       q    Type
REMARK                         _______ _______ _______ _____ _____    ______ ____
ROOT
ATOM      1  C   UNL     1     -11.573   6.017 130.521  0.00  0.00    +0.000 C 
ENDROOT
BRANCH   1   2
ATOM      2  O   UNL     1     -10.938   5.808 129.247  0.00  0.00    +0.000 OA
ATOM      3  H   UNL     1     -11.217   6.516 128.641  0.00  0.00    +0.000 HD
ENDBRANCH   1   2
BRANCH   1   4
ATOM      4  C   UNL     1     -10.540   6.481 131.569  0.00  0.00    +0.000 C 
BRANCH   4   5
ATOM      5  O   UNL     1     -10.688   5.694 132.757  0.00  0.00    +0.000 OA
ATOM      6  H   UNL     1      -9.910   5.096 132.775  0.00  0.00    +0.000 HD
ENDBRANCH   4   5
BRANCH   4   7
ATOM      7  C   UNL     1      -9.100   6.347 131.077  0.00  0.00    +0.000 C 
BRANCH   7   8
ATOM      8  O   UNL     1      -8.810   7.436 130.201  0.00  0.00    +0.000 OA
ATOM      9  H   UNL     1      -8.878   8.246 130.737  0.00  0.00    +0.000 HD
ENDBRANCH   7   8
ENDBRANCH   4   7
ENDBRANCH   1   4
BRANCH   1  10
ATOM     10  C   UNL     1     -12.722   7.033 130.359  0.00  0.00    +0.000 C 
BRANCH  10  11
ATOM     11  O   UNL     1     -13.352   7.261 131.623  0.00  0.00    +0.000 OA
ATOM     12  H   UNL     1     -12.726   7.005 132.322  0.00  0.00    +0.000 HD
ENDBRANCH  10  11
BRANCH  10  13
ATOM     13  C   UNL     1     -12.285   8.360 129.751  0.00  0.00    +0.000 C 
ATOM     14  O   UNL     1     -11.391   8.461 128.908  0.00  0.00    +0.000 OA
ENDBRANCH  10  13
ENDBRANCH   1  10
TORSDOF 8
ENDMDL
MODEL 6
REMARK VINA RESULT:      -3.9      1.228      2.200
REMARK  Name = Xylose
REMARK  8 active torsions:
REMARK  status: ('A' for Active; 'I' for Inactive)
REMARK    1  A    between atoms: O_1  and  C_2
REMARK    2  A    between atoms: C_2  and  C_3
REMARK    3  A    between atoms: C_3  and  O_4
REMARK    4  A    between atoms: C_3  and  C_5
REMARK    5  A    between atoms: C_5  and  O_6
REMARK    6  A    between atoms: C_5  and  C_7
REMARK    7  A    between atoms: C_7  and  O_8
REMARK    8  A    between atoms: C_7  and  C_9
REMARK                            x       y       z     vdW  Elec       q    Type
REMARK                         _______ _______ _______ _____ _____    ______ ____
ROOT
ATOM      1  C   UNL     1     -11.172   6.792 129.369  0.00  0.00    +0.000 C 
ENDROOT
BRANCH   1   2
ATOM      2  O   UNL     1     -12.098   5.719 129.127  0.00  0.00    +0.000 OA
ATOM      3  H   UNL     1     -11.597   4.893 129.013  0.00  0.00    +0.000 HD
ENDBRANCH   1   2
BRANCH   1   4
ATOM      4  C   UNL     1     -10.104   6.361 130.398  0.00  0.00    +0.000 C 
BRANCH   4   5
ATOM      5  O   UNL     1      -8.972   7.232 130.294  0.00  0.00    +0.000 OA
ATOM      6  H   UNL     1      -8.720   7.448 131.218  0.00  0.00    +0.000 HD
ENDBRANCH   4   5
BRANCH   4   7
ATOM      7  C   UNL     1     -10.620   6.408 131.836  0.00  0.00    +0.000 C 
BRANCH   7   8
ATOM      8  O   UNL     1     -11.987   5.998 131.849  0.00  0.00    +0.000 OA
ATOM      9  H   UNL     1     -12.213   5.823 132.779  0.00  0.00    +0.000 HD
ENDBRANCH   7   8
ENDBRANCH   4   7
ENDBRANCH   1   4
BRANCH   1  10
ATOM     10  C   UNL     1     -10.536   7.229 128.034  0.00  0.00    +0.000 C 
BRANCH  10  11
ATOM     11  O   UNL     1      -9.616   6.231 127.582  0.00  0.00    +0.000 OA
ATOM     12  H   UNL     1      -9.314   5.727 128.358  0.00  0.00    +0.000 HD
ENDBRANCH  10  11
BRANCH  10  13
ATOM     13  C   UNL     1     -11.552   7.529 126.940  0.00  0.00    +0.000 C 
ATOM     14  O   UNL     1     -12.378   6.708 126.534  0.00  0.00    +0.000 OA
ENDBRANCH  10  13
ENDBRANCH   1  10
TORSDOF 8
ENDMDL
MODEL 7
REMARK VINA RESULT:      -3.8      1.423      3.728
REMARK  Name = Xylose
REMARK  8 active torsions:
REMARK  status: ('A' for Active; 'I' for Inactive)
REMARK    1  A    between atoms: O_1  and  C_2
REMARK    2  A    between atoms: C_2  and  C_3
REMARK    3  A    between atoms: C_3  and  O_4
REMARK    4  A    between atoms: C_3  and  C_5
REMARK    5  A    between atoms: C_5  and  O_6
REMARK    6  A    between atoms: C_5  and  C_7
REMARK    7  A    between atoms: C_7  and  O_8
REMARK    8  A    between atoms: C_7  and  C_9
REMARK                            x       y       z     vdW  Elec       q    Type
REMARK                         _______ _______ _______ _____ _____    ______ ____
ROOT
ATOM      1  C   UNL     1     -11.870   6.614 129.226  0.00  0.00    +0.000 C 
ENDROOT
BRANCH   1   2
ATOM      2  O   UNL     1     -13.167   6.970 128.715  0.00  0.00    +0.000 OA
ATOM      3  H   UNL     1     -13.204   6.740 127.771  0.00  0.00    +0.000 HD
ENDBRANCH   1   2
BRANCH   1   4
ATOM      4  C   UNL     1     -10.758   7.233 128.352  0.00  0.00    +0.000 C 
BRANCH   4   5
ATOM      5  O   UNL     1      -9.756   6.242 128.094  0.00  0.00    +0.000 OA
ATOM      6  H   UNL     1      -9.668   6.205 127.118  0.00  0.00    +0.000 HD
ENDBRANCH   4   5
BRANCH   4   7
ATOM      7  C   UNL     1     -11.281   7.752 127.013  0.00  0.00    +0.000 C 
BRANCH   7   8
ATOM      8  O   UNL     1     -11.709   6.642 126.225  0.00  0.00    +0.000 OA
ATOM      9  H   UNL     1     -12.025   7.010 125.380  0.00  0.00    +0.000 HD
ENDBRANCH   7   8
ENDBRANCH   4   7
ENDBRANCH   1   4
BRANCH   1  10
ATOM     10  C   UNL     1     -11.760   7.063 130.697  0.00  0.00    +0.000 C 
BRANCH  10  11
ATOM     11  O   UNL     1     -13.046   7.010 131.320  0.00  0.00    +0.000 OA
ATOM     12  H   UNL     1     -13.684   7.448 130.731  0.00  0.00    +0.000 HD
ENDBRANCH  10  11
BRANCH  10  13
ATOM     13  C   UNL     1     -10.756   6.258 131.510  0.00  0.00    +0.000 C 
ATOM     14  O   UNL     1     -10.508   6.479 132.698  0.00  0.00    +0.000 OA
ENDBRANCH  10  13
ENDBRANCH   1  10
TORSDOF 8
ENDMDL
MODEL 8
REMARK VINA RESULT:      -3.6      8.652      9.854
REMARK  Name = Xylose
REMARK  8 active torsions:
REMARK  status: ('A' for Active; 'I' for Inactive)
REMARK    1  A    between atoms: O_1  and  C_2
REMARK    2  A    between atoms: C_2  and  C_3
REMARK    3  A    between atoms: C_3  and  O_4
REMARK    4  A    between atoms: C_3  and  C_5
REMARK    5  A    between atoms: C_5  and  O_6
REMARK    6  A    between atoms: C_5  and  C_7
REMARK    7  A    between atoms: C_7  and  O_8
REMARK    8  A    between atoms: C_7  and  C_9
REMARK                            x       y       z     vdW  Elec       q    Type
REMARK                         _______ _______ _______ _____ _____    ______ ____
ROOT
ATOM      1  C   UNL     1      -8.694  -0.527 123.828  0.00  0.00    +0.000 C 
ENDROOT
BRANCH   1   2
ATOM      2  O   UNL     1      -9.362  -0.981 125.018  0.00  0.00    +0.000 OA
ATOM      3  H   UNL     1      -9.007  -0.493 125.781  0.00  0.00    +0.000 HD
ENDBRANCH   1   2
BRANCH   1   4
ATOM      4  C   UNL     1      -8.349  -1.721 122.914  0.00  0.00    +0.000 C 
BRANCH   4   5
ATOM      5  O   UNL     1      -6.932  -1.763 122.708  0.00  0.00    +0.000 OA
ATOM      6  H   UNL     1      -6.558  -1.095 123.321  0.00  0.00    +0.000 HD
ENDBRANCH   4   5
BRANCH   4   7
ATOM      7  C   UNL     1      -8.792  -3.061 123.502  0.00  0.00    +0.000 C 
BRANCH   7   8
ATOM      8  O   UNL     1     -10.202  -3.197 123.325  0.00  0.00    +0.000 OA
ATOM      9  H   UNL     1     -10.518  -2.349 122.965  0.00  0.00    +0.000 HD
ENDBRANCH   7   8
ENDBRANCH   4   7
ENDBRANCH   1   4
BRANCH   1  10
ATOM     10  C   UNL     1      -9.580   0.509 123.108  0.00  0.00    +0.000 C 
BRANCH  10  11
ATOM     11  O   UNL     1     -10.615  -0.158 122.379  0.00  0.00    +0.000 OA
ATOM     12  H   UNL     1     -10.928   0.444 121.682  0.00  0.00    +0.000 HD
ENDBRANCH  10  11
BRANCH  10  13
ATOM     13  C   UNL     1     -10.191   1.547 124.040  0.00  0.00    +0.000 C 
ATOM     14  O   UNL     1      -9.581   2.057 124.984  0.00  0.00    +0.000 OA
ENDBRANCH  10  13
ENDBRANCH   1  10
TORSDOF 8
ENDMDL
MODEL 9
REMARK VINA RESULT:      -3.5      1.553      2.560
REMARK  Name = Xylose
REMARK  8 active torsions:
REMARK  status: ('A' for Active; 'I' for Inactive)
REMARK    1  A    between atoms: O_1  and  C_2
REMARK    2  A    between atoms: C_2  and  C_3
REMARK    3  A    between atoms: C_3  and  O_4
REMARK    4  A    between atoms: C_3  and  C_5
REMARK    5  A    between atoms: C_5  and  O_6
REMARK    6  A    between atoms: C_5  and  C_7
REMARK    7  A    between atoms: C_7  and  O_8
REMARK    8  A    between atoms: C_7  and  C_9
REMARK                            x       y       z     vdW  Elec       q    Type
REMARK                         _______ _______ _______ _____ _____    ______ ____
ROOT
ATOM      1  C   UNL     1     -11.871   8.523 129.101  0.00  0.00    +0.000 C 
ENDROOT
BRANCH   1   2
ATOM      2  O   UNL     1     -12.779   9.424 128.445  0.00  0.00    +0.000 OA
ATOM      3  H   UNL     1     -12.445  10.332 128.547  0.00  0.00    +0.000 HD
ENDBRANCH   1   2
BRANCH   1   4
ATOM      4  C   UNL     1     -12.583   7.199 129.451  0.00  0.00    +0.000 C 
BRANCH   4   5
ATOM      5  O   UNL     1     -12.121   6.168 128.571  0.00  0.00    +0.000 OA
ATOM      6  H   UNL     1     -12.381   6.456 127.670  0.00  0.00    +0.000 HD
ENDBRANCH   4   5
BRANCH   4   7
ATOM      7  C   UNL     1     -12.327   6.756 130.891  0.00  0.00    +0.000 C 
BRANCH   7   8
ATOM      8  O   UNL     1     -13.235   7.443 131.752  0.00  0.00    +0.000 OA
ATOM      9  H   UNL     1     -13.769   8.024 131.182  0.00  0.00    +0.000 HD
ENDBRANCH   7   8
ENDBRANCH   4   7
ENDBRANCH   1   4
BRANCH   1  10
ATOM     10  C   UNL     1     -10.642   8.290 128.199  0.00  0.00    +0.000 C 
BRANCH  10  11
ATOM     11  O   UNL     1      -9.741   7.374 128.828  0.00  0.00    +0.000 OA
ATOM     12  H   UNL     1      -9.787   6.529 128.348  0.00  0.00    +0.000 HD
ENDBRANCH  10  11
BRANCH  10  13
ATOM     13  C   UNL     1     -10.992   7.794 126.802  0.00  0.00    +0.000 C 
ATOM     14  O   UNL     1     -10.521   6.768 126.305  0.00  0.00    +0.000 OA
ENDBRANCH  10  13
ENDBRANCH   1  10
TORSDOF 8
ENDMDL
