MODEL 1
REMARK VINA RESULT:      -6.6      0.000      0.000
REMARK  Name = Xylometazoline
REMARK  8 active torsions:
REMARK  status: ('A' for Active; 'I' for Inactive)
REMARK    1  A    between atoms: C_1  and  C_2
REMARK    2  A    between atoms: C_4  and  C_15
REMARK    3  A    between atoms: C_6  and  C_7
REMARK    4  A    between atoms: C_8  and  C_9
REMARK    5  A    between atoms: C_9  and  C_10
REMARK    6  A    between atoms: C_15  and  C_16
REMARK    7  A    between atoms: C_15  and  C_17
REMARK    8  A    between atoms: C_15  and  C_18
REMARK                            x       y       z     vdW  Elec       q    Type
REMARK                         _______ _______ _______ _____ _____    ______ ____
ROOT
ATOM      1  C   UNL     1     -10.073   1.113 122.405  0.00  0.00    +0.000 C 
ATOM      2  C   UNL     1      -9.042   0.614 123.353  0.00  0.00    +0.000 A 
ATOM      3  C   UNL     1      -9.142  -0.761 123.581  0.00  0.00    +0.000 A 
ATOM      4  C   UNL     1      -8.265  -1.436 124.414  0.00  0.00    +0.000 A 
ATOM      5  C   UNL     1      -7.265  -0.677 125.027  0.00  0.00    +0.000 A 
ATOM      6  C   UNL     1      -7.154   0.713 124.850  0.00  0.00    +0.000 A 
ATOM      7  C   UNL     1      -6.013   1.397 125.563  0.00  0.00    +0.000 C 
ATOM      8  C   UNL     1      -8.075   1.403 124.020  0.00  0.00    +0.000 A 
ENDROOT
BRANCH   4   9
ATOM      9  C   UNL     1      -8.418  -2.942 124.589  0.00  0.00    +0.000 C 
ATOM     10  C   UNL     1      -8.836  -3.263 126.040  0.00  0.00    +0.000 C 
ATOM     11  C   UNL     1      -9.503  -3.461 123.620  0.00  0.00    +0.000 C 
ATOM     12  C   UNL     1      -7.104  -3.681 124.290  0.00  0.00    +0.000 C 
ENDBRANCH   4   9
BRANCH   8  13
ATOM     13  C   UNL     1      -7.937   2.926 123.912  0.00  0.00    +0.000 C 
BRANCH  13  14
ATOM     14  C   UNL     1      -7.139   3.508 122.759  0.00  0.00    +0.000 C 
ATOM     15  N   UNL     1      -5.856   3.737 122.868  0.00  0.00    +0.000 NA
ATOM     16  C   UNL     1      -5.442   4.150 121.489  0.00  0.00    +0.000 C 
ATOM     17  C   UNL     1      -6.575   3.704 120.570  0.00  0.00    +0.000 C 
ATOM     18  N   UNL     1      -7.683   3.752 121.509  0.00  0.00    +0.000 N 
ATOM     19  H   UNL     1      -8.549   3.285 121.275  0.00  0.00    +0.000 HD
ENDBRANCH  13  14
ENDBRANCH   8  13
TORSDOF 3
ENDMDL
MODEL 2
REMARK VINA RESULT:      -6.5      4.402      6.444
REMARK  Name = Xylometazoline
REMARK  8 active torsions:
REMARK  status: ('A' for Active; 'I' for Inactive)
REMARK    1  A    between atoms: C_1  and  C_2
REMARK    2  A    between atoms: C_4  and  C_15
REMARK    3  A    between atoms: C_6  and  C_7
REMARK    4  A    between atoms: C_8  and  C_9
REMARK    5  A    between atoms: C_9  and  C_10
REMARK    6  A    between atoms: C_15  and  C_16
REMARK    7  A    between atoms: C_15  and  C_17
REMARK    8  A    between atoms: C_15  and  C_18
REMARK                            x       y       z     vdW  Elec       q    Type
REMARK                         _______ _______ _______ _____ _____    ______ ____
ROOT
ATOM      1  C   UNL     1      -9.339  -4.023 128.124  0.00  0.00    +0.000 C 
ATOM      2  C   UNL     1      -8.081  -3.242 128.256  0.00  0.00    +0.000 A 
ATOM      3  C   UNL     1      -7.261  -3.710 129.287  0.00  0.00    +0.000 A 
ATOM      4  C   UNL     1      -6.031  -3.140 129.567  0.00  0.00    +0.000 A 
ATOM      5  C   UNL     1      -5.637  -2.063 128.770  0.00  0.00    +0.000 A 
ATOM      6  C   UNL     1      -6.449  -1.541 127.747  0.00  0.00    +0.000 A 
ATOM      7  C   UNL     1      -5.883  -0.385 126.958  0.00  0.00    +0.000 C 
ATOM      8  C   UNL     1      -7.721  -2.110 127.486  0.00  0.00    +0.000 A 
ENDROOT
BRANCH   4   9
ATOM      9  C   UNL     1      -5.179  -3.726 130.687  0.00  0.00    +0.000 C 
ATOM     10  C   UNL     1      -3.684  -3.630 130.315  0.00  0.00    +0.000 C 
ATOM     11  C   UNL     1      -5.432  -2.934 131.988  0.00  0.00    +0.000 C 
ATOM     12  C   UNL     1      -5.521  -5.203 130.941  0.00  0.00    +0.000 C 
ENDBRANCH   4   9
BRANCH   8  13
ATOM     13  C   UNL     1      -8.584  -1.461 126.396  0.00  0.00    +0.000 C 
BRANCH  13  14
ATOM     14  C   UNL     1      -8.631  -2.104 125.022  0.00  0.00    +0.000 C 
ATOM     15  N   UNL     1      -9.630  -2.866 124.661  0.00  0.00    +0.000 NA
ATOM     16  C   UNL     1      -9.363  -3.157 123.216  0.00  0.00    +0.000 C 
ATOM     17  C   UNL     1      -8.340  -2.116 122.771  0.00  0.00    +0.000 C 
ATOM     18  N   UNL     1      -7.681  -1.864 124.042  0.00  0.00    +0.000 N 
ATOM     19  H   UNL     1      -7.101  -1.042 124.142  0.00  0.00    +0.000 HD
ENDBRANCH  13  14
ENDBRANCH   8  13
TORSDOF 3
ENDMDL
MODEL 3
REMARK VINA RESULT:      -6.5      1.068      2.645
REMARK  Name = Xylometazoline
REMARK  8 active torsions:
REMARK  status: ('A' for Active; 'I' for Inactive)
REMARK    1  A    between atoms: C_1  and  C_2
REMARK    2  A    between atoms: C_4  and  C_15
REMARK    3  A    between atoms: C_6  and  C_7
REMARK    4  A    between atoms: C_8  and  C_9
REMARK    5  A    between atoms: C_9  and  C_10
REMARK    6  A    between atoms: C_15  and  C_16
REMARK    7  A    between atoms: C_15  and  C_17
REMARK    8  A    between atoms: C_15  and  C_18
REMARK                            x       y       z     vdW  Elec       q    Type
REMARK                         _______ _______ _______ _____ _____    ______ ____
ROOT
ATOM      1  C   UNL     1      -6.145   2.351 125.003  0.00  0.00    +0.000 C 
ATOM      2  C   UNL     1      -7.105   1.329 124.509  0.00  0.00    +0.000 A 
ATOM      3  C   UNL     1      -6.816   0.045 124.981  0.00  0.00    +0.000 A 
ATOM      4  C   UNL     1      -7.598  -1.051 124.661  0.00  0.00    +0.000 A 
ATOM      5  C   UNL     1      -8.700  -0.823 123.834  0.00  0.00    +0.000 A 
ATOM      6  C   UNL     1      -9.004   0.447 123.311  0.00  0.00    +0.000 A 
ATOM      7  C   UNL     1     -10.236   0.546 122.445  0.00  0.00    +0.000 C 
ATOM      8  C   UNL     1      -8.180   1.560 123.618  0.00  0.00    +0.000 A 
ENDROOT
BRANCH   4   9
ATOM      9  C   UNL     1      -7.238  -2.415 125.241  0.00  0.00    +0.000 C 
ATOM     10  C   UNL     1      -5.703  -2.548 125.353  0.00  0.00    +0.000 C 
ATOM     11  C   UNL     1      -7.865  -2.554 126.644  0.00  0.00    +0.000 C 
ATOM     12  C   UNL     1      -7.759  -3.558 124.358  0.00  0.00    +0.000 C 
ENDBRANCH   4   9
BRANCH   8  13
ATOM     13  C   UNL     1      -8.529   2.906 122.971  0.00  0.00    +0.000 C 
BRANCH  13  14
ATOM     14  C   UNL     1      -7.829   3.300 121.683  0.00  0.00    +0.000 C 
ATOM     15  N   UNL     1      -8.493   3.795 120.671  0.00  0.00    +0.000 NA
ATOM     16  C   UNL     1      -7.430   4.183 119.691  0.00  0.00    +0.000 C 
ATOM     17  C   UNL     1      -6.129   4.216 120.489  0.00  0.00    +0.000 C 
ATOM     18  N   UNL     1      -6.454   3.245 121.521  0.00  0.00    +0.000 N 
ATOM     19  H   UNL     1      -5.884   3.205 122.357  0.00  0.00    +0.000 HD
ENDBRANCH  13  14
ENDBRANCH   8  13
TORSDOF 3
ENDMDL
MODEL 4
REMARK VINA RESULT:      -6.3      4.794      7.334
REMARK  Name = Xylometazoline
REMARK  8 active torsions:
REMARK  status: ('A' for Active; 'I' for Inactive)
REMARK    1  A    between atoms: C_1  and  C_2
REMARK    2  A    between atoms: C_4  and  C_15
REMARK    3  A    between atoms: C_6  and  C_7
REMARK    4  A    between atoms: C_8  and  C_9
REMARK    5  A    between atoms: C_9  and  C_10
REMARK    6  A    between atoms: C_15  and  C_16
REMARK    7  A    between atoms: C_15  and  C_17
REMARK    8  A    between atoms: C_15  and  C_18
REMARK                            x       y       z     vdW  Elec       q    Type
REMARK                         _______ _______ _______ _____ _____    ______ ____
ROOT
ATOM      1  C   UNL     1      -9.725  -4.274 128.350  0.00  0.00    +0.000 C 
ATOM      2  C   UNL     1      -8.616  -3.512 127.718  0.00  0.00    +0.000 A 
ATOM      3  C   UNL     1      -8.863  -3.215 126.375  0.00  0.00    +0.000 A 
ATOM      4  C   UNL     1      -7.970  -2.492 125.603  0.00  0.00    +0.000 A 
ATOM      5  C   UNL     1      -6.794  -2.068 126.227  0.00  0.00    +0.000 A 
ATOM      6  C   UNL     1      -6.494  -2.377 127.566  0.00  0.00    +0.000 A 
ATOM      7  C   UNL     1      -5.193  -1.837 128.109  0.00  0.00    +0.000 C 
ATOM      8  C   UNL     1      -7.400  -3.145 128.342  0.00  0.00    +0.000 A 
ENDROOT
BRANCH   4   9
ATOM      9  C   UNL     1      -8.324  -2.180 124.154  0.00  0.00    +0.000 C 
ATOM     10  C   UNL     1      -7.056  -2.250 123.276  0.00  0.00    +0.000 C 
ATOM     11  C   UNL     1      -9.352  -3.214 123.646  0.00  0.00    +0.000 C 
ATOM     12  C   UNL     1      -8.934  -0.777 124.012  0.00  0.00    +0.000 C 
ENDBRANCH   4   9
BRANCH   8  13
ATOM     13  C   UNL     1      -6.990  -3.498 129.776  0.00  0.00    +0.000 C 
BRANCH  13  14
ATOM     14  C   UNL     1      -7.484  -2.623 130.914  0.00  0.00    +0.000 C 
ATOM     15  N   UNL     1      -7.344  -2.987 132.162  0.00  0.00    +0.000 NA
ATOM     16  C   UNL     1      -7.812  -1.797 132.943  0.00  0.00    +0.000 C 
ATOM     17  C   UNL     1      -7.812  -0.634 131.955  0.00  0.00    +0.000 C 
ATOM     18  N   UNL     1      -8.030  -1.365 130.718  0.00  0.00    +0.000 N 
ATOM     19  H   UNL     1      -7.847  -0.906 129.836  0.00  0.00    +0.000 HD
ENDBRANCH  13  14
ENDBRANCH   8  13
TORSDOF 3
ENDMDL
MODEL 5
REMARK VINA RESULT:      -6.3      4.895      7.734
REMARK  Name = Xylometazoline
REMARK  8 active torsions:
REMARK  status: ('A' for Active; 'I' for Inactive)
REMARK    1  A    between atoms: C_1  and  C_2
REMARK    2  A    between atoms: C_4  and  C_15
REMARK    3  A    between atoms: C_6  and  C_7
REMARK    4  A    between atoms: C_8  and  C_9
REMARK    5  A    between atoms: C_9  and  C_10
REMARK    6  A    between atoms: C_15  and  C_16
REMARK    7  A    between atoms: C_15  and  C_17
REMARK    8  A    between atoms: C_15  and  C_18
REMARK                            x       y       z     vdW  Elec       q    Type
REMARK                         _______ _______ _______ _____ _____    ______ ____
ROOT
ATOM      1  C   UNL     1      -5.619  -0.665 128.370  0.00  0.00    +0.000 C 
ATOM      2  C   UNL     1      -6.604  -1.555 127.701  0.00  0.00    +0.000 A 
ATOM      3  C   UNL     1      -6.552  -1.465 126.307  0.00  0.00    +0.000 A 
ATOM      4  C   UNL     1      -7.369  -2.226 125.488  0.00  0.00    +0.000 A 
ATOM      5  C   UNL     1      -8.262  -3.096 126.118  0.00  0.00    +0.000 A 
ATOM      6  C   UNL     1      -8.368  -3.190 127.518  0.00  0.00    +0.000 A 
ATOM      7  C   UNL     1      -9.365  -4.187 128.055  0.00  0.00    +0.000 C 
ATOM      8  C   UNL     1      -7.549  -2.384 128.350  0.00  0.00    +0.000 A 
ENDROOT
BRANCH   4   9
ATOM      9  C   UNL     1      -7.232  -2.095 123.976  0.00  0.00    +0.000 C 
ATOM     10  C   UNL     1      -5.931  -2.781 123.505  0.00  0.00    +0.000 C 
ATOM     11  C   UNL     1      -8.440  -2.773 123.294  0.00  0.00    +0.000 C 
ATOM     12  C   UNL     1      -7.188  -0.623 123.538  0.00  0.00    +0.000 C 
ENDBRANCH   4   9
BRANCH   8  13
ATOM     13  C   UNL     1      -7.752  -2.489 129.867  0.00  0.00    +0.000 C 
BRANCH  13  14
ATOM     14  C   UNL     1      -6.757  -3.294 130.683  0.00  0.00    +0.000 C 
ATOM     15  N   UNL     1      -6.801  -3.306 131.990  0.00  0.00    +0.000 NA
ATOM     16  C   UNL     1      -5.772  -4.321 132.380  0.00  0.00    +0.000 C 
ATOM     17  C   UNL     1      -5.493  -5.128 131.115  0.00  0.00    +0.000 C 
ATOM     18  N   UNL     1      -5.807  -4.124 130.112  0.00  0.00    +0.000 N 
ATOM     19  H   UNL     1      -5.951  -4.413 129.154  0.00  0.00    +0.000 HD
ENDBRANCH  13  14
ENDBRANCH   8  13
TORSDOF 3
ENDMDL
MODEL 6
REMARK VINA RESULT:      -6.2      4.842      7.513
REMARK  Name = Xylometazoline
REMARK  8 active torsions:
REMARK  status: ('A' for Active; 'I' for Inactive)
REMARK    1  A    between atoms: C_1  and  C_2
REMARK    2  A    between atoms: C_4  and  C_15
REMARK    3  A    between atoms: C_6  and  C_7
REMARK    4  A    between atoms: C_8  and  C_9
REMARK    5  A    between atoms: C_9  and  C_10
REMARK    6  A    between atoms: C_15  and  C_16
REMARK    7  A    between atoms: C_15  and  C_17
REMARK    8  A    between atoms: C_15  and  C_18
REMARK                            x       y       z     vdW  Elec       q    Type
REMARK                         _______ _______ _______ _____ _____    ______ ____
ROOT
ATOM      1  C   UNL     1      -9.407  -4.414 128.267  0.00  0.00    +0.000 C 
ATOM      2  C   UNL     1      -8.620  -3.263 127.750  0.00  0.00    +0.000 A 
ATOM      3  C   UNL     1      -8.579  -3.224 126.354  0.00  0.00    +0.000 A 
ATOM      4  C   UNL     1      -7.919  -2.221 125.664  0.00  0.00    +0.000 A 
ATOM      5  C   UNL     1      -7.284  -1.240 126.428  0.00  0.00    +0.000 A 
ATOM      6  C   UNL     1      -7.274  -1.264 127.835  0.00  0.00    +0.000 A 
ATOM      7  C   UNL     1      -6.562  -0.127 128.526  0.00  0.00    +0.000 C 
ATOM      8  C   UNL     1      -7.926  -2.312 128.534  0.00  0.00    +0.000 A 
ENDROOT
BRANCH   4   9
ATOM      9  C   UNL     1      -7.944  -2.228 124.139  0.00  0.00    +0.000 C 
ATOM     10  C   UNL     1      -6.577  -2.694 123.593  0.00  0.00    +0.000 C 
ATOM     11  C   UNL     1      -9.044  -3.196 123.652  0.00  0.00    +0.000 C 
ATOM     12  C   UNL     1      -8.240  -0.830 123.574  0.00  0.00    +0.000 C 
ENDBRANCH   4   9
BRANCH   8  13
ATOM     13  C   UNL     1      -7.830  -2.316 130.065  0.00  0.00    +0.000 C 
BRANCH  13  14
ATOM     14  C   UNL     1      -6.784  -3.193 130.729  0.00  0.00    +0.000 C 
ATOM     15  N   UNL     1      -6.741  -3.335 132.028  0.00  0.00    +0.000 NA
ATOM     16  C   UNL     1      -5.688  -4.378 132.246  0.00  0.00    +0.000 C 
ATOM     17  C   UNL     1      -5.495  -5.054 130.890  0.00  0.00    +0.000 C 
ATOM     18  N   UNL     1      -5.874  -3.956 130.016  0.00  0.00    +0.000 N 
ATOM     19  H   UNL     1      -6.082  -4.149 129.045  0.00  0.00    +0.000 HD
ENDBRANCH  13  14
ENDBRANCH   8  13
TORSDOF 3
ENDMDL
MODEL 7
REMARK VINA RESULT:      -6.0      1.904      3.039
REMARK  Name = Xylometazoline
REMARK  8 active torsions:
REMARK  status: ('A' for Active; 'I' for Inactive)
REMARK    1  A    between atoms: C_1  and  C_2
REMARK    2  A    between atoms: C_4  and  C_15
REMARK    3  A    between atoms: C_6  and  C_7
REMARK    4  A    between atoms: C_8  and  C_9
REMARK    5  A    between atoms: C_9  and  C_10
REMARK    6  A    between atoms: C_15  and  C_16
REMARK    7  A    between atoms: C_15  and  C_17
REMARK    8  A    between atoms: C_15  and  C_18
REMARK                            x       y       z     vdW  Elec       q    Type
REMARK                         _______ _______ _______ _____ _____    ______ ____
ROOT
ATOM      1  C   UNL     1      -8.414   1.316 127.584  0.00  0.00    +0.000 C 
ATOM      2  C   UNL     1      -8.616   0.889 126.174  0.00  0.00    +0.000 A 
ATOM      3  C   UNL     1      -8.615  -0.501 126.027  0.00  0.00    +0.000 A 
ATOM      4  C   UNL     1      -8.811  -1.113 124.801  0.00  0.00    +0.000 A 
ATOM      5  C   UNL     1      -9.009  -0.275 123.701  0.00  0.00    +0.000 A 
ATOM      6  C   UNL     1      -8.982   1.128 123.803  0.00  0.00    +0.000 A 
ATOM      7  C   UNL     1      -9.229   1.904 122.532  0.00  0.00    +0.000 C 
ATOM      8  C   UNL     1      -8.750   1.747 125.058  0.00  0.00    +0.000 A 
ENDROOT
BRANCH   4   9
ATOM      9  C   UNL     1      -8.827  -2.635 124.724  0.00  0.00    +0.000 C 
ATOM     10  C   UNL     1      -7.381  -3.176 124.708  0.00  0.00    +0.000 C 
ATOM     11  C   UNL     1      -9.567  -3.199 125.956  0.00  0.00    +0.000 C 
ATOM     12  C   UNL     1      -9.543  -3.128 123.458  0.00  0.00    +0.000 C 
ENDBRANCH   4   9
BRANCH   8  13
ATOM     13  C   UNL     1      -8.675   3.279 125.095  0.00  0.00    +0.000 C 
BRANCH  13  14
ATOM     14  C   UNL     1      -7.312   3.941 125.188  0.00  0.00    +0.000 C 
ATOM     15  N   UNL     1      -7.000   4.717 126.193  0.00  0.00    +0.000 NA
ATOM     16  C   UNL     1      -5.550   5.025 125.978  0.00  0.00    +0.000 C 
ATOM     17  C   UNL     1      -5.052   3.981 124.982  0.00  0.00    +0.000 C 
ATOM     18  N   UNL     1      -6.294   3.707 124.278  0.00  0.00    +0.000 N 
ATOM     19  H   UNL     1      -6.361   2.878 123.702  0.00  0.00    +0.000 HD
ENDBRANCH  13  14
ENDBRANCH   8  13
TORSDOF 3
ENDMDL
MODEL 8
REMARK VINA RESULT:      -5.9      4.446      6.493
REMARK  Name = Xylometazoline
REMARK  8 active torsions:
REMARK  status: ('A' for Active; 'I' for Inactive)
REMARK    1  A    between atoms: C_1  and  C_2
REMARK    2  A    between atoms: C_4  and  C_15
REMARK    3  A    between atoms: C_6  and  C_7
REMARK    4  A    between atoms: C_8  and  C_9
REMARK    5  A    between atoms: C_9  and  C_10
REMARK    6  A    between atoms: C_15  and  C_16
REMARK    7  A    between atoms: C_15  and  C_17
REMARK    8  A    between atoms: C_15  and  C_18
REMARK                            x       y       z     vdW  Elec       q    Type
REMARK                         _______ _______ _______ _____ _____    ______ ____
ROOT
ATOM      1  C   UNL     1      -5.753  -0.212 127.810  0.00  0.00    +0.000 C 
ATOM      2  C   UNL     1      -6.420  -1.462 128.262  0.00  0.00    +0.000 A 
ATOM      3  C   UNL     1      -5.786  -2.040 129.365  0.00  0.00    +0.000 A 
ATOM      4  C   UNL     1      -6.257  -3.198 129.962  0.00  0.00    +0.000 A 
ATOM      5  C   UNL     1      -7.402  -3.774 129.408  0.00  0.00    +0.000 A 
ATOM      6  C   UNL     1      -8.047  -3.241 128.278  0.00  0.00    +0.000 A 
ATOM      7  C   UNL     1      -9.285  -3.962 127.802  0.00  0.00    +0.000 C 
ATOM      8  C   UNL     1      -7.541  -2.072 127.653  0.00  0.00    +0.000 A 
ENDROOT
BRANCH   4   9
ATOM      9  C   UNL     1      -5.530  -3.752 131.182  0.00  0.00    +0.000 C 
ATOM     10  C   UNL     1      -6.263  -3.321 132.471  0.00  0.00    +0.000 C 
ATOM     11  C   UNL     1      -5.504  -5.294 131.104  0.00  0.00    +0.000 C 
ATOM     12  C   UNL     1      -4.082  -3.243 131.256  0.00  0.00    +0.000 C 
ENDBRANCH   4   9
BRANCH   8  13
ATOM     13  C   UNL     1      -8.254  -1.572 126.390  0.00  0.00    +0.000 C 
BRANCH  13  14
ATOM     14  C   UNL     1      -7.610  -1.828 125.040  0.00  0.00    +0.000 C 
ATOM     15  N   UNL     1      -7.694  -0.955 124.070  0.00  0.00    +0.000 NA
ATOM     16  C   UNL     1      -6.812  -1.516 122.997  0.00  0.00    +0.000 C 
ATOM     17  C   UNL     1      -5.941  -2.562 123.688  0.00  0.00    +0.000 C 
ATOM     18  N   UNL     1      -6.832  -2.943 124.771  0.00  0.00    +0.000 N 
ATOM     19  H   UNL     1      -6.459  -3.455 125.559  0.00  0.00    +0.000 HD
ENDBRANCH  13  14
ENDBRANCH   8  13
TORSDOF 3
ENDMDL
MODEL 9
REMARK VINA RESULT:      -5.9      8.442     11.203
REMARK  Name = Xylometazoline
REMARK  8 active torsions:
REMARK  status: ('A' for Active; 'I' for Inactive)
REMARK    1  A    between atoms: C_1  and  C_2
REMARK    2  A    between atoms: C_4  and  C_15
REMARK    3  A    between atoms: C_6  and  C_7
REMARK    4  A    between atoms: C_8  and  C_9
REMARK    5  A    between atoms: C_9  and  C_10
REMARK    6  A    between atoms: C_15  and  C_16
REMARK    7  A    between atoms: C_15  and  C_17
REMARK    8  A    between atoms: C_15  and  C_18
REMARK                            x       y       z     vdW  Elec       q    Type
REMARK                         _______ _______ _______ _____ _____    ______ ____
ROOT
ATOM      1  C   UNL     1      -8.402   6.946 130.766  0.00  0.00    +0.000 C 
ATOM      2  C   UNL     1      -7.188   6.506 131.503  0.00  0.00    +0.000 A 
ATOM      3  C   UNL     1      -6.019   7.098 131.017  0.00  0.00    +0.000 A 
ATOM      4  C   UNL     1      -4.777   6.845 131.575  0.00  0.00    +0.000 A 
ATOM      5  C   UNL     1      -4.738   5.960 132.654  0.00  0.00    +0.000 A 
ATOM      6  C   UNL     1      -5.887   5.318 133.149  0.00  0.00    +0.000 A 
ATOM      7  C   UNL     1      -5.693   4.401 134.332  0.00  0.00    +0.000 C 
ATOM      8  C   UNL     1      -7.151   5.559 132.553  0.00  0.00    +0.000 A 
ENDROOT
BRANCH   4   9
ATOM      9  C   UNL     1      -3.551   7.554 131.010  0.00  0.00    +0.000 C 
ATOM     10  C   UNL     1      -2.594   6.521 130.375  0.00  0.00    +0.000 C 
ATOM     11  C   UNL     1      -3.998   8.564 129.931  0.00  0.00    +0.000 C 
ATOM     12  C   UNL     1      -2.786   8.314 132.103  0.00  0.00    +0.000 C 
ENDBRANCH   4   9
BRANCH   8  13
ATOM     13  C   UNL     1      -8.357   4.784 133.099  0.00  0.00    +0.000 C 
BRANCH  13  14
ATOM     14  C   UNL     1      -8.873   3.590 132.318  0.00  0.00    +0.000 C 
ATOM     15  N   UNL     1      -8.291   3.195 131.215  0.00  0.00    +0.000 NA
ATOM     16  C   UNL     1      -9.002   1.925 130.862  0.00  0.00    +0.000 C 
ATOM     17  C   UNL     1      -9.731   1.497 132.133  0.00  0.00    +0.000 C 
ATOM     18  N   UNL     1      -9.923   2.797 132.753  0.00  0.00    +0.000 N 
ATOM     19  H   UNL     1     -10.172   2.844 133.732  0.00  0.00    +0.000 HD
ENDBRANCH  13  14
ENDBRANCH   8  13
TORSDOF 3
ENDMDL
