MODEL 1
REMARK VINA RESULT:      -9.2      0.000      0.000
REMARK  Name = Yohimbine
REMARK  4 active torsions:
REMARK  status: ('A' for Active; 'I' for Inactive)
REMARK    1  A    between atoms: C_5  and  O_6
REMARK    2  A    between atoms: C_7  and  C_8
REMARK    3  A    between atoms: C_8  and  O_10
REMARK    4  A    between atoms: O_10  and  C_11
REMARK                            x       y       z     vdW  Elec       q    Type
REMARK                         _______ _______ _______ _____ _____    ______ ____
ROOT
ATOM      1  C   UNL     1      -8.142  -0.979 126.106  0.00  0.00    +0.000 C 
ATOM      2  C   UNL     1      -8.682  -2.352 125.866  0.00  0.00    +0.000 C 
ATOM      3  C   UNL     1      -9.205  -2.519 124.426  0.00  0.00    +0.000 C 
ATOM      4  C   UNL     1      -8.041  -3.181 123.907  0.00  0.00    +0.000 C 
ATOM      5  C   UNL     1      -6.966  -1.702 123.958  0.00  0.00    +0.000 C 
ATOM      6  C   UNL     1      -6.804  -0.842 125.352  0.00  0.00    +0.000 C 
ATOM      7  C   UNL     1      -6.505   0.737 125.613  0.00  0.00    +0.000 C 
ATOM      8  C   UNL     1      -7.569   1.802 125.235  0.00  0.00    +0.000 C 
ATOM      9  N   UNL     1      -8.913   1.285 125.193  0.00  0.00    +0.000 NA
ATOM     10  C   UNL     1      -9.919   1.913 124.334  0.00  0.00    +0.000 C 
ATOM     11  C   UNL     1      -9.455   2.141 122.882  0.00  0.00    +0.000 C 
ATOM     12  C   UNL     1      -8.063   2.651 122.875  0.00  0.00    +0.000 A 
ATOM     13  C   UNL     1      -7.226   2.482 123.955  0.00  0.00    +0.000 A 
ATOM     14  N   UNL     1      -6.040   3.104 123.674  0.00  0.00    +0.000 N 
ATOM     15  C   UNL     1      -6.071   3.599 122.390  0.00  0.00    +0.000 A 
ATOM     16  C   UNL     1      -5.086   4.262 121.651  0.00  0.00    +0.000 A 
ATOM     17  C   UNL     1      -5.418   4.653 120.350  0.00  0.00    +0.000 A 
ATOM     18  C   UNL     1      -6.678   4.392 119.812  0.00  0.00    +0.000 A 
ATOM     19  C   UNL     1      -7.649   3.728 120.563  0.00  0.00    +0.000 A 
ATOM     20  C   UNL     1      -7.339   3.326 121.871  0.00  0.00    +0.000 A 
ATOM     21  C   UNL     1      -9.239  -0.014 125.662  0.00  0.00    +0.000 C 
ATOM     22  H   UNL     1      -5.243   3.165 124.294  0.00  0.00    +0.000 HD
ENDROOT
BRANCH   4  23
ATOM     23  O   UNL     1      -7.812  -4.418 124.625  0.00  0.00    +0.000 OA
ATOM     24  H   UNL     1      -8.672  -4.841 124.865  0.00  0.00    +0.000 HD
ENDBRANCH   4  23
BRANCH   5  25
ATOM     25  C   UNL     1      -5.940  -2.446 123.238  0.00  0.00    +0.000 C 
ATOM     26  O   UNL     1      -5.643  -2.225 122.043  0.00  0.00    +0.000 OA
BRANCH  25  27
ATOM     27  O   UNL     1      -5.128  -2.973 124.222  0.00  0.00    +0.000 OA
ATOM     28  C   UNL     1      -4.371  -4.148 123.886  0.00  0.00    +0.000 C 
ENDBRANCH  25  27
ENDBRANCH   5  25
TORSDOF 3
ENDMDL
MODEL 2
REMARK VINA RESULT:      -7.5      7.298      9.251
REMARK  Name = Yohimbine
REMARK  4 active torsions:
REMARK  status: ('A' for Active; 'I' for Inactive)
REMARK    1  A    between atoms: C_5  and  O_6
REMARK    2  A    between atoms: C_7  and  C_8
REMARK    3  A    between atoms: C_8  and  O_10
REMARK    4  A    between atoms: O_10  and  C_11
REMARK                            x       y       z     vdW  Elec       q    Type
REMARK                         _______ _______ _______ _____ _____    ______ ____
ROOT
ATOM      1  C   UNL     1      -8.724   2.637 132.821  0.00  0.00    +0.000 C 
ATOM      2  C   UNL     1      -9.358   3.746 133.597  0.00  0.00    +0.000 C 
ATOM      3  C   UNL     1      -8.541   5.050 133.506  0.00  0.00    +0.000 C 
ATOM      4  C   UNL     1      -9.340   5.671 132.488  0.00  0.00    +0.000 C 
ATOM      5  C   UNL     1      -8.796   4.560 131.141  0.00  0.00    +0.000 C 
ATOM      6  C   UNL     1      -8.907   2.927 131.317  0.00  0.00    +0.000 C 
ATOM      7  C   UNL     1      -8.016   1.715 130.696  0.00  0.00    +0.000 C 
ATOM      8  C   UNL     1      -6.540   1.529 131.140  0.00  0.00    +0.000 C 
ATOM      9  N   UNL     1      -6.253   2.091 132.435  0.00  0.00    +0.000 NA
ATOM     10  C   UNL     1      -4.896   2.536 132.762  0.00  0.00    +0.000 C 
ATOM     11  C   UNL     1      -4.259   3.451 131.698  0.00  0.00    +0.000 C 
ATOM     12  C   UNL     1      -4.552   2.924 130.343  0.00  0.00    +0.000 A 
ATOM     13  C   UNL     1      -5.595   2.054 130.116  0.00  0.00    +0.000 A 
ATOM     14  N   UNL     1      -5.576   1.705 128.793  0.00  0.00    +0.000 N 
ATOM     15  C   UNL     1      -4.583   2.407 128.145  0.00  0.00    +0.000 A 
ATOM     16  C   UNL     1      -4.218   2.419 126.795  0.00  0.00    +0.000 A 
ATOM     17  C   UNL     1      -3.150   3.245 126.431  0.00  0.00    +0.000 A 
ATOM     18  C   UNL     1      -2.478   4.022 127.373  0.00  0.00    +0.000 A 
ATOM     19  C   UNL     1      -2.856   3.998 128.716  0.00  0.00    +0.000 A 
ATOM     20  C   UNL     1      -3.925   3.178 129.106  0.00  0.00    +0.000 A 
ATOM     21  C   UNL     1      -7.274   2.570 133.296  0.00  0.00    +0.000 C 
ATOM     22  H   UNL     1      -6.210   1.059 128.342  0.00  0.00    +0.000 HD
ENDROOT
BRANCH   4  23
ATOM     23  O   UNL     1     -10.703   5.830 132.954  0.00  0.00    +0.000 OA
ATOM     24  H   UNL     1     -10.723   6.373 133.779  0.00  0.00    +0.000 HD
ENDBRANCH   4  23
BRANCH   5  25
ATOM     25  C   UNL     1      -9.494   5.409 130.184  0.00  0.00    +0.000 C 
ATOM     26  O   UNL     1      -8.904   6.179 129.393  0.00  0.00    +0.000 OA
BRANCH  25  27
ATOM     27  O   UNL     1     -10.727   4.812 130.013  0.00  0.00    +0.000 OA
ATOM     28  C   UNL     1     -11.841   5.679 129.740  0.00  0.00    +0.000 C 
ENDBRANCH  25  27
ENDBRANCH   5  25
TORSDOF 3
ENDMDL
MODEL 3
REMARK VINA RESULT:      -7.5      3.745      7.363
REMARK  Name = Yohimbine
REMARK  4 active torsions:
REMARK  status: ('A' for Active; 'I' for Inactive)
REMARK    1  A    between atoms: C_5  and  O_6
REMARK    2  A    between atoms: C_7  and  C_8
REMARK    3  A    between atoms: C_8  and  O_10
REMARK    4  A    between atoms: O_10  and  C_11
REMARK                            x       y       z     vdW  Elec       q    Type
REMARK                         _______ _______ _______ _____ _____    ______ ____
ROOT
ATOM      1  C   UNL     1      -7.209   0.316 123.516  0.00  0.00    +0.000 C 
ATOM      2  C   UNL     1      -8.139   1.432 123.164  0.00  0.00    +0.000 C 
ATOM      3  C   UNL     1      -9.259   1.597 124.210  0.00  0.00    +0.000 C 
ATOM      4  C   UNL     1      -8.655   2.687 124.923  0.00  0.00    +0.000 C 
ATOM      5  C   UNL     1      -7.318   1.686 125.668  0.00  0.00    +0.000 C 
ATOM      6  C   UNL     1      -6.348   0.758 124.717  0.00  0.00    +0.000 C 
ATOM      7  C   UNL     1      -5.562  -0.636 125.016  0.00  0.00    +0.000 C 
ATOM      8  C   UNL     1      -6.363  -1.945 125.246  0.00  0.00    +0.000 C 
ATOM      9  N   UNL     1      -7.675  -1.930 124.652  0.00  0.00    +0.000 NA
ATOM     10  C   UNL     1      -8.751  -2.750 125.216  0.00  0.00    +0.000 C 
ATOM     11  C   UNL     1      -8.922  -2.604 126.740  0.00  0.00    +0.000 C 
ATOM     12  C   UNL     1      -7.591  -2.589 127.394  0.00  0.00    +0.000 A 
ATOM     13  C   UNL     1      -6.445  -2.284 126.695  0.00  0.00    +0.000 A 
ATOM     14  N   UNL     1      -5.382  -2.407 127.547  0.00  0.00    +0.000 N 
ATOM     15  C   UNL     1      -5.837  -2.705 128.812  0.00  0.00    +0.000 A 
ATOM     16  C   UNL     1      -5.135  -2.876 130.009  0.00  0.00    +0.000 A 
ATOM     17  C   UNL     1      -5.884  -3.181 131.151  0.00  0.00    +0.000 A 
ATOM     18  C   UNL     1      -7.271  -3.307 131.097  0.00  0.00    +0.000 A 
ATOM     19  C   UNL     1      -7.955  -3.133 129.894  0.00  0.00    +0.000 A 
ATOM     20  C   UNL     1      -7.226  -2.827 128.736  0.00  0.00    +0.000 A 
ATOM     21  C   UNL     1      -8.094  -0.903 123.767  0.00  0.00    +0.000 C 
ATOM     22  H   UNL     1      -4.410  -2.268 127.305  0.00  0.00    +0.000 HD
ENDROOT
BRANCH   4  23
ATOM     23  O   UNL     1      -8.470   3.819 124.037  0.00  0.00    +0.000 OA
ATOM     24  H   UNL     1      -8.527   4.664 124.543  0.00  0.00    +0.000 HD
ENDBRANCH   4  23
BRANCH   5  25
ATOM     25  C   UNL     1      -6.943   2.831 126.488  0.00  0.00    +0.000 C 
ATOM     26  O   UNL     1      -7.209   2.920 127.707  0.00  0.00    +0.000 OA
BRANCH  25  27
ATOM     27  O   UNL     1      -5.893   3.422 125.812  0.00  0.00    +0.000 OA
ATOM     28  C   UNL     1      -5.506   4.742 126.229  0.00  0.00    +0.000 C 
ENDBRANCH  25  27
ENDBRANCH   5  25
TORSDOF 3
ENDMDL
MODEL 4
REMARK VINA RESULT:      -7.4      3.810      6.732
REMARK  Name = Yohimbine
REMARK  4 active torsions:
REMARK  status: ('A' for Active; 'I' for Inactive)
REMARK    1  A    between atoms: C_5  and  O_6
REMARK    2  A    between atoms: C_7  and  C_8
REMARK    3  A    between atoms: C_8  and  O_10
REMARK    4  A    between atoms: O_10  and  C_11
REMARK                            x       y       z     vdW  Elec       q    Type
REMARK                         _______ _______ _______ _____ _____    ______ ____
ROOT
ATOM      1  C   UNL     1      -5.686  -1.468 125.292  0.00  0.00    +0.000 C 
ATOM      2  C   UNL     1      -6.335  -2.389 124.309  0.00  0.00    +0.000 C 
ATOM      3  C   UNL     1      -7.660  -2.963 124.848  0.00  0.00    +0.000 C 
ATOM      4  C   UNL     1      -8.526  -2.051 124.155  0.00  0.00    +0.000 C 
ATOM      5  C   UNL     1      -8.081  -0.592 125.164  0.00  0.00    +0.000 C 
ATOM      6  C   UNL     1      -6.503  -0.162 125.351  0.00  0.00    +0.000 C 
ATOM      7  C   UNL     1      -5.730   0.588 126.571  0.00  0.00    +0.000 C 
ATOM      8  C   UNL     1      -5.559  -0.127 127.938  0.00  0.00    +0.000 C 
ATOM      9  N   UNL     1      -5.615  -1.563 127.849  0.00  0.00    +0.000 NA
ATOM     10  C   UNL     1      -6.054  -2.358 128.998  0.00  0.00    +0.000 C 
ATOM     11  C   UNL     1      -7.372  -1.874 129.633  0.00  0.00    +0.000 C 
ATOM     12  C   UNL     1      -7.370  -0.393 129.722  0.00  0.00    +0.000 A 
ATOM     13  C   UNL     1      -6.540   0.377 128.940  0.00  0.00    +0.000 A 
ATOM     14  N   UNL     1      -6.725   1.688 129.287  0.00  0.00    +0.000 N 
ATOM     15  C   UNL     1      -7.729   1.779 130.225  0.00  0.00    +0.000 A 
ATOM     16  C   UNL     1      -8.297   2.901 130.836  0.00  0.00    +0.000 A 
ATOM     17  C   UNL     1      -9.316   2.674 131.767  0.00  0.00    +0.000 A 
ATOM     18  C   UNL     1      -9.747   1.384 132.072  0.00  0.00    +0.000 A 
ATOM     19  C   UNL     1      -9.170   0.276 131.452  0.00  0.00    +0.000 A 
ATOM     20  C   UNL     1      -8.146   0.478 130.514  0.00  0.00    +0.000 A 
ATOM     21  C   UNL     1      -5.610  -2.245 126.604  0.00  0.00    +0.000 C 
ATOM     22  H   UNL     1      -6.232   2.479 128.895  0.00  0.00    +0.000 HD
ENDROOT
BRANCH   4  23
ATOM     23  O   UNL     1      -8.339  -2.179 122.724  0.00  0.00    +0.000 OA
ATOM     24  H   UNL     1      -9.100  -2.659 122.319  0.00  0.00    +0.000 HD
ENDBRANCH   4  23
BRANCH   5  25
ATOM     25  C   UNL     1      -9.146   0.160 124.510  0.00  0.00    +0.000 C 
ATOM     26  O   UNL     1     -10.215   0.473 125.080  0.00  0.00    +0.000 OA
BRANCH  25  27
ATOM     27  O   UNL     1      -8.526   0.821 123.468  0.00  0.00    +0.000 OA
ATOM     28  C   UNL     1      -9.026   2.125 123.130  0.00  0.00    +0.000 C 
ENDBRANCH  25  27
ENDBRANCH   5  25
TORSDOF 3
ENDMDL
MODEL 5
REMARK VINA RESULT:      -7.3      8.476     10.326
REMARK  Name = Yohimbine
REMARK  4 active torsions:
REMARK  status: ('A' for Active; 'I' for Inactive)
REMARK    1  A    between atoms: C_5  and  O_6
REMARK    2  A    between atoms: C_7  and  C_8
REMARK    3  A    between atoms: C_8  and  O_10
REMARK    4  A    between atoms: O_10  and  C_11
REMARK                            x       y       z     vdW  Elec       q    Type
REMARK                         _______ _______ _______ _____ _____    ______ ____
ROOT
ATOM      1  C   UNL     1      -5.841   3.259 132.741  0.00  0.00    +0.000 C 
ATOM      2  C   UNL     1      -4.595   3.076 131.935  0.00  0.00    +0.000 C 
ATOM      3  C   UNL     1      -4.843   3.313 130.433  0.00  0.00    +0.000 C 
ATOM      4  C   UNL     1      -4.344   4.659 130.396  0.00  0.00    +0.000 C 
ATOM      5  C   UNL     1      -5.740   5.384 131.330  0.00  0.00    +0.000 C 
ATOM      6  C   UNL     1      -6.173   4.764 132.791  0.00  0.00    +0.000 C 
ATOM      7  C   UNL     1      -7.612   4.699 133.549  0.00  0.00    +0.000 C 
ATOM      8  C   UNL     1      -8.749   3.807 132.982  0.00  0.00    +0.000 C 
ATOM      9  N   UNL     1      -8.276   2.719 132.167  0.00  0.00    +0.000 NA
ATOM     10  C   UNL     1      -9.129   2.159 131.115  0.00  0.00    +0.000 C 
ATOM     11  C   UNL     1      -9.751   3.214 130.180  0.00  0.00    +0.000 C 
ATOM     12  C   UNL     1     -10.231   4.369 130.977  0.00  0.00    +0.000 A 
ATOM     13  C   UNL     1      -9.758   4.618 132.246  0.00  0.00    +0.000 A 
ATOM     14  N   UNL     1     -10.424   5.706 132.740  0.00  0.00    +0.000 N 
ATOM     15  C   UNL     1     -11.261   6.215 131.771  0.00  0.00    +0.000 A 
ATOM     16  C   UNL     1     -12.096   7.336 131.795  0.00  0.00    +0.000 A 
ATOM     17  C   UNL     1     -12.840   7.603 130.641  0.00  0.00    +0.000 A 
ATOM     18  C   UNL     1     -12.750   6.786 129.515  0.00  0.00    +0.000 A 
ATOM     19  C   UNL     1     -11.911   5.672 129.508  0.00  0.00    +0.000 A 
ATOM     20  C   UNL     1     -11.155   5.384 130.654  0.00  0.00    +0.000 A 
ATOM     21  C   UNL     1      -6.900   2.382 132.077  0.00  0.00    +0.000 C 
ATOM     22  H   UNL     1     -10.303   6.106 133.661  0.00  0.00    +0.000 HD
ENDROOT
BRANCH   4  23
ATOM     23  O   UNL     1      -2.953   4.684 130.801  0.00  0.00    +0.000 OA
ATOM     24  H   UNL     1      -2.483   5.438 130.371  0.00  0.00    +0.000 HD
ENDBRANCH   4  23
BRANCH   5  25
ATOM     25  C   UNL     1      -5.220   6.714 131.037  0.00  0.00    +0.000 C 
ATOM     26  O   UNL     1      -5.801   7.529 130.286  0.00  0.00    +0.000 OA
BRANCH  25  27
ATOM     27  O   UNL     1      -4.365   6.999 132.083  0.00  0.00    +0.000 OA
ATOM     28  C   UNL     1      -3.271   7.890 131.811  0.00  0.00    +0.000 C 
ENDBRANCH  25  27
ENDBRANCH   5  25
TORSDOF 3
ENDMDL
MODEL 6
REMARK VINA RESULT:      -7.1      5.283      7.718
REMARK  Name = Yohimbine
REMARK  4 active torsions:
REMARK  status: ('A' for Active; 'I' for Inactive)
REMARK    1  A    between atoms: C_5  and  O_6
REMARK    2  A    between atoms: C_7  and  C_8
REMARK    3  A    between atoms: C_8  and  O_10
REMARK    4  A    between atoms: O_10  and  C_11
REMARK                            x       y       z     vdW  Elec       q    Type
REMARK                         _______ _______ _______ _____ _____    ______ ____
ROOT
ATOM      1  C   UNL     1      -6.578  -0.673 131.347  0.00  0.00    +0.000 C 
ATOM      2  C   UNL     1      -6.011   0.639 131.786  0.00  0.00    +0.000 C 
ATOM      3  C   UNL     1      -5.431   1.439 130.603  0.00  0.00    +0.000 C 
ATOM      4  C   UNL     1      -6.565   2.299 130.417  0.00  0.00    +0.000 C 
ATOM      5  C   UNL     1      -7.661   0.998 129.747  0.00  0.00    +0.000 C 
ATOM      6  C   UNL     1      -7.888  -0.405 130.578  0.00  0.00    +0.000 C 
ATOM      7  C   UNL     1      -8.217  -1.915 130.069  0.00  0.00    +0.000 C 
ATOM      8  C   UNL     1      -7.154  -2.716 129.270  0.00  0.00    +0.000 C 
ATOM      9  N   UNL     1      -5.803  -2.278 129.510  0.00  0.00    +0.000 NA
ATOM     10  C   UNL     1      -4.773  -2.467 128.486  0.00  0.00    +0.000 C 
ATOM     11  C   UNL     1      -5.184  -1.982 127.082  0.00  0.00    +0.000 C 
ATOM     12  C   UNL     1      -6.581  -2.390 126.800  0.00  0.00    +0.000 A 
ATOM     13  C   UNL     1      -7.457  -2.715 127.812  0.00  0.00    +0.000 A 
ATOM     14  N   UNL     1      -8.640  -3.101 127.241  0.00  0.00    +0.000 N 
ATOM     15  C   UNL     1      -8.565  -2.946 125.875  0.00  0.00    +0.000 A 
ATOM     16  C   UNL     1      -9.530  -3.162 124.886  0.00  0.00    +0.000 A 
ATOM     17  C   UNL     1      -9.153  -2.916 123.562  0.00  0.00    +0.000 A 
ATOM     18  C   UNL     1      -7.870  -2.473 123.242  0.00  0.00    +0.000 A 
ATOM     19  C   UNL     1      -6.920  -2.262 124.242  0.00  0.00    +0.000 A 
ATOM     20  C   UNL     1      -7.275  -2.502 125.577  0.00  0.00    +0.000 A 
ATOM     21  C   UNL     1      -5.478  -1.354 130.536  0.00  0.00    +0.000 C 
ATOM     22  H   UNL     1      -9.461  -3.418 127.739  0.00  0.00    +0.000 HD
ENDROOT
BRANCH   4  23
ATOM     23  O   UNL     1      -6.805   3.070 131.621  0.00  0.00    +0.000 OA
ATOM     24  H   UNL     1      -6.270   3.900 131.610  0.00  0.00    +0.000 HD
ENDBRANCH   4  23
BRANCH   5  25
ATOM     25  C   UNL     1      -8.648   2.021 129.425  0.00  0.00    +0.000 C 
ATOM     26  O   UNL     1      -8.958   2.332 128.253  0.00  0.00    +0.000 OA
BRANCH  25  27
ATOM     27  O   UNL     1      -9.432   2.126 130.557  0.00  0.00    +0.000 OA
ATOM     28  C   UNL     1     -10.258   3.296 130.676  0.00  0.00    +0.000 C 
ENDBRANCH  25  27
ENDBRANCH   5  25
TORSDOF 3
ENDMDL
MODEL 7
REMARK VINA RESULT:      -7.1      8.623     10.071
REMARK  Name = Yohimbine
REMARK  4 active torsions:
REMARK  status: ('A' for Active; 'I' for Inactive)
REMARK    1  A    between atoms: C_5  and  O_6
REMARK    2  A    between atoms: C_7  and  C_8
REMARK    3  A    between atoms: C_8  and  O_10
REMARK    4  A    between atoms: O_10  and  C_11
REMARK                            x       y       z     vdW  Elec       q    Type
REMARK                         _______ _______ _______ _____ _____    ______ ____
ROOT
ATOM      1  C   UNL     1      -9.086   3.491 133.455  0.00  0.00    +0.000 C 
ATOM      2  C   UNL     1      -9.847   2.510 132.621  0.00  0.00    +0.000 C 
ATOM      3  C   UNL     1      -9.250   2.374 131.207  0.00  0.00    +0.000 C 
ATOM      4  C   UNL     1      -8.508   1.171 131.460  0.00  0.00    +0.000 C 
ATOM      5  C   UNL     1      -7.259   1.963 132.536  0.00  0.00    +0.000 C 
ATOM      6  C   UNL     1      -7.729   2.862 133.831  0.00  0.00    +0.000 C 
ATOM      7  C   UNL     1      -7.034   4.137 134.566  0.00  0.00    +0.000 C 
ATOM      8  C   UNL     1      -6.930   5.498 133.826  0.00  0.00    +0.000 C 
ATOM      9  N   UNL     1      -7.917   5.669 132.792  0.00  0.00    +0.000 NA
ATOM     10  C   UNL     1      -7.646   6.545 131.650  0.00  0.00    +0.000 C 
ATOM     11  C   UNL     1      -6.288   6.289 130.968  0.00  0.00    +0.000 C 
ATOM     12  C   UNL     1      -5.241   6.082 131.998  0.00  0.00    +0.000 A 
ATOM     13  C   UNL     1      -5.559   5.720 133.288  0.00  0.00    +0.000 A 
ATOM     14  N   UNL     1      -4.398   5.661 134.010  0.00  0.00    +0.000 N 
ATOM     15  C   UNL     1      -3.325   5.897 133.179  0.00  0.00    +0.000 A 
ATOM     16  C   UNL     1      -1.954   5.893 133.450  0.00  0.00    +0.000 A 
ATOM     17  C   UNL     1      -1.092   6.176 132.385  0.00  0.00    +0.000 A 
ATOM     18  C   UNL     1      -1.580   6.449 131.108  0.00  0.00    +0.000 A 
ATOM     19  C   UNL     1      -2.953   6.448 130.856  0.00  0.00    +0.000 A 
ATOM     20  C   UNL     1      -3.837   6.167 131.908  0.00  0.00    +0.000 A 
ATOM     21  C   UNL     1      -9.001   4.769 132.624  0.00  0.00    +0.000 C 
ATOM     22  H   UNL     1      -4.324   5.444 134.995  0.00  0.00    +0.000 HD
ENDROOT
BRANCH   4  23
ATOM     23  O   UNL     1      -9.408   0.106 131.852  0.00  0.00    +0.000 OA
ATOM     24  H   UNL     1      -9.747  -0.369 131.055  0.00  0.00    +0.000 HD
ENDBRANCH   4  23
BRANCH   5  25
ATOM     25  C   UNL     1      -6.498   0.720 132.535  0.00  0.00    +0.000 C 
ATOM     26  O   UNL     1      -5.432   0.567 131.896  0.00  0.00    +0.000 OA
BRANCH  25  27
ATOM     27  O   UNL     1      -6.888   0.063 133.685  0.00  0.00    +0.000 OA
ATOM     28  C   UNL     1      -6.580  -1.338 133.776  0.00  0.00    +0.000 C 
ENDBRANCH  25  27
ENDBRANCH   5  25
TORSDOF 3
ENDMDL
MODEL 8
REMARK VINA RESULT:      -7.0      6.012      7.872
REMARK  Name = Yohimbine
REMARK  4 active torsions:
REMARK  status: ('A' for Active; 'I' for Inactive)
REMARK    1  A    between atoms: C_5  and  O_6
REMARK    2  A    between atoms: C_7  and  C_8
REMARK    3  A    between atoms: C_8  and  O_10
REMARK    4  A    between atoms: O_10  and  C_11
REMARK                            x       y       z     vdW  Elec       q    Type
REMARK                         _______ _______ _______ _____ _____    ______ ____
ROOT
ATOM      1  C   UNL     1      -6.574   3.849 131.079  0.00  0.00    +0.000 C 
ATOM      2  C   UNL     1      -6.864   5.079 131.878  0.00  0.00    +0.000 C 
ATOM      3  C   UNL     1      -6.681   6.361 131.044  0.00  0.00    +0.000 C 
ATOM      4  C   UNL     1      -8.070   6.559 130.742  0.00  0.00    +0.000 C 
ATOM      5  C   UNL     1      -8.199   5.141 129.593  0.00  0.00    +0.000 C 
ATOM      6  C   UNL     1      -7.720   3.640 130.070  0.00  0.00    +0.000 C 
ATOM      7  C   UNL     1      -7.116   2.385 129.227  0.00  0.00    +0.000 C 
ATOM      8  C   UNL     1      -5.706   2.486 128.587  0.00  0.00    +0.000 C 
ATOM      9  N   UNL     1      -4.847   3.446 129.233  0.00  0.00    +0.000 NA
ATOM     10  C   UNL     1      -3.770   4.096 128.482  0.00  0.00    +0.000 C 
ATOM     11  C   UNL     1      -4.215   4.693 127.133  0.00  0.00    +0.000 C 
ATOM     12  C   UNL     1      -5.124   3.747 126.441  0.00  0.00    +0.000 A 
ATOM     13  C   UNL     1      -5.791   2.756 127.125  0.00  0.00    +0.000 A 
ATOM     14  N   UNL     1      -6.501   2.018 126.217  0.00  0.00    +0.000 N 
ATOM     15  C   UNL     1      -6.367   2.575 124.964  0.00  0.00    +0.000 A 
ATOM     16  C   UNL     1      -6.939   2.204 123.744  0.00  0.00    +0.000 A 
ATOM     17  C   UNL     1      -6.608   2.974 122.623  0.00  0.00    +0.000 A 
ATOM     18  C   UNL     1      -5.745   4.064 122.721  0.00  0.00    +0.000 A 
ATOM     19  C   UNL     1      -5.184   4.420 123.947  0.00  0.00    +0.000 A 
ATOM     20  C   UNL     1      -5.501   3.664 125.085  0.00  0.00    +0.000 A 
ATOM     21  C   UNL     1      -5.196   4.069 130.459  0.00  0.00    +0.000 C 
ATOM     22  H   UNL     1      -7.068   1.208 126.427  0.00  0.00    +0.000 HD
ENDROOT
BRANCH   4  23
ATOM     23  O   UNL     1      -8.826   6.725 131.967  0.00  0.00    +0.000 OA
ATOM     24  H   UNL     1      -9.004   5.847 132.383  0.00  0.00    +0.000 HD
ENDBRANCH   4  23
BRANCH   5  25
ATOM     25  C   UNL     1      -9.539   5.583 129.227  0.00  0.00    +0.000 C 
ATOM     26  O   UNL     1      -9.788   6.231 128.186  0.00  0.00    +0.000 OA
BRANCH  25  27
ATOM     27  O   UNL     1     -10.390   4.744 129.919  0.00  0.00    +0.000 OA
ATOM     28  C   UNL     1     -11.638   5.300 130.364  0.00  0.00    +0.000 C 
ENDBRANCH  25  27
ENDBRANCH   5  25
TORSDOF 3
ENDMDL
MODEL 9
REMARK VINA RESULT:      -7.0      7.552      9.641
REMARK  Name = Yohimbine
REMARK  4 active torsions:
REMARK  status: ('A' for Active; 'I' for Inactive)
REMARK    1  A    between atoms: C_5  and  O_6
REMARK    2  A    between atoms: C_7  and  C_8
REMARK    3  A    between atoms: C_8  and  O_10
REMARK    4  A    between atoms: O_10  and  C_11
REMARK                            x       y       z     vdW  Elec       q    Type
REMARK                         _______ _______ _______ _____ _____    ______ ____
ROOT
ATOM      1  C   UNL     1      -8.077   2.703 128.981  0.00  0.00    +0.000 C 
ATOM      2  C   UNL     1      -9.380   2.544 129.696  0.00  0.00    +0.000 C 
ATOM      3  C   UNL     1      -9.219   2.695 131.222  0.00  0.00    +0.000 C 
ATOM      4  C   UNL     1      -9.656   4.060 131.296  0.00  0.00    +0.000 C 
ATOM      5  C   UNL     1      -8.170   4.760 130.492  0.00  0.00    +0.000 C 
ATOM      6  C   UNL     1      -7.672   4.190 129.030  0.00  0.00    +0.000 C 
ATOM      7  C   UNL     1      -6.191   4.090 128.362  0.00  0.00    +0.000 C 
ATOM      8  C   UNL     1      -5.136   3.116 128.952  0.00  0.00    +0.000 C 
ATOM      9  N   UNL     1      -5.712   2.015 129.679  0.00  0.00    +0.000 NA
ATOM     10  C   UNL     1      -4.957   1.362 130.752  0.00  0.00    +0.000 C 
ATOM     11  C   UNL     1      -4.349   2.337 131.778  0.00  0.00    +0.000 C 
ATOM     12  C   UNL     1      -3.764   3.505 131.074  0.00  0.00    +0.000 A 
ATOM     13  C   UNL     1      -4.140   3.839 129.792  0.00  0.00    +0.000 A 
ATOM     14  N   UNL     1      -3.393   4.915 129.398  0.00  0.00    +0.000 N 
ATOM     15  C   UNL     1      -2.599   5.334 130.443  0.00  0.00    +0.000 A 
ATOM     16  C   UNL     1      -1.712   6.411 130.529  0.00  0.00    +0.000 A 
ATOM     17  C   UNL     1      -1.034   6.584 131.741  0.00  0.00    +0.000 A 
ATOM     18  C   UNL     1      -1.235   5.719 132.815  0.00  0.00    +0.000 A 
ATOM     19  C   UNL     1      -2.124   4.649 132.711  0.00  0.00    +0.000 A 
ATOM     20  C   UNL     1      -2.816   4.455 131.507  0.00  0.00    +0.000 A 
ATOM     21  C   UNL     1      -7.105   1.743 129.664  0.00  0.00    +0.000 C 
ATOM     22  H   UNL     1      -3.435   5.365 128.493  0.00  0.00    +0.000 HD
ENDROOT
BRANCH   4  23
ATOM     23  O   UNL     1     -11.015   4.175 130.807  0.00  0.00    +0.000 OA
ATOM     24  H   UNL     1     -11.598   4.568 131.500  0.00  0.00    +0.000 HD
ENDBRANCH   4  23
BRANCH   5  25
ATOM     25  C   UNL     1      -8.645   6.098 130.820  0.00  0.00    +0.000 C 
ATOM     26  O   UNL     1      -8.232   6.752 131.803  0.00  0.00    +0.000 OA
BRANCH  25  27
ATOM     27  O   UNL     1      -9.154   6.594 129.636  0.00  0.00    +0.000 OA
ATOM     28  C   UNL     1     -10.252   7.517 129.730  0.00  0.00    +0.000 C 
ENDBRANCH  25  27
ENDBRANCH   5  25
TORSDOF 3
ENDMDL
