MODEL 1
REMARK VINA RESULT:     -10.1      0.000      0.000
REMARK  Name = Zafirlukast
REMARK  12 active torsions:
REMARK  status: ('A' for Active; 'I' for Inactive)
REMARK    1  A    between atoms: C_1  and  O_2
REMARK    2  A    between atoms: O_2  and  C_3
REMARK    3  A    between atoms: C_5  and  C_29
REMARK    4  A    between atoms: C_8  and  C_9
REMARK    5  A    between atoms: C_9  and  C_10
REMARK    6  A    between atoms: N_12  and  C_13
REMARK    7  A    between atoms: C_17  and  N_18
REMARK    8  A    between atoms: C_19  and  O_21
REMARK    9  A    between atoms: O_21  and  C_22
REMARK   10  A    between atoms: N_31  and  S_32
REMARK   11  A    between atoms: S_32  and  C_35
REMARK   12  A    between atoms: C_40  and  C_41
REMARK                            x       y       z     vdW  Elec       q    Type
REMARK                         _______ _______ _______ _____ _____    ______ ____
ROOT
ATOM      1  C   UNL     1      -4.321   5.463 128.279  0.00  0.00    +0.000 A 
ATOM      2  C   UNL     1      -5.202   4.873 127.262  0.00  0.00    +0.000 A 
ATOM      3  C   UNL     1      -4.805   3.922 126.313  0.00  0.00    +0.000 A 
ATOM      4  C   UNL     1      -3.427   3.747 126.270  0.00  0.00    +0.000 A 
ATOM      5  C   UNL     1      -2.523   4.366 127.303  0.00  0.00    +0.000 A 
ATOM      6  C   UNL     1      -2.948   5.190 128.459  0.00  0.00    +0.000 A 
ENDROOT
BRANCH   3   7
ATOM      7  C   UNL     1      -5.889   3.136 125.558  0.00  0.00    +0.000 C 
ATOM      8  O   UNL     1      -6.344   2.125 126.083  0.00  0.00    +0.000 OA
ATOM      9  N   UNL     1      -6.279   3.513 124.236  0.00  0.00    +0.000 N 
ATOM     10  H   UNL     1      -5.989   4.371 123.790  0.00  0.00    +0.000 HD
BRANCH   9  11
ATOM     11  S   UNL     1      -7.384   2.548 123.358  0.00  0.00    +0.000 S 
ATOM     12  O   UNL     1      -6.788   1.251 123.121  0.00  0.00    +0.000 OA
ATOM     13  O   UNL     1      -8.663   2.680 124.019  0.00  0.00    +0.000 OA
BRANCH  11  14
ATOM     14  C   UNL     1      -7.513   3.326 121.713  0.00  0.00    +0.000 A 
ATOM     15  C   UNL     1      -8.787   3.477 121.135  0.00  0.00    +0.000 A 
ATOM     16  C   UNL     1      -8.921   4.002 119.839  0.00  0.00    +0.000 A 
ATOM     17  C   UNL     1      -7.808   4.478 119.151  0.00  0.00    +0.000 A 
ATOM     18  C   UNL     1      -6.554   4.410 119.748  0.00  0.00    +0.000 A 
ATOM     19  C   UNL     1      -6.391   3.847 121.031  0.00  0.00    +0.000 A 
ATOM     20  C   UNL     1      -5.016   3.883 121.629  0.00  0.00    +0.000 C 
ENDBRANCH  11  14
ENDBRANCH   9  11
ENDBRANCH   3   7
BRANCH   1  22
ATOM     21  C   UNL     1      -5.434   5.664 130.202  0.00  0.00    +0.000 C 
ATOM     22  O   UNL     1      -5.012   6.344 129.049  0.00  0.00    +0.000 OA
ENDBRANCH   1  22
BRANCH   6  23
ATOM     23  C   UNL     1      -1.805   5.816 129.711  0.00  0.00    +0.000 C 
BRANCH  23  24
ATOM     24  C   UNL     1      -2.025   6.831 131.306  0.00  0.00    +0.000 A 
ATOM     25  C   UNL     1      -1.711   5.659 131.970  0.00  0.00    +0.000 A 
ATOM     26  N   UNL     1      -1.051   6.208 133.017  0.00  0.00    +0.000 N 
ATOM     27  C   UNL     1      -0.069   7.311 133.067  0.00  0.00    +0.000 C 
ATOM     28  C   UNL     1      -2.191   6.296 133.715  0.00  0.00    +0.000 A 
ATOM     29  C   UNL     1      -2.745   7.424 132.946  0.00  0.00    +0.000 A 
ATOM     30  C   UNL     1      -3.500   7.737 134.426  0.00  0.00    +0.000 A 
ATOM     31  C   UNL     1      -4.125   6.839 135.535  0.00  0.00    +0.000 A 
ATOM     32  C   UNL     1      -3.912   5.553 135.217  0.00  0.00    +0.000 A 
ATOM     33  C   UNL     1      -3.012   5.271 134.242  0.00  0.00    +0.000 A 
BRANCH  31  34
ATOM     34  N   UNL     1      -4.889   7.029 136.867  0.00  0.00    +0.000 N 
ATOM     35  C   UNL     1      -6.305   6.540 137.024  0.00  0.00    +0.000 C 
ATOM     36  O   UNL     1      -6.900   5.923 136.230  0.00  0.00    +0.000 OA
ATOM     37  H   UNL     1      -4.489   7.550 137.634  0.00  0.00    +0.000 HD
BRANCH  35  38
ATOM     38  O   UNL     1      -7.005   6.912 138.213  0.00  0.00    +0.000 OA
BRANCH  38  39
ATOM     39  C   UNL     1      -7.744   8.221 138.075  0.00  0.00    +0.000 C 
ATOM     40  C   UNL     1      -9.230   8.076 137.694  0.00  0.00    +0.000 C 
ATOM     41  C   UNL     1      -9.890   9.421 138.037  0.00  0.00    +0.000 C 
ATOM     42  C   UNL     1      -9.080   9.986 139.197  0.00  0.00    +0.000 C 
ATOM     43  C   UNL     1      -7.874   9.039 139.379  0.00  0.00    +0.000 C 
ENDBRANCH  38  39
ENDBRANCH  35  38
ENDBRANCH  31  34
ENDBRANCH  23  24
ENDBRANCH   6  23
TORSDOF 9
ENDMDL
MODEL 2
REMARK VINA RESULT:      -9.8      3.818     12.831
REMARK  Name = Zafirlukast
REMARK  12 active torsions:
REMARK  status: ('A' for Active; 'I' for Inactive)
REMARK    1  A    between atoms: C_1  and  O_2
REMARK    2  A    between atoms: O_2  and  C_3
REMARK    3  A    between atoms: C_5  and  C_29
REMARK    4  A    between atoms: C_8  and  C_9
REMARK    5  A    between atoms: C_9  and  C_10
REMARK    6  A    between atoms: N_12  and  C_13
REMARK    7  A    between atoms: C_17  and  N_18
REMARK    8  A    between atoms: C_19  and  O_21
REMARK    9  A    between atoms: O_21  and  C_22
REMARK   10  A    between atoms: N_31  and  S_32
REMARK   11  A    between atoms: S_32  and  C_35
REMARK   12  A    between atoms: C_40  and  C_41
REMARK                            x       y       z     vdW  Elec       q    Type
REMARK                         _______ _______ _______ _____ _____    ______ ____
ROOT
ATOM      1  C   UNL     1      -3.425   5.817 132.240  0.00  0.00    +0.000 A 
ATOM      2  C   UNL     1      -3.451   6.322 133.620  0.00  0.00    +0.000 A 
ATOM      3  C   UNL     1      -2.557   7.264 134.145  0.00  0.00    +0.000 A 
ATOM      4  C   UNL     1      -1.484   7.518 133.299  0.00  0.00    +0.000 A 
ATOM      5  C   UNL     1      -1.450   6.987 131.891  0.00  0.00    +0.000 A 
ATOM      6  C   UNL     1      -2.504   6.176 131.234  0.00  0.00    +0.000 A 
ENDROOT
BRANCH   3   7
ATOM      7  C   UNL     1      -2.912   7.961 135.469  0.00  0.00    +0.000 C 
ATOM      8  O   UNL     1      -1.995   8.377 136.170  0.00  0.00    +0.000 OA
ATOM      9  N   UNL     1      -4.267   8.027 135.919  0.00  0.00    +0.000 N 
ATOM     10  H   UNL     1      -5.059   7.765 135.351  0.00  0.00    +0.000 HD
BRANCH   9  11
ATOM     11  S   UNL     1      -4.630   8.681 137.456  0.00  0.00    +0.000 S 
ATOM     12  O   UNL     1      -4.063   7.824 138.476  0.00  0.00    +0.000 OA
ATOM     13  O   UNL     1      -4.307  10.089 137.392  0.00  0.00    +0.000 OA
BRANCH  11  14
ATOM     14  C   UNL     1      -6.437   8.521 137.642  0.00  0.00    +0.000 A 
ATOM     15  C   UNL     1      -7.200   9.684 137.855  0.00  0.00    +0.000 A 
ATOM     16  C   UNL     1      -8.584   9.595 138.078  0.00  0.00    +0.000 A 
ATOM     17  C   UNL     1      -9.237   8.367 137.984  0.00  0.00    +0.000 A 
ATOM     18  C   UNL     1      -8.503   7.223 137.691  0.00  0.00    +0.000 A 
ATOM     19  C   UNL     1      -7.106   7.284 137.507  0.00  0.00    +0.000 A 
ATOM     20  C   UNL     1      -6.407   6.015 137.119  0.00  0.00    +0.000 C 
ENDBRANCH  11  14
ENDBRANCH   9  11
ENDBRANCH   3   7
BRANCH   1  22
ATOM     21  C   UNL     1      -5.628   5.532 132.446  0.00  0.00    +0.000 C 
ATOM     22  O   UNL     1      -4.429   4.922 132.046  0.00  0.00    +0.000 OA
ENDBRANCH   1  22
BRANCH   6  23
ATOM     23  C   UNL     1      -2.429   5.658 129.503  0.00  0.00    +0.000 C 
BRANCH  23  24
ATOM     24  C   UNL     1      -2.912   4.064 128.584  0.00  0.00    +0.000 A 
ATOM     25  C   UNL     1      -2.945   4.853 127.449  0.00  0.00    +0.000 A 
ATOM     26  N   UNL     1      -2.509   3.926 126.563  0.00  0.00    +0.000 N 
ATOM     27  C   UNL     1      -1.431   2.921 126.672  0.00  0.00    +0.000 C 
ATOM     28  C   UNL     1      -3.767   3.533 126.326  0.00  0.00    +0.000 A 
ATOM     29  C   UNL     1      -3.943   2.824 127.604  0.00  0.00    +0.000 A 
ATOM     30  C   UNL     1      -5.004   1.904 126.663  0.00  0.00    +0.000 A 
ATOM     31  C   UNL     1      -6.012   2.242 125.524  0.00  0.00    +0.000 A 
ATOM     32  C   UNL     1      -5.903   3.546 125.226  0.00  0.00    +0.000 A 
ATOM     33  C   UNL     1      -4.830   4.227 125.699  0.00  0.00    +0.000 A 
BRANCH  31  34
ATOM     34  N   UNL     1      -7.060   1.497 124.664  0.00  0.00    +0.000 N 
ATOM     35  C   UNL     1      -8.465   1.285 125.166  0.00  0.00    +0.000 C 
ATOM     36  O   UNL     1      -8.900   1.719 126.159  0.00  0.00    +0.000 OA
ATOM     37  H   UNL     1      -6.811   1.068 123.784  0.00  0.00    +0.000 HD
BRANCH  35  38
ATOM     38  O   UNL     1      -9.320   0.434 124.400  0.00  0.00    +0.000 OA
BRANCH  38  39
ATOM     39  C   UNL     1      -8.819  -0.988 124.325  0.00  0.00    +0.000 C 
ATOM     40  C   UNL     1      -9.256  -1.881 125.502  0.00  0.00    +0.000 C 
ATOM     41  C   UNL     1      -9.048  -3.330 125.037  0.00  0.00    +0.000 C 
ATOM     42  C   UNL     1      -9.229  -3.301 123.525  0.00  0.00    +0.000 C 
ATOM     43  C   UNL     1      -9.365  -1.812 123.138  0.00  0.00    +0.000 C 
ENDBRANCH  38  39
ENDBRANCH  35  38
ENDBRANCH  31  34
ENDBRANCH  23  24
ENDBRANCH   6  23
TORSDOF 9
ENDMDL
MODEL 3
REMARK VINA RESULT:      -9.7      3.054      4.352
REMARK  Name = Zafirlukast
REMARK  12 active torsions:
REMARK  status: ('A' for Active; 'I' for Inactive)
REMARK    1  A    between atoms: C_1  and  O_2
REMARK    2  A    between atoms: O_2  and  C_3
REMARK    3  A    between atoms: C_5  and  C_29
REMARK    4  A    between atoms: C_8  and  C_9
REMARK    5  A    between atoms: C_9  and  C_10
REMARK    6  A    between atoms: N_12  and  C_13
REMARK    7  A    between atoms: C_17  and  N_18
REMARK    8  A    between atoms: C_19  and  O_21
REMARK    9  A    between atoms: O_21  and  C_22
REMARK   10  A    between atoms: N_31  and  S_32
REMARK   11  A    between atoms: S_32  and  C_35
REMARK   12  A    between atoms: C_40  and  C_41
REMARK                            x       y       z     vdW  Elec       q    Type
REMARK                         _______ _______ _______ _____ _____    ______ ____
ROOT
ATOM      1  C   UNL     1      -4.781   4.413 128.417  0.00  0.00    +0.000 A 
ATOM      2  C   UNL     1      -5.616   3.658 127.472  0.00  0.00    +0.000 A 
ATOM      3  C   UNL     1      -5.146   3.037 126.307  0.00  0.00    +0.000 A 
ATOM      4  C   UNL     1      -3.838   3.391 125.999  0.00  0.00    +0.000 A 
ATOM      5  C   UNL     1      -2.989   4.179 126.960  0.00  0.00    +0.000 A 
ATOM      6  C   UNL     1      -3.395   4.649 128.306  0.00  0.00    +0.000 A 
ENDROOT
BRANCH   3   7
ATOM      7  C   UNL     1      -6.040   1.996 125.614  0.00  0.00    +0.000 C 
ATOM      8  O   UNL     1      -6.398   2.215 124.461  0.00  0.00    +0.000 OA
ATOM      9  N   UNL     1      -6.527   0.859 126.329  0.00  0.00    +0.000 N 
ATOM     10  H   UNL     1      -6.207   0.597 127.250  0.00  0.00    +0.000 HD
BRANCH   9  11
ATOM     11  S   UNL     1      -7.631  -0.215 125.586  0.00  0.00    +0.000 S 
ATOM     12  O   UNL     1      -8.897   0.464 125.407  0.00  0.00    +0.000 OA
ATOM     13  O   UNL     1      -6.935  -0.816 124.470  0.00  0.00    +0.000 OA
BRANCH  11  14
ATOM     14  C   UNL     1      -7.954  -1.518 126.821  0.00  0.00    +0.000 A 
ATOM     15  C   UNL     1      -7.501  -1.327 128.138  0.00  0.00    +0.000 A 
ATOM     16  C   UNL     1      -7.664  -2.338 129.100  0.00  0.00    +0.000 A 
ATOM     17  C   UNL     1      -8.370  -3.499 128.791  0.00  0.00    +0.000 A 
ATOM     18  C   UNL     1      -8.895  -3.661 127.513  0.00  0.00    +0.000 A 
ATOM     19  C   UNL     1      -8.705  -2.677 126.520  0.00  0.00    +0.000 A 
ATOM     20  C   UNL     1      -9.370  -2.899 125.195  0.00  0.00    +0.000 C 
ENDBRANCH  11  14
ENDBRANCH   9  11
ENDBRANCH   3   7
BRANCH   1  22
ATOM     21  C   UNL     1      -5.622   3.864 130.409  0.00  0.00    +0.000 C 
ATOM     22  O   UNL     1      -5.537   4.880 129.445  0.00  0.00    +0.000 OA
ENDBRANCH   1  22
BRANCH   6  23
ATOM     23  C   UNL     1      -2.280   5.508 129.441  0.00  0.00    +0.000 C 
BRANCH  23  24
ATOM     24  C   UNL     1      -2.517   6.368 131.121  0.00  0.00    +0.000 A 
ATOM     25  C   UNL     1      -2.362   5.109 131.670  0.00  0.00    +0.000 A 
ATOM     26  N   UNL     1      -1.729   5.478 132.809  0.00  0.00    +0.000 N 
ATOM     27  C   UNL     1      -0.655   6.465 133.039  0.00  0.00    +0.000 C 
ATOM     28  C   UNL     1      -2.903   5.608 133.442  0.00  0.00    +0.000 A 
ATOM     29  C   UNL     1      -3.293   6.858 132.769  0.00  0.00    +0.000 A 
ATOM     30  C   UNL     1      -4.119   7.091 134.226  0.00  0.00    +0.000 A 
ATOM     31  C   UNL     1      -4.902   6.151 135.190  0.00  0.00    +0.000 A 
ATOM     32  C   UNL     1      -4.787   4.889 134.746  0.00  0.00    +0.000 A 
ATOM     33  C   UNL     1      -3.851   4.620 133.803  0.00  0.00    +0.000 A 
BRANCH  31  34
ATOM     34  N   UNL     1      -5.737   6.277 136.486  0.00  0.00    +0.000 N 
ATOM     35  C   UNL     1      -7.243   6.262 136.441  0.00  0.00    +0.000 C 
ATOM     36  O   UNL     1      -7.890   6.072 135.487  0.00  0.00    +0.000 OA
ATOM     37  H   UNL     1      -5.300   6.450 137.380  0.00  0.00    +0.000 HD
BRANCH  35  38
ATOM     38  O   UNL     1      -7.943   6.566 137.649  0.00  0.00    +0.000 OA
BRANCH  38  39
ATOM     39  C   UNL     1      -8.295   8.029 137.772  0.00  0.00    +0.000 C 
ATOM     40  C   UNL     1      -9.798   8.337 137.628  0.00  0.00    +0.000 C 
ATOM     41  C   UNL     1     -10.001   9.744 138.213  0.00  0.00    +0.000 C 
ATOM     42  C   UNL     1      -8.922   9.901 139.277  0.00  0.00    +0.000 C 
ATOM     43  C   UNL     1      -8.019   8.654 139.158  0.00  0.00    +0.000 C 
ENDBRANCH  38  39
ENDBRANCH  35  38
ENDBRANCH  31  34
ENDBRANCH  23  24
ENDBRANCH   6  23
TORSDOF 9
ENDMDL
MODEL 4
REMARK VINA RESULT:      -9.7      3.722     13.048
REMARK  Name = Zafirlukast
REMARK  12 active torsions:
REMARK  status: ('A' for Active; 'I' for Inactive)
REMARK    1  A    between atoms: C_1  and  O_2
REMARK    2  A    between atoms: O_2  and  C_3
REMARK    3  A    between atoms: C_5  and  C_29
REMARK    4  A    between atoms: C_8  and  C_9
REMARK    5  A    between atoms: C_9  and  C_10
REMARK    6  A    between atoms: N_12  and  C_13
REMARK    7  A    between atoms: C_17  and  N_18
REMARK    8  A    between atoms: C_19  and  O_21
REMARK    9  A    between atoms: O_21  and  C_22
REMARK   10  A    between atoms: N_31  and  S_32
REMARK   11  A    between atoms: S_32  and  C_35
REMARK   12  A    between atoms: C_40  and  C_41
REMARK                            x       y       z     vdW  Elec       q    Type
REMARK                         _______ _______ _______ _____ _____    ______ ____
ROOT
ATOM      1  C   UNL     1      -2.373   6.695 132.358  0.00  0.00    +0.000 A 
ATOM      2  C   UNL     1      -2.822   7.040 133.714  0.00  0.00    +0.000 A 
ATOM      3  C   UNL     1      -4.044   6.647 134.278  0.00  0.00    +0.000 A 
ATOM      4  C   UNL     1      -4.908   6.081 133.348  0.00  0.00    +0.000 A 
ATOM      5  C   UNL     1      -4.452   5.743 131.954  0.00  0.00    +0.000 A 
ATOM      6  C   UNL     1      -3.088   5.938 131.406  0.00  0.00    +0.000 A 
ENDROOT
BRANCH   3   7
ATOM      7  C   UNL     1      -4.227   6.768 135.799  0.00  0.00    +0.000 C 
ATOM      8  O   UNL     1      -3.522   6.075 136.526  0.00  0.00    +0.000 OA
ATOM      9  N   UNL     1      -5.263   7.586 136.348  0.00  0.00    +0.000 N 
ATOM     10  H   UNL     1      -5.820   8.226 135.801  0.00  0.00    +0.000 HD
BRANCH   9  11
ATOM     11  S   UNL     1      -5.542   7.601 138.035  0.00  0.00    +0.000 S 
ATOM     12  O   UNL     1      -5.747   6.242 138.488  0.00  0.00    +0.000 OA
ATOM     13  O   UNL     1      -4.520   8.443 138.615  0.00  0.00    +0.000 OA
BRANCH  11  14
ATOM     14  C   UNL     1      -7.152   8.431 138.257  0.00  0.00    +0.000 A 
ATOM     15  C   UNL     1      -7.193   9.647 138.961  0.00  0.00    +0.000 A 
ATOM     16  C   UNL     1      -8.422  10.278 139.217  0.00  0.00    +0.000 A 
ATOM     17  C   UNL     1      -9.604   9.765 138.688  0.00  0.00    +0.000 A 
ATOM     18  C   UNL     1      -9.563   8.606 137.920  0.00  0.00    +0.000 A 
ATOM     19  C   UNL     1      -8.345   7.933 137.687  0.00  0.00    +0.000 A 
ATOM     20  C   UNL     1      -8.383   6.735 136.785  0.00  0.00    +0.000 C 
ENDBRANCH  11  14
ENDBRANCH   9  11
ENDBRANCH   3   7
BRANCH   1  22
ATOM     21  C   UNL     1      -0.419   7.173 133.322  0.00  0.00    +0.000 C 
ATOM     22  O   UNL     1      -1.143   7.220 132.121  0.00  0.00    +0.000 OA
ENDBRANCH   1  22
BRANCH   6  23
ATOM     23  C   UNL     1      -2.595   5.414 129.748  0.00  0.00    +0.000 C 
BRANCH  23  24
ATOM     24  C   UNL     1      -2.998   3.898 128.671  0.00  0.00    +0.000 A 
ATOM     25  C   UNL     1      -3.130   4.801 127.633  0.00  0.00    +0.000 A 
ATOM     26  N   UNL     1      -2.663   4.011 126.637  0.00  0.00    +0.000 N 
ATOM     27  C   UNL     1      -1.514   3.084 126.600  0.00  0.00    +0.000 C 
ATOM     28  C   UNL     1      -3.898   3.554 126.394  0.00  0.00    +0.000 A 
ATOM     29  C   UNL     1      -3.975   2.699 127.591  0.00  0.00    +0.000 A 
ATOM     30  C   UNL     1      -5.003   1.811 126.585  0.00  0.00    +0.000 A 
ATOM     31  C   UNL     1      -6.075   2.194 125.521  0.00  0.00    +0.000 A 
ATOM     32  C   UNL     1      -6.070   3.527 125.367  0.00  0.00    +0.000 A 
ATOM     33  C   UNL     1      -5.031   4.231 125.881  0.00  0.00    +0.000 A 
BRANCH  31  34
ATOM     34  N   UNL     1      -7.100   1.471 124.615  0.00  0.00    +0.000 N 
ATOM     35  C   UNL     1      -8.514   1.238 125.079  0.00  0.00    +0.000 C 
ATOM     36  O   UNL     1      -8.974   1.639 126.075  0.00  0.00    +0.000 OA
ATOM     37  H   UNL     1      -6.828   1.070 123.729  0.00  0.00    +0.000 HD
BRANCH  35  38
ATOM     38  O   UNL     1      -9.347   0.406 124.268  0.00  0.00    +0.000 OA
BRANCH  38  39
ATOM     39  C   UNL     1      -8.792  -0.986 124.090  0.00  0.00    +0.000 C 
ATOM     40  C   UNL     1      -9.091  -1.946 125.257  0.00  0.00    +0.000 C 
ATOM     41  C   UNL     1      -8.858  -3.364 124.712  0.00  0.00    +0.000 C 
ATOM     42  C   UNL     1      -9.165  -3.281 123.222  0.00  0.00    +0.000 C 
ATOM     43  C   UNL     1      -9.398  -1.786 122.915  0.00  0.00    +0.000 C 
ENDBRANCH  38  39
ENDBRANCH  35  38
ENDBRANCH  31  34
ENDBRANCH  23  24
ENDBRANCH   6  23
TORSDOF 9
ENDMDL
MODEL 5
REMARK VINA RESULT:      -9.6      4.972      6.877
REMARK  Name = Zafirlukast
REMARK  12 active torsions:
REMARK  status: ('A' for Active; 'I' for Inactive)
REMARK    1  A    between atoms: C_1  and  O_2
REMARK    2  A    between atoms: O_2  and  C_3
REMARK    3  A    between atoms: C_5  and  C_29
REMARK    4  A    between atoms: C_8  and  C_9
REMARK    5  A    between atoms: C_9  and  C_10
REMARK    6  A    between atoms: N_12  and  C_13
REMARK    7  A    between atoms: C_17  and  N_18
REMARK    8  A    between atoms: C_19  and  O_21
REMARK    9  A    between atoms: O_21  and  C_22
REMARK   10  A    between atoms: N_31  and  S_32
REMARK   11  A    between atoms: S_32  and  C_35
REMARK   12  A    between atoms: C_40  and  C_41
REMARK                            x       y       z     vdW  Elec       q    Type
REMARK                         _______ _______ _______ _____ _____    ______ ____
ROOT
ATOM      1  C   UNL     1      -4.771   4.402 128.135  0.00  0.00    +0.000 A 
ATOM      2  C   UNL     1      -5.459   3.290 127.465  0.00  0.00    +0.000 A 
ATOM      3  C   UNL     1      -4.828   2.312 126.684  0.00  0.00    +0.000 A 
ATOM      4  C   UNL     1      -3.501   2.618 126.407  0.00  0.00    +0.000 A 
ATOM      5  C   UNL     1      -2.803   3.769 127.081  0.00  0.00    +0.000 A 
ATOM      6  C   UNL     1      -3.389   4.679 128.093  0.00  0.00    +0.000 A 
ENDROOT
BRANCH   3   7
ATOM      7  C   UNL     1      -5.600   1.025 126.347  0.00  0.00    +0.000 C 
ATOM      8  O   UNL     1      -4.956   0.007 126.116  0.00  0.00    +0.000 OA
ATOM      9  N   UNL     1      -7.022   1.042 126.204  0.00  0.00    +0.000 N 
ATOM     10  H   UNL     1      -7.600   1.831 126.452  0.00  0.00    +0.000 HD
BRANCH   9  11
ATOM     11  S   UNL     1      -7.850  -0.364 125.695  0.00  0.00    +0.000 S 
ATOM     12  O   UNL     1      -9.218  -0.013 125.379  0.00  0.00    +0.000 OA
ATOM     13  O   UNL     1      -6.998  -1.018 124.727  0.00  0.00    +0.000 OA
BRANCH  11  14
ATOM     14  C   UNL     1      -7.956  -1.432 127.171  0.00  0.00    +0.000 A 
ATOM     15  C   UNL     1      -7.569  -0.903 128.415  0.00  0.00    +0.000 A 
ATOM     16  C   UNL     1      -7.565  -1.716 129.562  0.00  0.00    +0.000 A 
ATOM     17  C   UNL     1      -8.044  -3.023 129.503  0.00  0.00    +0.000 A 
ATOM     18  C   UNL     1      -8.506  -3.528 128.292  0.00  0.00    +0.000 A 
ATOM     19  C   UNL     1      -8.479  -2.743 127.121  0.00  0.00    +0.000 A 
ATOM     20  C   UNL     1      -9.067  -3.342 125.878  0.00  0.00    +0.000 C 
ENDBRANCH  11  14
ENDBRANCH   9  11
ENDBRANCH   3   7
BRANCH   1  22
ATOM     21  C   UNL     1      -5.734   4.670 130.130  0.00  0.00    +0.000 C 
ATOM     22  O   UNL     1      -5.664   5.165 128.819  0.00  0.00    +0.000 OA
ENDBRANCH   1  22
BRANCH   6  23
ATOM     23  C   UNL     1      -2.450   5.979 128.928  0.00  0.00    +0.000 C 
BRANCH  23  24
ATOM     24  C   UNL     1      -1.684   6.144 130.662  0.00  0.00    +0.000 A 
ATOM     25  C   UNL     1      -2.781   6.932 130.956  0.00  0.00    +0.000 A 
ATOM     26  N   UNL     1      -2.926   6.575 132.255  0.00  0.00    +0.000 N 
ATOM     27  C   UNL     1      -2.834   5.253 132.906  0.00  0.00    +0.000 C 
ATOM     28  C   UNL     1      -2.111   7.567 132.638  0.00  0.00    +0.000 A 
ATOM     29  C   UNL     1      -0.870   6.925 132.174  0.00  0.00    +0.000 A 
ATOM     30  C   UNL     1      -0.219   7.837 133.440  0.00  0.00    +0.000 A 
ATOM     31  C   UNL     1      -0.495   9.264 134.000  0.00  0.00    +0.000 A 
ATOM     32  C   UNL     1      -1.536   9.792 133.338  0.00  0.00    +0.000 A 
ATOM     33  C   UNL     1      -2.301   8.969 132.578  0.00  0.00    +0.000 A 
BRANCH  31  34
ATOM     34  N   UNL     1       0.084  10.200 135.088  0.00  0.00    +0.000 N 
ATOM     35  C   UNL     1       1.151  11.210 134.753  0.00  0.00    +0.000 C 
ATOM     36  O   UNL     1       1.556  11.436 133.681  0.00  0.00    +0.000 OA
ATOM     37  H   UNL     1      -0.179  10.105 136.058  0.00  0.00    +0.000 HD
BRANCH  35  38
ATOM     38  O   UNL     1       1.764  11.908 135.839  0.00  0.00    +0.000 OA
BRANCH  38  39
ATOM     39  C   UNL     1       1.696  13.408 135.687  0.00  0.00    +0.000 C 
ATOM     40  C   UNL     1       0.267  13.985 135.692  0.00  0.00    +0.000 C 
ATOM     41  C   UNL     1       0.416  15.487 135.978  0.00  0.00    +0.000 C 
ATOM     42  C   UNL     1       1.680  15.617 136.819  0.00  0.00    +0.000 C 
ATOM     43  C   UNL     1       2.320  14.212 136.850  0.00  0.00    +0.000 C 
ENDBRANCH  38  39
ENDBRANCH  35  38
ENDBRANCH  31  34
ENDBRANCH  23  24
ENDBRANCH   6  23
TORSDOF 9
ENDMDL
MODEL 6
REMARK VINA RESULT:      -9.5      4.701      6.320
REMARK  Name = Zafirlukast
REMARK  12 active torsions:
REMARK  status: ('A' for Active; 'I' for Inactive)
REMARK    1  A    between atoms: C_1  and  O_2
REMARK    2  A    between atoms: O_2  and  C_3
REMARK    3  A    between atoms: C_5  and  C_29
REMARK    4  A    between atoms: C_8  and  C_9
REMARK    5  A    between atoms: C_9  and  C_10
REMARK    6  A    between atoms: N_12  and  C_13
REMARK    7  A    between atoms: C_17  and  N_18
REMARK    8  A    between atoms: C_19  and  O_21
REMARK    9  A    between atoms: O_21  and  C_22
REMARK   10  A    between atoms: N_31  and  S_32
REMARK   11  A    between atoms: S_32  and  C_35
REMARK   12  A    between atoms: C_40  and  C_41
REMARK                            x       y       z     vdW  Elec       q    Type
REMARK                         _______ _______ _______ _____ _____    ______ ____
ROOT
ATOM      1  C   UNL     1      -5.596   3.964 128.438  0.00  0.00    +0.000 A 
ATOM      2  C   UNL     1      -6.634   3.074 127.896  0.00  0.00    +0.000 A 
ATOM      3  C   UNL     1      -6.825   2.802 126.535  0.00  0.00    +0.000 A 
ATOM      4  C   UNL     1      -6.079   3.636 125.710  0.00  0.00    +0.000 A 
ATOM      5  C   UNL     1      -5.029   4.559 126.267  0.00  0.00    +0.000 A 
ATOM      6  C   UNL     1      -4.646   4.693 127.693  0.00  0.00    +0.000 A 
ENDROOT
BRANCH   3   7
ATOM      7  C   UNL     1      -7.694   1.598 126.138  0.00  0.00    +0.000 C 
ATOM      8  O   UNL     1      -8.056   0.827 127.022  0.00  0.00    +0.000 OA
ATOM      9  N   UNL     1      -7.983   1.326 124.765  0.00  0.00    +0.000 N 
ATOM     10  H   UNL     1      -7.771   1.963 124.012  0.00  0.00    +0.000 HD
BRANCH   9  11
ATOM     11  S   UNL     1      -8.834  -0.092 124.331  0.00  0.00    +0.000 S 
ATOM     12  O   UNL     1      -9.745  -0.438 125.402  0.00  0.00    +0.000 OA
ATOM     13  O   UNL     1      -9.303   0.105 122.978  0.00  0.00    +0.000 OA
BRANCH  11  14
ATOM     14  C   UNL     1      -7.587  -1.424 124.311  0.00  0.00    +0.000 A 
ATOM     15  C   UNL     1      -6.245  -1.097 124.574  0.00  0.00    +0.000 A 
ATOM     16  C   UNL     1      -5.245  -2.080 124.494  0.00  0.00    +0.000 A 
ATOM     17  C   UNL     1      -5.581  -3.412 124.259  0.00  0.00    +0.000 A 
ATOM     18  C   UNL     1      -6.916  -3.759 124.080  0.00  0.00    +0.000 A 
ATOM     19  C   UNL     1      -7.931  -2.780 124.113  0.00  0.00    +0.000 A 
ATOM     20  C   UNL     1      -9.348  -3.254 123.987  0.00  0.00    +0.000 C 
ENDBRANCH  11  14
ENDBRANCH   9  11
ENDBRANCH   3   7
BRANCH   1  22
ATOM     21  C   UNL     1      -7.030   4.054 130.145  0.00  0.00    +0.000 C 
ATOM     22  O   UNL     1      -5.672   4.006 129.794  0.00  0.00    +0.000 OA
ENDBRANCH   1  22
BRANCH   6  23
ATOM     23  C   UNL     1      -3.303   5.757 128.269  0.00  0.00    +0.000 C 
BRANCH  23  24
ATOM     24  C   UNL     1      -2.267   5.823 129.864  0.00  0.00    +0.000 A 
ATOM     25  C   UNL     1      -3.360   6.458 130.423  0.00  0.00    +0.000 A 
ATOM     26  N   UNL     1      -3.247   5.956 131.676  0.00  0.00    +0.000 N 
ATOM     27  C   UNL     1      -2.931   4.591 132.143  0.00  0.00    +0.000 C 
ATOM     28  C   UNL     1      -2.467   6.984 132.038  0.00  0.00    +0.000 A 
ATOM     29  C   UNL     1      -1.274   6.525 131.306  0.00  0.00    +0.000 A 
ATOM     30  C   UNL     1      -0.495   7.367 132.548  0.00  0.00    +0.000 A 
ATOM     31  C   UNL     1      -0.792   8.693 133.311  0.00  0.00    +0.000 A 
ATOM     32  C   UNL     1      -1.973   9.174 132.893  0.00  0.00    +0.000 A 
ATOM     33  C   UNL     1      -2.784   8.357 132.175  0.00  0.00    +0.000 A 
BRANCH  31  34
ATOM     34  N   UNL     1      -0.116   9.568 134.393  0.00  0.00    +0.000 N 
ATOM     35  C   UNL     1       0.872  10.641 134.017  0.00  0.00    +0.000 C 
ATOM     36  O   UNL     1       1.140  10.960 132.926  0.00  0.00    +0.000 OA
ATOM     37  H   UNL     1      -0.260   9.391 135.377  0.00  0.00    +0.000 HD
BRANCH  35  38
ATOM     38  O   UNL     1       1.589  11.280 135.075  0.00  0.00    +0.000 OA
BRANCH  38  39
ATOM     39  C   UNL     1       1.476  12.785 135.037  0.00  0.00    +0.000 C 
ATOM     40  C   UNL     1       0.084  13.329 135.414  0.00  0.00    +0.000 C 
ATOM     41  C   UNL     1       0.286  14.815 135.749  0.00  0.00    +0.000 C 
ATOM     42  C   UNL     1       1.711  14.923 136.274  0.00  0.00    +0.000 C 
ATOM     43  C   UNL     1       2.351  13.533 136.066  0.00  0.00    +0.000 C 
ENDBRANCH  38  39
ENDBRANCH  35  38
ENDBRANCH  31  34
ENDBRANCH  23  24
ENDBRANCH   6  23
TORSDOF 9
ENDMDL
MODEL 7
REMARK VINA RESULT:      -9.4      4.898     13.157
REMARK  Name = Zafirlukast
REMARK  12 active torsions:
REMARK  status: ('A' for Active; 'I' for Inactive)
REMARK    1  A    between atoms: C_1  and  O_2
REMARK    2  A    between atoms: O_2  and  C_3
REMARK    3  A    between atoms: C_5  and  C_29
REMARK    4  A    between atoms: C_8  and  C_9
REMARK    5  A    between atoms: C_9  and  C_10
REMARK    6  A    between atoms: N_12  and  C_13
REMARK    7  A    between atoms: C_17  and  N_18
REMARK    8  A    between atoms: C_19  and  O_21
REMARK    9  A    between atoms: O_21  and  C_22
REMARK   10  A    between atoms: N_31  and  S_32
REMARK   11  A    between atoms: S_32  and  C_35
REMARK   12  A    between atoms: C_40  and  C_41
REMARK                            x       y       z     vdW  Elec       q    Type
REMARK                         _______ _______ _______ _____ _____    ______ ____
ROOT
ATOM      1  C   UNL     1      -3.013   7.269 131.563  0.00  0.00    +0.000 A 
ATOM      2  C   UNL     1      -2.717   7.861 132.874  0.00  0.00    +0.000 A 
ATOM      3  C   UNL     1      -1.447   7.903 133.466  0.00  0.00    +0.000 A 
ATOM      4  C   UNL     1      -0.515   7.122 132.793  0.00  0.00    +0.000 A 
ATOM      5  C   UNL     1      -0.825   6.502 131.457  0.00  0.00    +0.000 A 
ATOM      6  C   UNL     1      -2.092   6.640 130.700  0.00  0.00    +0.000 A 
ENDROOT
BRANCH   3   7
ATOM      7  C   UNL     1      -1.216   8.853 134.652  0.00  0.00    +0.000 C 
ATOM      8  O   UNL     1      -0.077   8.965 135.093  0.00  0.00    +0.000 OA
ATOM      9  N   UNL     1      -2.316   9.506 135.289  0.00  0.00    +0.000 N 
ATOM     10  H   UNL     1      -3.257   9.504 134.924  0.00  0.00    +0.000 HD
BRANCH   9  11
ATOM     11  S   UNL     1      -2.059  10.450 136.692  0.00  0.00    +0.000 S 
ATOM     12  O   UNL     1      -3.313  11.056 137.085  0.00  0.00    +0.000 OA
ATOM     13  O   UNL     1      -1.299   9.630 137.608  0.00  0.00    +0.000 OA
BRANCH  11  14
ATOM     14  C   UNL     1      -1.000  11.838 136.161  0.00  0.00    +0.000 A 
ATOM     15  C   UNL     1       0.221  12.049 136.826  0.00  0.00    +0.000 A 
ATOM     16  C   UNL     1       1.029  13.150 136.497  0.00  0.00    +0.000 A 
ATOM     17  C   UNL     1       0.685  13.986 135.436  0.00  0.00    +0.000 A 
ATOM     18  C   UNL     1      -0.479  13.736 134.717  0.00  0.00    +0.000 A 
ATOM     19  C   UNL     1      -1.326  12.661 135.060  0.00  0.00    +0.000 A 
ATOM     20  C   UNL     1      -2.520  12.419 134.184  0.00  0.00    +0.000 C 
ENDBRANCH  11  14
ENDBRANCH   9  11
ENDBRANCH   3   7
BRANCH   1  22
ATOM     21  C   UNL     1      -5.038   6.485 132.075  0.00  0.00    +0.000 C 
ATOM     22  O   UNL     1      -4.335   7.398 131.274  0.00  0.00    +0.000 OA
ENDBRANCH   1  22
BRANCH   6  23
ATOM     23  C   UNL     1      -2.350   5.941 129.053  0.00  0.00    +0.000 C 
BRANCH  23  24
ATOM     24  C   UNL     1      -2.901   4.234 128.417  0.00  0.00    +0.000 A 
ATOM     25  C   UNL     1      -2.978   4.837 127.176  0.00  0.00    +0.000 A 
ATOM     26  N   UNL     1      -2.599   3.774 126.427  0.00  0.00    +0.000 N 
ATOM     27  C   UNL     1      -1.533   2.774 126.642  0.00  0.00    +0.000 C 
ATOM     28  C   UNL     1      -3.874   3.377 126.312  0.00  0.00    +0.000 A 
ATOM     29  C   UNL     1      -3.997   2.880 127.693  0.00  0.00    +0.000 A 
ATOM     30  C   UNL     1      -5.117   1.850 126.957  0.00  0.00    +0.000 A 
ATOM     31  C   UNL     1      -6.174   2.028 125.827  0.00  0.00    +0.000 A 
ATOM     32  C   UNL     1      -6.061   3.267 125.324  0.00  0.00    +0.000 A 
ATOM     33  C   UNL     1      -4.955   3.990 125.634  0.00  0.00    +0.000 A 
BRANCH  31  34
ATOM     34  N   UNL     1      -7.275   1.183 125.144  0.00  0.00    +0.000 N 
ATOM     35  C   UNL     1      -8.650   1.067 125.748  0.00  0.00    +0.000 C 
ATOM     36  O   UNL     1      -9.026   1.647 126.691  0.00  0.00    +0.000 OA
ATOM     37  H   UNL     1      -7.079   0.627 124.324  0.00  0.00    +0.000 HD
BRANCH  35  38
ATOM     38  O   UNL     1      -9.553   0.127 125.163  0.00  0.00    +0.000 OA
BRANCH  38  39
ATOM     39  C   UNL     1      -8.872  -1.148 124.726  0.00  0.00    +0.000 C 
ATOM     40  C   UNL     1      -9.116  -2.352 125.656  0.00  0.00    +0.000 C 
ATOM     41  C   UNL     1      -8.744  -3.601 124.842  0.00  0.00    +0.000 C 
ATOM     42  C   UNL     1      -9.018  -3.234 123.389  0.00  0.00    +0.000 C 
ATOM     43  C   UNL     1      -9.374  -1.731 123.386  0.00  0.00    +0.000 C 
ENDBRANCH  38  39
ENDBRANCH  35  38
ENDBRANCH  31  34
ENDBRANCH  23  24
ENDBRANCH   6  23
TORSDOF 9
ENDMDL
MODEL 8
REMARK VINA RESULT:      -9.4      4.599      5.804
REMARK  Name = Zafirlukast
REMARK  12 active torsions:
REMARK  status: ('A' for Active; 'I' for Inactive)
REMARK    1  A    between atoms: C_1  and  O_2
REMARK    2  A    between atoms: O_2  and  C_3
REMARK    3  A    between atoms: C_5  and  C_29
REMARK    4  A    between atoms: C_8  and  C_9
REMARK    5  A    between atoms: C_9  and  C_10
REMARK    6  A    between atoms: N_12  and  C_13
REMARK    7  A    between atoms: C_17  and  N_18
REMARK    8  A    between atoms: C_19  and  O_21
REMARK    9  A    between atoms: O_21  and  C_22
REMARK   10  A    between atoms: N_31  and  S_32
REMARK   11  A    between atoms: S_32  and  C_35
REMARK   12  A    between atoms: C_40  and  C_41
REMARK                            x       y       z     vdW  Elec       q    Type
REMARK                         _______ _______ _______ _____ _____    ______ ____
ROOT
ATOM      1  C   UNL     1      -7.673   0.236 130.595  0.00  0.00    +0.000 A 
ATOM      2  C   UNL     1      -7.788  -0.068 129.162  0.00  0.00    +0.000 A 
ATOM      3  C   UNL     1      -8.142   0.858 128.172  0.00  0.00    +0.000 A 
ATOM      4  C   UNL     1      -8.602   2.059 128.699  0.00  0.00    +0.000 A 
ATOM      5  C   UNL     1      -8.500   2.363 130.170  0.00  0.00    +0.000 A 
ATOM      6  C   UNL     1      -7.911   1.484 131.208  0.00  0.00    +0.000 A 
ENDROOT
BRANCH   3   7
ATOM      7  C   UNL     1      -7.876   0.503 126.700  0.00  0.00    +0.000 C 
ATOM      8  O   UNL     1      -6.727   0.594 126.279  0.00  0.00    +0.000 OA
ATOM      9  N   UNL     1      -8.955   0.179 125.820  0.00  0.00    +0.000 N 
ATOM     10  H   UNL     1      -9.902   0.022 126.130  0.00  0.00    +0.000 HD
BRANCH   9  11
ATOM     11  S   UNL     1      -8.658  -0.078 124.156  0.00  0.00    +0.000 S 
ATOM     12  O   UNL     1      -9.898  -0.461 123.513  0.00  0.00    +0.000 OA
ATOM     13  O   UNL     1      -7.889   1.055 123.693  0.00  0.00    +0.000 OA
BRANCH  11  14
ATOM     14  C   UNL     1      -7.595  -1.558 124.071  0.00  0.00    +0.000 A 
ATOM     15  C   UNL     1      -6.329  -1.446 123.469  0.00  0.00    +0.000 A 
ATOM     16  C   UNL     1      -5.511  -2.579 123.318  0.00  0.00    +0.000 A 
ATOM     17  C   UNL     1      -5.897  -3.805 123.855  0.00  0.00    +0.000 A 
ATOM     18  C   UNL     1      -7.111  -3.906 124.525  0.00  0.00    +0.000 A 
ATOM     19  C   UNL     1      -7.966  -2.792 124.651  0.00  0.00    +0.000 A 
ATOM     20  C   UNL     1      -9.220  -2.973 125.455  0.00  0.00    +0.000 C 
ENDBRANCH  11  14
ENDBRANCH   9  11
ENDBRANCH   3   7
BRANCH   1  22
ATOM     21  C   UNL     1      -7.673  -1.994 130.521  0.00  0.00    +0.000 C 
ATOM     22  O   UNL     1      -7.305  -0.875 131.285  0.00  0.00    +0.000 OA
ENDBRANCH   1  22
BRANCH   6  23
ATOM     23  C   UNL     1      -7.738   1.965 132.942  0.00  0.00    +0.000 C 
BRANCH  23  24
ATOM     24  C   UNL     1      -8.141   3.550 133.915  0.00  0.00    +0.000 A 
ATOM     25  C   UNL     1      -6.927   4.019 133.449  0.00  0.00    +0.000 A 
ATOM     26  N   UNL     1      -7.266   5.325 133.322  0.00  0.00    +0.000 N 
ATOM     27  C   UNL     1      -8.494   5.954 132.797  0.00  0.00    +0.000 C 
ATOM     28  C   UNL     1      -6.876   5.568 134.581  0.00  0.00    +0.000 A 
ATOM     29  C   UNL     1      -8.026   4.907 135.220  0.00  0.00    +0.000 A 
ATOM     30  C   UNL     1      -7.694   6.047 136.423  0.00  0.00    +0.000 A 
ATOM     31  C   UNL     1      -6.383   6.643 137.020  0.00  0.00    +0.000 A 
ATOM     32  C   UNL     1      -5.339   6.159 136.329  0.00  0.00    +0.000 A 
ATOM     33  C   UNL     1      -5.579   5.536 135.149  0.00  0.00    +0.000 A 
BRANCH  31  34
ATOM     34  N   UNL     1      -5.979   7.619 138.149  0.00  0.00    +0.000 N 
ATOM     35  C   UNL     1      -6.451   9.050 138.143  0.00  0.00    +0.000 C 
ATOM     36  O   UNL     1      -7.201   9.511 137.376  0.00  0.00    +0.000 OA
ATOM     37  H   UNL     1      -5.329   7.346 138.873  0.00  0.00    +0.000 HD
BRANCH  35  38
ATOM     38  O   UNL     1      -5.890   9.935 139.114  0.00  0.00    +0.000 OA
BRANCH  38  39
ATOM     39  C   UNL     1      -6.354  11.362 138.946  0.00  0.00    +0.000 C 
ATOM     40  C   UNL     1      -7.398  11.819 139.982  0.00  0.00    +0.000 C 
ATOM     41  C   UNL     1      -7.401  13.355 139.933  0.00  0.00    +0.000 C 
ATOM     42  C   UNL     1      -5.991  13.750 139.515  0.00  0.00    +0.000 C 
ATOM     43  C   UNL     1      -5.263  12.434 139.165  0.00  0.00    +0.000 C 
ENDBRANCH  38  39
ENDBRANCH  35  38
ENDBRANCH  31  34
ENDBRANCH  23  24
ENDBRANCH   6  23
TORSDOF 9
ENDMDL
MODEL 9
REMARK VINA RESULT:      -9.3      5.720      8.318
REMARK  Name = Zafirlukast
REMARK  12 active torsions:
REMARK  status: ('A' for Active; 'I' for Inactive)
REMARK    1  A    between atoms: C_1  and  O_2
REMARK    2  A    between atoms: O_2  and  C_3
REMARK    3  A    between atoms: C_5  and  C_29
REMARK    4  A    between atoms: C_8  and  C_9
REMARK    5  A    between atoms: C_9  and  C_10
REMARK    6  A    between atoms: N_12  and  C_13
REMARK    7  A    between atoms: C_17  and  N_18
REMARK    8  A    between atoms: C_19  and  O_21
REMARK    9  A    between atoms: O_21  and  C_22
REMARK   10  A    between atoms: N_31  and  S_32
REMARK   11  A    between atoms: S_32  and  C_35
REMARK   12  A    between atoms: C_40  and  C_41
REMARK                            x       y       z     vdW  Elec       q    Type
REMARK                         _______ _______ _______ _____ _____    ______ ____
ROOT
ATOM      1  C   UNL     1      -5.585   5.733 134.119  0.00  0.00    +0.000 A 
ATOM      2  C   UNL     1      -6.365   5.148 133.020  0.00  0.00    +0.000 A 
ATOM      3  C   UNL     1      -7.697   4.726 133.119  0.00  0.00    +0.000 A 
ATOM      4  C   UNL     1      -8.157   4.699 134.431  0.00  0.00    +0.000 A 
ATOM      5  C   UNL     1      -7.350   5.284 135.559  0.00  0.00    +0.000 A 
ATOM      6  C   UNL     1      -6.031   5.950 135.440  0.00  0.00    +0.000 A 
ENDROOT
BRANCH   3   7
ATOM      7  C   UNL     1      -8.490   4.473 131.826  0.00  0.00    +0.000 C 
ATOM      8  O   UNL     1      -8.368   3.384 131.275  0.00  0.00    +0.000 OA
ATOM      9  N   UNL     1      -9.263   5.516 131.228  0.00  0.00    +0.000 N 
ATOM     10  H   UNL     1      -9.452   6.400 131.676  0.00  0.00    +0.000 HD
BRANCH   9  11
ATOM     11  S   UNL     1     -10.026   5.261 129.719  0.00  0.00    +0.000 S 
ATOM     12  O   UNL     1      -9.018   5.260 128.680  0.00  0.00    +0.000 OA
ATOM     13  O   UNL     1     -10.927   4.145 129.895  0.00  0.00    +0.000 OA
BRANCH  11  14
ATOM     14  C   UNL     1     -11.026   6.757 129.418  0.00  0.00    +0.000 A 
ATOM     15  C   UNL     1     -11.012   7.331 128.135  0.00  0.00    +0.000 A 
ATOM     16  C   UNL     1     -11.709   8.525 127.883  0.00  0.00    +0.000 A 
ATOM     17  C   UNL     1     -12.510   9.097 128.869  0.00  0.00    +0.000 A 
ATOM     18  C   UNL     1     -12.597   8.489 130.117  0.00  0.00    +0.000 A 
ATOM     19  C   UNL     1     -11.870   7.314 130.404  0.00  0.00    +0.000 A 
ATOM     20  C   UNL     1     -12.083   6.685 131.749  0.00  0.00    +0.000 C 
ENDBRANCH  11  14
ENDBRANCH   9  11
ENDBRANCH   3   7
BRANCH   1  22
ATOM     21  C   UNL     1      -3.514   4.927 133.925  0.00  0.00    +0.000 C 
ATOM     22  O   UNL     1      -4.332   6.044 133.696  0.00  0.00    +0.000 OA
ENDBRANCH   1  22
BRANCH   6  23
ATOM     23  C   UNL     1      -5.171   6.714 136.834  0.00  0.00    +0.000 C 
BRANCH  23  24
ATOM     24  C   UNL     1      -5.530   8.222 137.938  0.00  0.00    +0.000 A 
ATOM     25  C   UNL     1      -6.565   7.466 138.455  0.00  0.00    +0.000 A 
ATOM     26  N   UNL     1      -6.517   7.927 139.727  0.00  0.00    +0.000 N 
ATOM     27  C   UNL     1      -5.364   8.209 140.607  0.00  0.00    +0.000 C 
ATOM     28  C   UNL     1      -7.382   8.904 139.426  0.00  0.00    +0.000 A 
ATOM     29  C   UNL     1      -6.423   9.718 138.661  0.00  0.00    +0.000 A 
ATOM     30  C   UNL     1      -7.425  10.965 139.209  0.00  0.00    +0.000 A 
ATOM     31  C   UNL     1      -8.962  11.107 139.417  0.00  0.00    +0.000 A 
ATOM     32  C   UNL     1      -9.541   9.923 139.163  0.00  0.00    +0.000 A 
ATOM     33  C   UNL     1      -8.751   8.825 139.073  0.00  0.00    +0.000 A 
BRANCH  31  34
ATOM     34  N   UNL     1      -9.964  12.208 139.838  0.00  0.00    +0.000 N 
ATOM     35  C   UNL     1      -9.788  12.964 141.129  0.00  0.00    +0.000 C 
ATOM     36  O   UNL     1      -8.877  12.862 141.853  0.00  0.00    +0.000 OA
ATOM     37  H   UNL     1     -10.799  12.392 139.301  0.00  0.00    +0.000 HD
BRANCH  35  38
ATOM     38  O   UNL     1     -10.847  13.832 141.537  0.00  0.00    +0.000 OA
BRANCH  38  39
ATOM     39  C   UNL     1     -11.334  14.728 140.425  0.00  0.00    +0.000 C 
ATOM     40  C   UNL     1     -12.361  15.789 140.865  0.00  0.00    +0.000 C 
ATOM     41  C   UNL     1     -12.387  16.845 139.749  0.00  0.00    +0.000 C 
ATOM     42  C   UNL     1     -10.992  16.822 139.136  0.00  0.00    +0.000 C 
ATOM     43  C   UNL     1     -10.254  15.637 139.796  0.00  0.00    +0.000 C 
ENDBRANCH  38  39
ENDBRANCH  35  38
ENDBRANCH  31  34
ENDBRANCH  23  24
ENDBRANCH   6  23
TORSDOF 9
ENDMDL
