MODEL 1
REMARK VINA RESULT:      -6.6      0.000      0.000
REMARK  Name = Zalcitabine
REMARK  3 active torsions:
REMARK  status: ('A' for Active; 'I' for Inactive)
REMARK    1  A    between atoms: N_6  and  C_9
REMARK    2  A    between atoms: C_12  and  C_13
REMARK    3  A    between atoms: C_13  and  O_14
REMARK                            x       y       z     vdW  Elec       q    Type
REMARK                         _______ _______ _______ _____ _____    ______ ____
ROOT
ATOM      1  N   UNL     1      -7.923   6.057 132.696  0.00  0.00    +0.000 N 
ATOM      2  C   UNL     1      -9.022   6.215 131.902  0.00  0.00    +0.000 A 
ATOM      3  N   UNL     1     -10.191   6.249 132.462  0.00  0.00    +0.000 NA
ATOM      4  C   UNL     1     -11.312   6.425 131.684  0.00  0.00    +0.000 A 
ATOM      5  O   UNL     1     -12.411   6.629 132.211  0.00  0.00    +0.000 OA
ATOM      6  N   UNL     1     -11.181   6.382 130.289  0.00  0.00    +0.000 N 
ATOM      7  C   UNL     1      -9.940   6.231 129.710  0.00  0.00    +0.000 A 
ATOM      8  C   UNL     1      -8.833   6.302 130.444  0.00  0.00    +0.000 A 
ATOM      9  H   UNL     1      -8.081   5.785 133.660  0.00  0.00    +0.000 HD
ATOM     10  H   UNL     1      -7.010   5.861 132.308  0.00  0.00    +0.000 HD
ENDROOT
BRANCH   6  11
ATOM     11  C   UNL     1     -12.375   6.672 129.482  0.00  0.00    +0.000 C 
ATOM     12  C   UNL     1     -12.801   8.142 129.518  0.00  0.00    +0.000 C 
ATOM     13  C   UNL     1     -12.113   8.742 128.323  0.00  0.00    +0.000 C 
ATOM     14  C   UNL     1     -12.129   7.599 127.327  0.00  0.00    +0.000 C 
ATOM     15  O   UNL     1     -12.140   6.373 128.083  0.00  0.00    +0.000 OA
BRANCH  14  16
ATOM     16  C   UNL     1     -10.924   7.652 126.386  0.00  0.00    +0.000 C 
BRANCH  16  17
ATOM     17  O   UNL     1     -10.353   6.364 126.190  0.00  0.00    +0.000 OA
ATOM     18  H   UNL     1     -10.938   5.712 126.616  0.00  0.00    +0.000 HD
ENDBRANCH  16  17
ENDBRANCH  14  16
ENDBRANCH   6  11
TORSDOF 3
ENDMDL
MODEL 2
REMARK VINA RESULT:      -6.2      7.892     10.034
REMARK  Name = Zalcitabine
REMARK  3 active torsions:
REMARK  status: ('A' for Active; 'I' for Inactive)
REMARK    1  A    between atoms: N_6  and  C_9
REMARK    2  A    between atoms: C_12  and  C_13
REMARK    3  A    between atoms: C_13  and  O_14
REMARK                            x       y       z     vdW  Elec       q    Type
REMARK                         _______ _______ _______ _____ _____    ______ ____
ROOT
ATOM      1  N   UNL     1      -5.517   5.413 118.644  0.00  0.00    +0.000 N 
ATOM      2  C   UNL     1      -6.120   4.731 119.661  0.00  0.00    +0.000 A 
ATOM      3  N   UNL     1      -7.401   4.536 119.600  0.00  0.00    +0.000 NA
ATOM      4  C   UNL     1      -8.029   3.836 120.605  0.00  0.00    +0.000 A 
ATOM      5  O   UNL     1      -9.211   3.495 120.482  0.00  0.00    +0.000 OA
ATOM      6  N   UNL     1      -7.302   3.508 121.758  0.00  0.00    +0.000 N 
ATOM      7  C   UNL     1      -5.965   3.825 121.853  0.00  0.00    +0.000 A 
ATOM      8  C   UNL     1      -5.297   4.281 120.796  0.00  0.00    +0.000 A 
ATOM      9  H   UNL     1      -6.119   5.896 117.986  0.00  0.00    +0.000 HD
ATOM     10  H   UNL     1      -4.561   5.734 118.714  0.00  0.00    +0.000 HD
ENDROOT
BRANCH   6  11
ATOM     11  C   UNL     1      -7.968   2.675 122.770  0.00  0.00    +0.000 C 
ATOM     12  C   UNL     1      -7.025   1.702 123.484  0.00  0.00    +0.000 C 
ATOM     13  C   UNL     1      -6.589   2.460 124.707  0.00  0.00    +0.000 C 
ATOM     14  C   UNL     1      -7.824   3.271 125.048  0.00  0.00    +0.000 C 
ATOM     15  O   UNL     1      -8.542   3.495 123.819  0.00  0.00    +0.000 OA
BRANCH  14  16
ATOM     16  C   UNL     1      -7.462   4.597 125.720  0.00  0.00    +0.000 C 
BRANCH  16  17
ATOM     17  O   UNL     1      -8.467   5.583 125.512  0.00  0.00    +0.000 OA
ATOM     18  H   UNL     1      -8.021   6.415 125.273  0.00  0.00    +0.000 HD
ENDBRANCH  16  17
ENDBRANCH  14  16
ENDBRANCH   6  11
TORSDOF 3
ENDMDL
MODEL 3
REMARK VINA RESULT:      -6.2      2.069      3.085
REMARK  Name = Zalcitabine
REMARK  3 active torsions:
REMARK  status: ('A' for Active; 'I' for Inactive)
REMARK    1  A    between atoms: N_6  and  C_9
REMARK    2  A    between atoms: C_12  and  C_13
REMARK    3  A    between atoms: C_13  and  O_14
REMARK                            x       y       z     vdW  Elec       q    Type
REMARK                         _______ _______ _______ _____ _____    ______ ____
ROOT
ATOM      1  N   UNL     1      -9.826   4.728 133.018  0.00  0.00    +0.000 N 
ATOM      2  C   UNL     1     -10.173   5.399 131.881  0.00  0.00    +0.000 A 
ATOM      3  N   UNL     1      -9.472   5.201 130.807  0.00  0.00    +0.000 NA
ATOM      4  C   UNL     1      -9.814   5.852 129.644  0.00  0.00    +0.000 A 
ATOM      5  O   UNL     1      -9.268   5.550 128.577  0.00  0.00    +0.000 OA
ATOM      6  N   UNL     1     -10.798   6.850 129.691  0.00  0.00    +0.000 N 
ATOM      7  C   UNL     1     -11.455   7.126 130.869  0.00  0.00    +0.000 A 
ATOM      8  C   UNL     1     -11.303   6.342 131.934  0.00  0.00    +0.000 A 
ATOM      9  H   UNL     1      -8.929   4.255 133.023  0.00  0.00    +0.000 HD
ATOM     10  H   UNL     1     -10.227   4.962 133.916  0.00  0.00    +0.000 HD
ENDROOT
BRANCH   6  11
ATOM     11  C   UNL     1     -11.214   7.458 128.419  0.00  0.00    +0.000 C 
ATOM     12  C   UNL     1     -12.549   6.926 127.889  0.00  0.00    +0.000 C 
ATOM     13  C   UNL     1     -13.560   7.896 128.435  0.00  0.00    +0.000 C 
ATOM     14  C   UNL     1     -12.798   9.206 128.426  0.00  0.00    +0.000 C 
ATOM     15  O   UNL     1     -11.400   8.888 128.566  0.00  0.00    +0.000 OA
BRANCH  14  16
ATOM     16  C   UNL     1     -13.263  10.139 129.545  0.00  0.00    +0.000 C 
BRANCH  16  17
ATOM     17  O   UNL     1     -13.228  11.503 129.142  0.00  0.00    +0.000 OA
ATOM     18  H   UNL     1     -14.126  11.865 129.242  0.00  0.00    +0.000 HD
ENDBRANCH  16  17
ENDBRANCH  14  16
ENDBRANCH   6  11
TORSDOF 3
ENDMDL
MODEL 4
REMARK VINA RESULT:      -6.1      1.747      2.080
REMARK  Name = Zalcitabine
REMARK  3 active torsions:
REMARK  status: ('A' for Active; 'I' for Inactive)
REMARK    1  A    between atoms: N_6  and  C_9
REMARK    2  A    between atoms: C_12  and  C_13
REMARK    3  A    between atoms: C_13  and  O_14
REMARK                            x       y       z     vdW  Elec       q    Type
REMARK                         _______ _______ _______ _____ _____    ______ ____
ROOT
ATOM      1  N   UNL     1      -6.347   5.252 130.988  0.00  0.00    +0.000 N 
ATOM      2  C   UNL     1      -7.691   5.416 130.813  0.00  0.00    +0.000 A 
ATOM      3  N   UNL     1      -8.388   4.408 130.388  0.00  0.00    +0.000 NA
ATOM      4  C   UNL     1      -9.748   4.544 130.222  0.00  0.00    +0.000 A 
ATOM      5  O   UNL     1     -10.448   3.555 129.982  0.00  0.00    +0.000 OA
ATOM      6  N   UNL     1     -10.320   5.818 130.342  0.00  0.00    +0.000 N 
ATOM      7  C   UNL     1      -9.542   6.902 130.685  0.00  0.00    +0.000 A 
ATOM      8  C   UNL     1      -8.283   6.738 131.081  0.00  0.00    +0.000 A 
ATOM      9  H   UNL     1      -5.927   4.415 130.600  0.00  0.00    +0.000 HD
ATOM     10  H   UNL     1      -5.734   6.037 131.158  0.00  0.00    +0.000 HD
ENDROOT
BRANCH   6  11
ATOM     11  C   UNL     1     -11.784   5.919 130.259  0.00  0.00    +0.000 C 
ATOM     12  C   UNL     1     -12.345   7.224 130.831  0.00  0.00    +0.000 C 
ATOM     13  C   UNL     1     -12.431   8.131 129.634  0.00  0.00    +0.000 C 
ATOM     14  C   UNL     1     -12.769   7.166 128.515  0.00  0.00    +0.000 C 
ATOM     15  O   UNL     1     -12.228   5.881 128.879  0.00  0.00    +0.000 OA
BRANCH  14  16
ATOM     16  C   UNL     1     -12.207   7.636 127.173  0.00  0.00    +0.000 C 
BRANCH  16  17
ATOM     17  O   UNL     1     -11.996   6.548 126.280  0.00  0.00    +0.000 OA
ATOM     18  H   UNL     1     -12.059   6.893 125.372  0.00  0.00    +0.000 HD
ENDBRANCH  16  17
ENDBRANCH  14  16
ENDBRANCH   6  11
TORSDOF 3
ENDMDL
MODEL 5
REMARK VINA RESULT:      -5.9      9.082     10.577
REMARK  Name = Zalcitabine
REMARK  3 active torsions:
REMARK  status: ('A' for Active; 'I' for Inactive)
REMARK    1  A    between atoms: N_6  and  C_9
REMARK    2  A    between atoms: C_12  and  C_13
REMARK    3  A    between atoms: C_13  and  O_14
REMARK                            x       y       z     vdW  Elec       q    Type
REMARK                         _______ _______ _______ _____ _____    ______ ____
ROOT
ATOM      1  N   UNL     1      -7.886   3.760 123.624  0.00  0.00    +0.000 N 
ATOM      2  C   UNL     1      -8.174   2.438 123.449  0.00  0.00    +0.000 A 
ATOM      3  N   UNL     1      -9.394   2.102 123.164  0.00  0.00    +0.000 NA
ATOM      4  C   UNL     1      -9.705   0.776 122.965  0.00  0.00    +0.000 A 
ATOM      5  O   UNL     1     -10.816   0.455 122.530  0.00  0.00    +0.000 OA
ATOM      6  N   UNL     1      -8.737  -0.196 123.253  0.00  0.00    +0.000 N 
ATOM      7  C   UNL     1      -7.476   0.175 123.665  0.00  0.00    +0.000 A 
ATOM      8  C   UNL     1      -7.096   1.450 123.627  0.00  0.00    +0.000 A 
ATOM      9  H   UNL     1      -8.668   4.399 123.710  0.00  0.00    +0.000 HD
ATOM     10  H   UNL     1      -7.000   4.065 124.003  0.00  0.00    +0.000 HD
ENDROOT
BRANCH   6  11
ATOM     11  C   UNL     1      -9.061  -1.596 122.938  0.00  0.00    +0.000 C 
ATOM     12  C   UNL     1      -7.829  -2.475 122.705  0.00  0.00    +0.000 C 
ATOM     13  C   UNL     1      -7.555  -3.070 124.059  0.00  0.00    +0.000 C 
ATOM     14  C   UNL     1      -8.948  -3.229 124.636  0.00  0.00    +0.000 C 
ATOM     15  O   UNL     1      -9.779  -2.219 124.032  0.00  0.00    +0.000 OA
BRANCH  14  16
ATOM     16  C   UNL     1      -8.947  -3.098 126.160  0.00  0.00    +0.000 C 
BRANCH  16  17
ATOM     17  O   UNL     1      -8.611  -1.779 126.574  0.00  0.00    +0.000 OA
ATOM     18  H   UNL     1      -9.405  -1.225 126.472  0.00  0.00    +0.000 HD
ENDBRANCH  16  17
ENDBRANCH  14  16
ENDBRANCH   6  11
TORSDOF 3
ENDMDL
MODEL 6
REMARK VINA RESULT:      -5.6      2.314      4.931
REMARK  Name = Zalcitabine
REMARK  3 active torsions:
REMARK  status: ('A' for Active; 'I' for Inactive)
REMARK    1  A    between atoms: N_6  and  C_9
REMARK    2  A    between atoms: C_12  and  C_13
REMARK    3  A    between atoms: C_13  and  O_14
REMARK                            x       y       z     vdW  Elec       q    Type
REMARK                         _______ _______ _______ _____ _____    ______ ____
ROOT
ATOM      1  N   UNL     1     -13.650   9.176 128.238  0.00  0.00    +0.000 N 
ATOM      2  C   UNL     1     -12.546   8.437 128.551  0.00  0.00    +0.000 A 
ATOM      3  N   UNL     1     -11.866   7.900 127.585  0.00  0.00    +0.000 NA
ATOM      4  C   UNL     1     -10.738   7.166 127.875  0.00  0.00    +0.000 A 
ATOM      5  O   UNL     1      -9.988   6.792 126.967  0.00  0.00    +0.000 OA
ATOM      6  N   UNL     1     -10.453   6.863 129.214  0.00  0.00    +0.000 N 
ATOM      7  C   UNL     1     -11.253   7.350 130.224  0.00  0.00    +0.000 A 
ATOM      8  C   UNL     1     -12.197   8.252 129.970  0.00  0.00    +0.000 A 
ATOM      9  H   UNL     1     -13.996   9.115 127.287  0.00  0.00    +0.000 HD
ATOM     10  H   UNL     1     -14.305   9.478 128.946  0.00  0.00    +0.000 HD
ENDROOT
BRANCH   6  11
ATOM     11  C   UNL     1      -9.192   6.165 129.502  0.00  0.00    +0.000 C 
ATOM     12  C   UNL     1      -8.696   6.357 130.938  0.00  0.00    +0.000 C 
ATOM     13  C   UNL     1      -9.267   5.175 131.673  0.00  0.00    +0.000 C 
ATOM     14  C   UNL     1      -9.239   4.087 130.617  0.00  0.00    +0.000 C 
ATOM     15  O   UNL     1      -9.344   4.733 129.334  0.00  0.00    +0.000 OA
BRANCH  14  16
ATOM     16  C   UNL     1     -10.371   3.077 130.816  0.00  0.00    +0.000 C 
BRANCH  16  17
ATOM     17  O   UNL     1     -11.598   3.548 130.271  0.00  0.00    +0.000 OA
ATOM     18  H   UNL     1     -11.385   4.215 129.594  0.00  0.00    +0.000 HD
ENDBRANCH  16  17
ENDBRANCH  14  16
ENDBRANCH   6  11
TORSDOF 3
ENDMDL
MODEL 7
REMARK VINA RESULT:      -5.6      2.314      5.489
REMARK  Name = Zalcitabine
REMARK  3 active torsions:
REMARK  status: ('A' for Active; 'I' for Inactive)
REMARK    1  A    between atoms: N_6  and  C_9
REMARK    2  A    between atoms: C_12  and  C_13
REMARK    3  A    between atoms: C_13  and  O_14
REMARK                            x       y       z     vdW  Elec       q    Type
REMARK                         _______ _______ _______ _____ _____    ______ ____
ROOT
ATOM      1  N   UNL     1     -13.468   7.216 129.065  0.00  0.00    +0.000 N 
ATOM      2  C   UNL     1     -12.230   6.805 129.466  0.00  0.00    +0.000 A 
ATOM      3  N   UNL     1     -11.366   6.465 128.560  0.00  0.00    +0.000 NA
ATOM      4  C   UNL     1     -10.105   6.064 128.940  0.00  0.00    +0.000 A 
ATOM      5  O   UNL     1      -9.222   5.900 128.091  0.00  0.00    +0.000 OA
ATOM      6  N   UNL     1      -9.841   5.860 130.302  0.00  0.00    +0.000 N 
ATOM      7  C   UNL     1     -10.810   6.120 131.246  0.00  0.00    +0.000 A 
ATOM      8  C   UNL     1     -11.942   6.733 130.909  0.00  0.00    +0.000 A 
ATOM      9  H   UNL     1     -13.719   7.057 128.095  0.00  0.00    +0.000 HD
ATOM     10  H   UNL     1     -14.227   7.335 129.722  0.00  0.00    +0.000 HD
ENDROOT
BRANCH   6  11
ATOM     11  C   UNL     1      -8.462   5.530 130.687  0.00  0.00    +0.000 C 
ATOM     12  C   UNL     1      -7.909   6.412 131.812  0.00  0.00    +0.000 C 
ATOM     13  C   UNL     1      -8.215   5.630 133.059  0.00  0.00    +0.000 C 
ATOM     14  C   UNL     1      -8.072   4.195 132.592  0.00  0.00    +0.000 C 
ATOM     15  O   UNL     1      -8.374   4.171 131.184  0.00  0.00    +0.000 OA
BRANCH  14  16
ATOM     16  C   UNL     1      -8.994   3.252 133.366  0.00  0.00    +0.000 C 
BRANCH  16  17
ATOM     17  O   UNL     1     -10.023   3.964 134.045  0.00  0.00    +0.000 OA
ATOM     18  H   UNL     1     -10.736   3.333 134.248  0.00  0.00    +0.000 HD
ENDBRANCH  16  17
ENDBRANCH  14  16
ENDBRANCH   6  11
TORSDOF 3
ENDMDL
MODEL 8
REMARK VINA RESULT:      -5.5      2.360      4.785
REMARK  Name = Zalcitabine
REMARK  3 active torsions:
REMARK  status: ('A' for Active; 'I' for Inactive)
REMARK    1  A    between atoms: N_6  and  C_9
REMARK    2  A    between atoms: C_12  and  C_13
REMARK    3  A    between atoms: C_13  and  O_14
REMARK                            x       y       z     vdW  Elec       q    Type
REMARK                         _______ _______ _______ _____ _____    ______ ____
ROOT
ATOM      1  N   UNL     1     -12.879   9.958 128.844  0.00  0.00    +0.000 N 
ATOM      2  C   UNL     1     -12.249   8.786 129.149  0.00  0.00    +0.000 A 
ATOM      3  N   UNL     1     -12.612   8.147 130.217  0.00  0.00    +0.000 NA
ATOM      4  C   UNL     1     -12.004   6.954 130.536  0.00  0.00    +0.000 A 
ATOM      5  O   UNL     1     -12.450   6.251 131.449  0.00  0.00    +0.000 OA
ATOM      6  N   UNL     1     -10.883   6.548 129.798  0.00  0.00    +0.000 N 
ATOM      7  C   UNL     1     -10.440   7.300 128.732  0.00  0.00    +0.000 A 
ATOM      8  C   UNL     1     -11.161   8.319 128.272  0.00  0.00    +0.000 A 
ATOM      9  H   UNL     1     -13.466  10.370 129.561  0.00  0.00    +0.000 HD
ATOM     10  H   UNL     1     -12.532  10.576 128.124  0.00  0.00    +0.000 HD
ENDROOT
BRANCH   6  11
ATOM     11  C   UNL     1     -10.315   5.225 130.093  0.00  0.00    +0.000 C 
ATOM     12  C   UNL     1      -8.948   4.983 129.446  0.00  0.00    +0.000 C 
ATOM     13  C   UNL     1      -7.971   5.401 130.511  0.00  0.00    +0.000 C 
ATOM     14  C   UNL     1      -8.688   5.006 131.787  0.00  0.00    +0.000 C 
ATOM     15  O   UNL     1     -10.102   5.059 131.517  0.00  0.00    +0.000 OA
BRANCH  14  16
ATOM     16  C   UNL     1      -8.318   5.926 132.951  0.00  0.00    +0.000 C 
BRANCH  16  17
ATOM     17  O   UNL     1      -9.472   6.387 133.644  0.00  0.00    +0.000 OA
ATOM     18  H   UNL     1     -10.110   6.704 132.980  0.00  0.00    +0.000 HD
ENDBRANCH  16  17
ENDBRANCH  14  16
ENDBRANCH   6  11
TORSDOF 3
ENDMDL
MODEL 9
REMARK VINA RESULT:      -5.5      2.236      5.124
REMARK  Name = Zalcitabine
REMARK  3 active torsions:
REMARK  status: ('A' for Active; 'I' for Inactive)
REMARK    1  A    between atoms: N_6  and  C_9
REMARK    2  A    between atoms: C_12  and  C_13
REMARK    3  A    between atoms: C_13  and  O_14
REMARK                            x       y       z     vdW  Elec       q    Type
REMARK                         _______ _______ _______ _____ _____    ______ ____
ROOT
ATOM      1  N   UNL     1     -13.835  10.606 128.717  0.00  0.00    +0.000 N 
ATOM      2  C   UNL     1     -13.184   9.416 128.864  0.00  0.00    +0.000 A 
ATOM      3  N   UNL     1     -12.999   8.677 127.813  0.00  0.00    +0.000 NA
ATOM      4  C   UNL     1     -12.330   7.481 127.934  0.00  0.00    +0.000 A 
ATOM      5  O   UNL     1     -11.997   6.849 126.925  0.00  0.00    +0.000 OA
ATOM      6  N   UNL     1     -12.024   7.002 129.216  0.00  0.00    +0.000 N 
ATOM      7  C   UNL     1     -12.331   7.751 130.330  0.00  0.00    +0.000 A 
ATOM      8  C   UNL     1     -12.755   9.006 130.212  0.00  0.00    +0.000 A 
ATOM      9  H   UNL     1     -14.307  10.772 127.835  0.00  0.00    +0.000 HD
ATOM     10  H   UNL     1     -14.149  11.142 129.514  0.00  0.00    +0.000 HD
ENDROOT
BRANCH   6  11
ATOM     11  C   UNL     1     -11.222   5.774 129.312  0.00  0.00    +0.000 C 
ATOM     12  C   UNL     1      -9.729   5.990 129.050  0.00  0.00    +0.000 C 
ATOM     13  C   UNL     1      -9.156   6.214 130.423  0.00  0.00    +0.000 C 
ATOM     14  C   UNL     1     -10.020   5.319 131.289  0.00  0.00    +0.000 C 
ATOM     15  O   UNL     1     -11.303   5.207 130.644  0.00  0.00    +0.000 OA
BRANCH  14  16
ATOM     16  C   UNL     1     -10.166   5.875 132.707  0.00  0.00    +0.000 C 
BRANCH  16  17
ATOM     17  O   UNL     1      -9.816   4.907 133.690  0.00  0.00    +0.000 OA
ATOM     18  H   UNL     1      -9.468   5.383 134.465  0.00  0.00    +0.000 HD
ENDBRANCH  16  17
ENDBRANCH  14  16
ENDBRANCH   6  11
TORSDOF 3
ENDMDL
