MODEL 1
REMARK VINA RESULT:      -7.1      0.000      0.000
REMARK  Name = Zaleplon
REMARK  6 active torsions:
REMARK  status: ('A' for Active; 'I' for Inactive)
REMARK    1  A    between atoms: C_1  and  C_2
REMARK    2  A    between atoms: C_2  and  N_3
REMARK    3  A    between atoms: N_3  and  C_7
REMARK    4  A    between atoms: C_4  and  C_5
REMARK    5  A    between atoms: C_11  and  C_13
REMARK    6  A    between atoms: C_18  and  C_22
REMARK                            x       y       z     vdW  Elec       q    Type
REMARK                         _______ _______ _______ _____ _____    ______ ____
ROOT
ATOM      1  C   UNL     1      -7.522  -2.706 128.906  0.00  0.00    +0.000 A 
ATOM      2  C   UNL     1      -8.565  -3.639 128.896  0.00  0.00    +0.000 A 
ATOM      3  C   UNL     1      -9.222  -3.974 127.713  0.00  0.00    +0.000 A 
ATOM      4  C   UNL     1      -8.982  -3.246 126.557  0.00  0.00    +0.000 A 
ATOM      5  C   UNL     1      -8.022  -2.229 126.565  0.00  0.00    +0.000 A 
ATOM      6  C   UNL     1      -7.301  -1.959 127.743  0.00  0.00    +0.000 A 
ENDROOT
BRANCH   5   7
ATOM      7  C   UNL     1      -7.689  -1.529 125.316  0.00  0.00    +0.000 A 
ATOM      8  C   UNL     1      -6.766  -2.052 124.490  0.00  0.00    +0.000 A 
ATOM      9  C   UNL     1      -6.498  -1.280 123.251  0.00  0.00    +0.000 A 
ATOM     10  N   UNL     1      -7.065  -0.165 122.903  0.00  0.00    +0.000 NA
ATOM     11  C   UNL     1      -7.996   0.335 123.774  0.00  0.00    +0.000 A 
ATOM     12  C   UNL     1      -8.782   1.464 123.741  0.00  0.00    +0.000 A 
ATOM     13  C   UNL     1      -9.530   1.439 124.922  0.00  0.00    +0.000 A 
ATOM     14  N   UNL     1      -9.260   0.373 125.676  0.00  0.00    +0.000 NA
ATOM     15  N   UNL     1      -8.317  -0.318 124.973  0.00  0.00    +0.000 N 
BRANCH  12  16
ATOM     16  C   UNL     1      -8.814   2.447 122.713  0.00  0.00    +0.000 C 
ATOM     17  N   UNL     1      -8.808   3.263 121.894  0.00  0.00    +0.000 NA
ENDBRANCH  12  16
ENDBRANCH   5   7
BRANCH   1  18
ATOM     18  N   UNL     1      -6.644  -2.596 130.038  0.00  0.00    +0.000 N 
ATOM     19  C   UNL     1      -6.875  -1.708 131.104  0.00  0.00    +0.000 C 
ATOM     20  C   UNL     1      -8.116  -0.859 131.166  0.00  0.00    +0.000 C 
ATOM     21  O   UNL     1      -6.126  -1.574 132.080  0.00  0.00    +0.000 OA
BRANCH  18  23
ATOM     22  C   UNL     1      -5.660  -4.842 130.744  0.00  0.00    +0.000 C 
ATOM     23  C   UNL     1      -5.469  -3.508 130.041  0.00  0.00    +0.000 C 
ENDBRANCH  18  23
ENDBRANCH   1  18
TORSDOF 4
ENDMDL
MODEL 2
REMARK VINA RESULT:      -6.9      3.322      7.355
REMARK  Name = Zaleplon
REMARK  6 active torsions:
REMARK  status: ('A' for Active; 'I' for Inactive)
REMARK    1  A    between atoms: C_1  and  C_2
REMARK    2  A    between atoms: C_2  and  N_3
REMARK    3  A    between atoms: N_3  and  C_7
REMARK    4  A    between atoms: C_4  and  C_5
REMARK    5  A    between atoms: C_11  and  C_13
REMARK    6  A    between atoms: C_18  and  C_22
REMARK                            x       y       z     vdW  Elec       q    Type
REMARK                         _______ _______ _______ _____ _____    ______ ____
ROOT
ATOM      1  C   UNL     1      -7.229   2.731 122.926  0.00  0.00    +0.000 A 
ATOM      2  C   UNL     1      -8.494   2.999 122.392  0.00  0.00    +0.000 A 
ATOM      3  C   UNL     1      -9.551   2.104 122.554  0.00  0.00    +0.000 A 
ATOM      4  C   UNL     1      -9.315   0.844 123.083  0.00  0.00    +0.000 A 
ATOM      5  C   UNL     1      -8.032   0.506 123.524  0.00  0.00    +0.000 A 
ATOM      6  C   UNL     1      -6.992   1.449 123.436  0.00  0.00    +0.000 A 
ENDROOT
BRANCH   5   7
ATOM      7  C   UNL     1      -7.803  -0.789 124.182  0.00  0.00    +0.000 A 
ATOM      8  C   UNL     1      -7.629  -1.891 123.432  0.00  0.00    +0.000 A 
ATOM      9  C   UNL     1      -7.400  -3.151 124.182  0.00  0.00    +0.000 A 
ATOM     10  N   UNL     1      -7.355  -3.280 125.473  0.00  0.00    +0.000 NA
ATOM     11  C   UNL     1      -7.541  -2.134 126.200  0.00  0.00    +0.000 A 
ATOM     12  C   UNL     1      -7.558  -1.888 127.553  0.00  0.00    +0.000 A 
ATOM     13  C   UNL     1      -7.802  -0.517 127.686  0.00  0.00    +0.000 A 
ATOM     14  N   UNL     1      -7.933   0.095 126.510  0.00  0.00    +0.000 NA
ATOM     15  N   UNL     1      -7.768  -0.894 125.585  0.00  0.00    +0.000 N 
BRANCH  12  16
ATOM     16  C   UNL     1      -7.370  -2.842 128.592  0.00  0.00    +0.000 C 
ATOM     17  N   UNL     1      -7.250  -3.635 129.425  0.00  0.00    +0.000 NA
ENDBRANCH  12  16
ENDBRANCH   5   7
BRANCH   1  18
ATOM     18  N   UNL     1      -6.243   3.771 123.040  0.00  0.00    +0.000 N 
ATOM     19  C   UNL     1      -5.447   4.193 121.960  0.00  0.00    +0.000 C 
ATOM     20  C   UNL     1      -5.632   3.629 120.577  0.00  0.00    +0.000 C 
ATOM     21  O   UNL     1      -4.574   5.067 122.032  0.00  0.00    +0.000 OA
BRANCH  18  23
ATOM     22  C   UNL     1      -4.983   3.919 125.253  0.00  0.00    +0.000 C 
ATOM     23  C   UNL     1      -6.124   4.411 124.376  0.00  0.00    +0.000 C 
ENDBRANCH  18  23
ENDBRANCH   1  18
TORSDOF 4
ENDMDL
MODEL 3
REMARK VINA RESULT:      -6.7      8.710     11.065
REMARK  Name = Zaleplon
REMARK  6 active torsions:
REMARK  status: ('A' for Active; 'I' for Inactive)
REMARK    1  A    between atoms: C_1  and  C_2
REMARK    2  A    between atoms: C_2  and  N_3
REMARK    3  A    between atoms: N_3  and  C_7
REMARK    4  A    between atoms: C_4  and  C_5
REMARK    5  A    between atoms: C_11  and  C_13
REMARK    6  A    between atoms: C_18  and  C_22
REMARK                            x       y       z     vdW  Elec       q    Type
REMARK                         _______ _______ _______ _____ _____    ______ ____
ROOT
ATOM      1  C   UNL     1     -10.434   6.663 130.013  0.00  0.00    +0.000 A 
ATOM      2  C   UNL     1     -10.991   5.386 129.889  0.00  0.00    +0.000 A 
ATOM      3  C   UNL     1     -10.488   4.305 130.611  0.00  0.00    +0.000 A 
ATOM      4  C   UNL     1      -9.304   4.438 131.321  0.00  0.00    +0.000 A 
ATOM      5  C   UNL     1      -8.662   5.680 131.372  0.00  0.00    +0.000 A 
ATOM      6  C   UNL     1      -9.227   6.785 130.711  0.00  0.00    +0.000 A 
ENDROOT
BRANCH   5   7
ATOM      7  C   UNL     1      -7.466   5.849 132.211  0.00  0.00    +0.000 A 
ATOM      8  C   UNL     1      -7.516   5.507 133.510  0.00  0.00    +0.000 A 
ATOM      9  C   UNL     1      -6.261   5.709 134.277  0.00  0.00    +0.000 A 
ATOM     10  N   UNL     1      -5.143   6.178 133.813  0.00  0.00    +0.000 NA
ATOM     11  C   UNL     1      -5.137   6.517 132.486  0.00  0.00    +0.000 A 
ATOM     12  C   UNL     1      -4.159   7.030 131.666  0.00  0.00    +0.000 A 
ATOM     13  C   UNL     1      -4.754   7.172 130.409  0.00  0.00    +0.000 A 
ATOM     14  N   UNL     1      -6.028   6.779 130.400  0.00  0.00    +0.000 NA
ATOM     15  N   UNL     1      -6.272   6.367 131.676  0.00  0.00    +0.000 N 
BRANCH  12  16
ATOM     16  C   UNL     1      -2.823   7.350 132.036  0.00  0.00    +0.000 C 
ATOM     17  N   UNL     1      -1.735   7.577 132.357  0.00  0.00    +0.000 NA
ENDBRANCH  12  16
ENDBRANCH   5   7
BRANCH   1  18
ATOM     18  N   UNL     1     -11.134   7.822 129.530  0.00  0.00    +0.000 N 
ATOM     19  C   UNL     1     -12.298   8.323 130.140  0.00  0.00    +0.000 C 
ATOM     20  C   UNL     1     -12.850   7.715 131.401  0.00  0.00    +0.000 C 
ATOM     21  O   UNL     1     -12.937   9.302 129.734  0.00  0.00    +0.000 OA
BRANCH  18  23
ATOM     22  C   UNL     1     -10.949   7.948 126.988  0.00  0.00    +0.000 C 
ATOM     23  C   UNL     1     -10.538   8.495 128.346  0.00  0.00    +0.000 C 
ENDBRANCH  18  23
ENDBRANCH   1  18
TORSDOF 4
ENDMDL
MODEL 4
REMARK VINA RESULT:      -6.6      2.653      7.762
REMARK  Name = Zaleplon
REMARK  6 active torsions:
REMARK  status: ('A' for Active; 'I' for Inactive)
REMARK    1  A    between atoms: C_1  and  C_2
REMARK    2  A    between atoms: C_2  and  N_3
REMARK    3  A    between atoms: N_3  and  C_7
REMARK    4  A    between atoms: C_4  and  C_5
REMARK    5  A    between atoms: C_11  and  C_13
REMARK    6  A    between atoms: C_18  and  C_22
REMARK                            x       y       z     vdW  Elec       q    Type
REMARK                         _______ _______ _______ _____ _____    ______ ____
ROOT
ATOM      1  C   UNL     1      -7.472  -2.173 126.385  0.00  0.00    +0.000 A 
ATOM      2  C   UNL     1      -8.456  -3.113 126.061  0.00  0.00    +0.000 A 
ATOM      3  C   UNL     1      -9.172  -3.780 127.054  0.00  0.00    +0.000 A 
ATOM      4  C   UNL     1      -8.788  -3.663 128.382  0.00  0.00    +0.000 A 
ATOM      5  C   UNL     1      -7.731  -2.813 128.726  0.00  0.00    +0.000 A 
ATOM      6  C   UNL     1      -7.073  -2.077 127.723  0.00  0.00    +0.000 A 
ENDROOT
BRANCH   5   7
ATOM      7  C   UNL     1      -7.393  -2.604 130.141  0.00  0.00    +0.000 A 
ATOM      8  C   UNL     1      -7.887  -1.535 130.789  0.00  0.00    +0.000 A 
ATOM      9  C   UNL     1      -7.496  -1.409 132.215  0.00  0.00    +0.000 A 
ATOM     10  N   UNL     1      -6.733  -2.223 132.878  0.00  0.00    +0.000 NA
ATOM     11  C   UNL     1      -6.247  -3.297 132.180  0.00  0.00    +0.000 A 
ATOM     12  C   UNL     1      -5.432  -4.344 132.541  0.00  0.00    +0.000 A 
ATOM     13  C   UNL     1      -5.282  -5.123 131.388  0.00  0.00    +0.000 A 
ATOM     14  N   UNL     1      -5.952  -4.628 130.348  0.00  0.00    +0.000 NA
ATOM     15  N   UNL     1      -6.556  -3.504 130.827  0.00  0.00    +0.000 N 
BRANCH  12  16
ATOM     16  C   UNL     1      -4.860  -4.572 133.823  0.00  0.00    +0.000 C 
ATOM     17  N   UNL     1      -4.385  -4.720 134.867  0.00  0.00    +0.000 NA
ENDBRANCH  12  16
ENDBRANCH   5   7
BRANCH   1  18
ATOM     18  N   UNL     1      -6.966  -1.265 125.392  0.00  0.00    +0.000 N 
ATOM     19  C   UNL     1      -7.654  -0.105 124.992  0.00  0.00    +0.000 C 
ATOM     20  C   UNL     1      -8.946   0.307 125.644  0.00  0.00    +0.000 C 
ATOM     21  O   UNL     1      -7.257   0.681 124.124  0.00  0.00    +0.000 OA
BRANCH  18  23
ATOM     22  C   UNL     1      -5.649  -2.538 123.614  0.00  0.00    +0.000 C 
ATOM     23  C   UNL     1      -5.638  -1.606 124.816  0.00  0.00    +0.000 C 
ENDBRANCH  18  23
ENDBRANCH   1  18
TORSDOF 4
ENDMDL
MODEL 5
REMARK VINA RESULT:      -6.6      3.031      7.408
REMARK  Name = Zaleplon
REMARK  6 active torsions:
REMARK  status: ('A' for Active; 'I' for Inactive)
REMARK    1  A    between atoms: C_1  and  C_2
REMARK    2  A    between atoms: C_2  and  N_3
REMARK    3  A    between atoms: N_3  and  C_7
REMARK    4  A    between atoms: C_4  and  C_5
REMARK    5  A    between atoms: C_11  and  C_13
REMARK    6  A    between atoms: C_18  and  C_22
REMARK                            x       y       z     vdW  Elec       q    Type
REMARK                         _______ _______ _______ _____ _____    ______ ____
ROOT
ATOM      1  C   UNL     1      -7.455  -2.544 125.604  0.00  0.00    +0.000 A 
ATOM      2  C   UNL     1      -8.448  -3.510 125.795  0.00  0.00    +0.000 A 
ATOM      3  C   UNL     1      -8.965  -3.773 127.063  0.00  0.00    +0.000 A 
ATOM      4  C   UNL     1      -8.366  -3.217 128.184  0.00  0.00    +0.000 A 
ATOM      5  C   UNL     1      -7.295  -2.330 128.030  0.00  0.00    +0.000 A 
ATOM      6  C   UNL     1      -6.839  -2.004 126.739  0.00  0.00    +0.000 A 
ENDROOT
BRANCH   5   7
ATOM      7  C   UNL     1      -6.730  -1.657 129.208  0.00  0.00    +0.000 A 
ATOM      8  C   UNL     1      -7.379  -0.609 129.746  0.00  0.00    +0.000 A 
ATOM      9  C   UNL     1      -6.736   0.005 130.934  0.00  0.00    +0.000 A 
ATOM     10  N   UNL     1      -5.624  -0.373 131.488  0.00  0.00    +0.000 NA
ATOM     11  C   UNL     1      -4.994  -1.440 130.907  0.00  0.00    +0.000 A 
ATOM     12  C   UNL     1      -3.828  -2.104 131.210  0.00  0.00    +0.000 A 
ATOM     13  C   UNL     1      -3.703  -3.110 130.246  0.00  0.00    +0.000 A 
ATOM     14  N   UNL     1      -4.712  -3.111 129.376  0.00  0.00    +0.000 NA
ATOM     15  N   UNL     1      -5.518  -2.088 129.778  0.00  0.00    +0.000 N 
BRANCH  12  16
ATOM     16  C   UNL     1      -2.939  -1.814 132.282  0.00  0.00    +0.000 C 
ATOM     17  N   UNL     1      -2.192  -1.606 133.141  0.00  0.00    +0.000 NA
ENDBRANCH  12  16
ENDBRANCH   5   7
BRANCH   1  18
ATOM     18  N   UNL     1      -7.153  -2.049 124.288  0.00  0.00    +0.000 N 
ATOM     19  C   UNL     1      -6.106  -2.559 123.499  0.00  0.00    +0.000 C 
ATOM     20  C   UNL     1      -5.271  -3.725 123.958  0.00  0.00    +0.000 C 
ATOM     21  O   UNL     1      -5.807  -2.139 122.375  0.00  0.00    +0.000 OA
BRANCH  18  23
ATOM     22  C   UNL     1      -9.197  -1.413 122.901  0.00  0.00    +0.000 C 
ATOM     23  C   UNL     1      -8.040  -0.969 123.781  0.00  0.00    +0.000 C 
ENDBRANCH  18  23
ENDBRANCH   1  18
TORSDOF 4
ENDMDL
MODEL 6
REMARK VINA RESULT:      -6.5      2.979      6.808
REMARK  Name = Zaleplon
REMARK  6 active torsions:
REMARK  status: ('A' for Active; 'I' for Inactive)
REMARK    1  A    between atoms: C_1  and  C_2
REMARK    2  A    between atoms: C_2  and  N_3
REMARK    3  A    between atoms: N_3  and  C_7
REMARK    4  A    between atoms: C_4  and  C_5
REMARK    5  A    between atoms: C_11  and  C_13
REMARK    6  A    between atoms: C_18  and  C_22
REMARK                            x       y       z     vdW  Elec       q    Type
REMARK                         _______ _______ _______ _____ _____    ______ ____
ROOT
ATOM      1  C   UNL     1      -8.001  -2.461 126.437  0.00  0.00    +0.000 A 
ATOM      2  C   UNL     1      -8.969  -3.282 127.026  0.00  0.00    +0.000 A 
ATOM      3  C   UNL     1      -8.832  -3.734 128.338  0.00  0.00    +0.000 A 
ATOM      4  C   UNL     1      -7.639  -3.534 129.017  0.00  0.00    +0.000 A 
ATOM      5  C   UNL     1      -6.608  -2.811 128.410  0.00  0.00    +0.000 A 
ATOM      6  C   UNL     1      -6.791  -2.283 127.118  0.00  0.00    +0.000 A 
ENDROOT
BRANCH   5   7
ATOM      7  C   UNL     1      -5.385  -2.506 129.167  0.00  0.00    +0.000 A 
ATOM      8  C   UNL     1      -4.269  -3.218 128.935  0.00  0.00    +0.000 A 
ATOM      9  C   UNL     1      -3.083  -2.838 129.743  0.00  0.00    +0.000 A 
ATOM     10  N   UNL     1      -3.030  -1.897 130.635  0.00  0.00    +0.000 NA
ATOM     11  C   UNL     1      -4.190  -1.198 130.843  0.00  0.00    +0.000 A 
ATOM     12  C   UNL     1      -4.506  -0.157 131.685  0.00  0.00    +0.000 A 
ATOM     13  C   UNL     1      -5.855   0.126 131.448  0.00  0.00    +0.000 A 
ATOM     14  N   UNL     1      -6.387  -0.666 130.518  0.00  0.00    +0.000 NA
ATOM     15  N   UNL     1      -5.366  -1.483 130.133  0.00  0.00    +0.000 N 
BRANCH  12  16
ATOM     16  C   UNL     1      -3.632   0.485 132.607  0.00  0.00    +0.000 C 
ATOM     17  N   UNL     1      -2.953   1.018 133.377  0.00  0.00    +0.000 NA
ENDBRANCH  12  16
ENDBRANCH   5   7
BRANCH   1  18
ATOM     18  N   UNL     1      -8.284  -1.742 125.225  0.00  0.00    +0.000 N 
ATOM     19  C   UNL     1      -8.679  -0.392 125.209  0.00  0.00    +0.000 C 
ATOM     20  C   UNL     1      -8.756   0.420 126.474  0.00  0.00    +0.000 C 
ATOM     21  O   UNL     1      -8.953   0.246 124.185  0.00  0.00    +0.000 OA
BRANCH  18  23
ATOM     22  C   UNL     1      -9.356  -3.170 123.403  0.00  0.00    +0.000 C 
ATOM     23  C   UNL     1      -8.108  -2.505 123.960  0.00  0.00    +0.000 C 
ENDBRANCH  18  23
ENDBRANCH   1  18
TORSDOF 4
ENDMDL
MODEL 7
REMARK VINA RESULT:      -6.5      7.936      9.705
REMARK  Name = Zaleplon
REMARK  6 active torsions:
REMARK  status: ('A' for Active; 'I' for Inactive)
REMARK    1  A    between atoms: C_1  and  C_2
REMARK    2  A    between atoms: C_2  and  N_3
REMARK    3  A    between atoms: N_3  and  C_7
REMARK    4  A    between atoms: C_4  and  C_5
REMARK    5  A    between atoms: C_11  and  C_13
REMARK    6  A    between atoms: C_18  and  C_22
REMARK                            x       y       z     vdW  Elec       q    Type
REMARK                         _______ _______ _______ _____ _____    ______ ____
ROOT
ATOM      1  C   UNL     1      -5.551   6.096 131.070  0.00  0.00    +0.000 A 
ATOM      2  C   UNL     1      -5.300   4.745 130.807  0.00  0.00    +0.000 A 
ATOM      3  C   UNL     1      -6.337   3.865 130.496  0.00  0.00    +0.000 A 
ATOM      4  C   UNL     1      -7.655   4.274 130.632  0.00  0.00    +0.000 A 
ATOM      5  C   UNL     1      -7.938   5.592 131.003  0.00  0.00    +0.000 A 
ATOM      6  C   UNL     1      -6.883   6.496 131.228  0.00  0.00    +0.000 A 
ENDROOT
BRANCH   5   7
ATOM      7  C   UNL     1      -9.332   6.057 131.043  0.00  0.00    +0.000 A 
ATOM      8  C   UNL     1     -10.005   6.031 132.206  0.00  0.00    +0.000 A 
ATOM      9  C   UNL     1     -11.405   6.522 132.152  0.00  0.00    +0.000 A 
ATOM     10  N   UNL     1     -12.023   6.966 131.100  0.00  0.00    +0.000 NA
ATOM     11  C   UNL     1     -11.303   6.973 129.935  0.00  0.00    +0.000 A 
ATOM     12  C   UNL     1     -11.617   7.364 128.654  0.00  0.00    +0.000 A 
ATOM     13  C   UNL     1     -10.468   7.125 127.893  0.00  0.00    +0.000 A 
ATOM     14  N   UNL     1      -9.472   6.617 128.617  0.00  0.00    +0.000 NA
ATOM     15  N   UNL     1      -9.974   6.525 129.881  0.00  0.00    +0.000 N 
BRANCH  12  16
ATOM     16  C   UNL     1     -12.859   7.895 128.209  0.00  0.00    +0.000 C 
ATOM     17  N   UNL     1     -13.887   8.293 127.858  0.00  0.00    +0.000 NA
ENDBRANCH  12  16
ENDBRANCH   5   7
BRANCH   1  18
ATOM     18  N   UNL     1      -4.481   7.056 131.073  0.00  0.00    +0.000 N 
ATOM     19  C   UNL     1      -3.682   7.309 132.202  0.00  0.00    +0.000 C 
ATOM     20  C   UNL     1      -3.848   6.524 133.476  0.00  0.00    +0.000 C 
ATOM     21  O   UNL     1      -2.771   8.144 132.244  0.00  0.00    +0.000 OA
BRANCH  18  23
ATOM     22  C   UNL     1      -3.192   7.144 128.873  0.00  0.00    +0.000 C 
ATOM     23  C   UNL     1      -4.238   7.762 129.788  0.00  0.00    +0.000 C 
ENDBRANCH  18  23
ENDBRANCH   1  18
TORSDOF 4
ENDMDL
MODEL 8
REMARK VINA RESULT:      -6.4      2.675      7.119
REMARK  Name = Zaleplon
REMARK  6 active torsions:
REMARK  status: ('A' for Active; 'I' for Inactive)
REMARK    1  A    between atoms: C_1  and  C_2
REMARK    2  A    between atoms: C_2  and  N_3
REMARK    3  A    between atoms: N_3  and  C_7
REMARK    4  A    between atoms: C_4  and  C_5
REMARK    5  A    between atoms: C_11  and  C_13
REMARK    6  A    between atoms: C_18  and  C_22
REMARK                            x       y       z     vdW  Elec       q    Type
REMARK                         _______ _______ _______ _____ _____    ______ ____
ROOT
ATOM      1  C   UNL     1      -7.393  -2.333 126.410  0.00  0.00    +0.000 A 
ATOM      2  C   UNL     1      -8.585  -3.038 126.209  0.00  0.00    +0.000 A 
ATOM      3  C   UNL     1      -9.227  -3.686 127.263  0.00  0.00    +0.000 A 
ATOM      4  C   UNL     1      -8.594  -3.805 128.491  0.00  0.00    +0.000 A 
ATOM      5  C   UNL     1      -7.347  -3.203 128.690  0.00  0.00    +0.000 A 
ATOM      6  C   UNL     1      -6.748  -2.476 127.645  0.00  0.00    +0.000 A 
ENDROOT
BRANCH   5   7
ATOM      7  C   UNL     1      -6.724  -3.236 130.021  0.00  0.00    +0.000 A 
ATOM      8  C   UNL     1      -5.929  -4.267 130.354  0.00  0.00    +0.000 A 
ATOM      9  C   UNL     1      -5.341  -4.214 131.716  0.00  0.00    +0.000 A 
ATOM     10  N   UNL     1      -5.523  -3.276 132.595  0.00  0.00    +0.000 NA
ATOM     11  C   UNL     1      -6.342  -2.246 132.217  0.00  0.00    +0.000 A 
ATOM     12  C   UNL     1      -6.755  -1.105 132.865  0.00  0.00    +0.000 A 
ATOM     13  C   UNL     1      -7.595  -0.441 131.966  0.00  0.00    +0.000 A 
ATOM     14  N   UNL     1      -7.724  -1.093 130.811  0.00  0.00    +0.000 NA
ATOM     15  N   UNL     1      -6.949  -2.206 130.953  0.00  0.00    +0.000 N 
BRANCH  12  16
ATOM     16  C   UNL     1      -6.398  -0.699 134.181  0.00  0.00    +0.000 C 
ATOM     17  N   UNL     1      -6.074  -0.391 135.248  0.00  0.00    +0.000 NA
ENDBRANCH  12  16
ENDBRANCH   5   7
BRANCH   1  18
ATOM     18  N   UNL     1      -6.906  -1.412 125.420  0.00  0.00    +0.000 N 
ATOM     19  C   UNL     1      -7.551  -0.199 125.119  0.00  0.00    +0.000 C 
ATOM     20  C   UNL     1      -8.767   0.256 125.880  0.00  0.00    +0.000 C 
ATOM     21  O   UNL     1      -7.171   0.602 124.256  0.00  0.00    +0.000 OA
BRANCH  18  23
ATOM     22  C   UNL     1      -5.659  -3.143 124.020  0.00  0.00    +0.000 C 
ATOM     23  C   UNL     1      -5.645  -1.801 124.734  0.00  0.00    +0.000 C 
ENDBRANCH  18  23
ENDBRANCH   1  18
TORSDOF 4
ENDMDL
MODEL 9
REMARK VINA RESULT:      -6.2      2.662      4.106
REMARK  Name = Zaleplon
REMARK  6 active torsions:
REMARK  status: ('A' for Active; 'I' for Inactive)
REMARK    1  A    between atoms: C_1  and  C_2
REMARK    2  A    between atoms: C_2  and  N_3
REMARK    3  A    between atoms: N_3  and  C_7
REMARK    4  A    between atoms: C_4  and  C_5
REMARK    5  A    between atoms: C_11  and  C_13
REMARK    6  A    between atoms: C_18  and  C_22
REMARK                            x       y       z     vdW  Elec       q    Type
REMARK                         _______ _______ _______ _____ _____    ______ ____
ROOT
ATOM      1  C   UNL     1      -5.831  -2.798 131.618  0.00  0.00    +0.000 A 
ATOM      2  C   UNL     1      -6.566  -1.832 132.313  0.00  0.00    +0.000 A 
ATOM      3  C   UNL     1      -7.687  -1.230 131.743  0.00  0.00    +0.000 A 
ATOM      4  C   UNL     1      -7.980  -1.440 130.404  0.00  0.00    +0.000 A 
ATOM      5  C   UNL     1      -7.193  -2.318 129.651  0.00  0.00    +0.000 A 
ATOM      6  C   UNL     1      -6.117  -2.988 130.261  0.00  0.00    +0.000 A 
ENDROOT
BRANCH   5   7
ATOM      7  C   UNL     1      -7.565  -2.625 128.263  0.00  0.00    +0.000 A 
ATOM      8  C   UNL     1      -8.609  -3.438 128.022  0.00  0.00    +0.000 A 
ATOM      9  C   UNL     1      -8.914  -3.688 126.591  0.00  0.00    +0.000 A 
ATOM     10  N   UNL     1      -8.274  -3.200 125.572  0.00  0.00    +0.000 NA
ATOM     11  C   UNL     1      -7.216  -2.379 125.862  0.00  0.00    +0.000 A 
ATOM     12  C   UNL     1      -6.329  -1.696 125.063  0.00  0.00    +0.000 A 
ATOM     13  C   UNL     1      -5.464  -1.032 125.939  0.00  0.00    +0.000 A 
ATOM     14  N   UNL     1      -5.761  -1.258 127.218  0.00  0.00    +0.000 NA
ATOM     15  N   UNL     1      -6.845  -2.084 127.182  0.00  0.00    +0.000 N 
BRANCH  12  16
ATOM     16  C   UNL     1      -6.304  -1.681 123.640  0.00  0.00    +0.000 C 
ATOM     17  N   UNL     1      -6.323  -1.676 122.484  0.00  0.00    +0.000 NA
ENDBRANCH  12  16
ENDBRANCH   5   7
BRANCH   1  18
ATOM     18  N   UNL     1      -4.888  -3.639 132.304  0.00  0.00    +0.000 N 
ATOM     19  C   UNL     1      -3.601  -3.206 132.672  0.00  0.00    +0.000 C 
ATOM     20  C   UNL     1      -3.150  -1.790 132.435  0.00  0.00    +0.000 C 
ATOM     21  O   UNL     1      -2.760  -3.912 133.240  0.00  0.00    +0.000 OA
BRANCH  18  23
ATOM     22  C   UNL     1      -6.053  -5.167 133.983  0.00  0.00    +0.000 C 
ATOM     23  C   UNL     1      -5.361  -5.009 132.639  0.00  0.00    +0.000 C 
ENDBRANCH  18  23
ENDBRANCH   1  18
TORSDOF 4
ENDMDL
