MODEL 1
REMARK VINA RESULT:      -6.1      0.000      0.000
REMARK  Name = Zanamivir
REMARK  11 active torsions:
REMARK  status: ('A' for Active; 'I' for Inactive)
REMARK    1  A    between atoms: C_2  and  C_19
REMARK    2  A    between atoms: C_4  and  C_16
REMARK    3  A    between atoms: C_6  and  N_7
REMARK    4  A    between atoms: C_11  and  N_12
REMARK    5  A    between atoms: C_13  and  C_14
REMARK    6  A    between atoms: C_16  and  O_17
REMARK    7  A    between atoms: C_19  and  O_20
REMARK    8  A    between atoms: C_19  and  C_21
REMARK    9  A    between atoms: C_21  and  O_22
REMARK   10  A    between atoms: C_21  and  C_23
REMARK   11  A    between atoms: C_23  and  O_24
REMARK                            x       y       z     vdW  Elec       q    Type
REMARK                         _______ _______ _______ _____ _____    ______ ____
ROOT
ATOM      1  C   UNL     1      -9.227   5.116 128.827  0.00  0.00    +0.000 C 
ATOM      2  O   UNL     1      -9.555   6.474 128.487  0.00  0.00    +0.000 OA
ATOM      3  C   UNL     1     -10.369   7.147 129.415  0.00  0.00    +0.000 C 
ATOM      4  C   UNL     1     -10.462   6.797 130.715  0.00  0.00    +0.000 C 
ATOM      5  C   UNL     1      -9.723   5.673 131.336  0.00  0.00    +0.000 C 
ATOM      6  C   UNL     1      -8.827   5.051 130.278  0.00  0.00    +0.000 C 
ENDROOT
BRANCH   5   7
ATOM      7  N   UNL     1      -8.940   6.121 132.516  0.00  0.00    +0.000 NA
ATOM      8  C   UNL     1      -8.944   5.462 133.624  0.00  0.00    +0.000 C 
ATOM      9  N   UNL     1      -9.651   4.373 133.969  0.00  0.00    +0.000 N 
ATOM     10  N   UNL     1      -8.190   5.835 134.673  0.00  0.00    +0.000 N 
ATOM     11  H   UNL     1     -10.358   4.038 133.340  0.00  0.00    +0.000 HD
ATOM     12  H   UNL     1      -9.441   3.755 134.741  0.00  0.00    +0.000 HD
ATOM     13  H   UNL     1      -7.778   6.756 134.658  0.00  0.00    +0.000 HD
ATOM     14  H   UNL     1      -8.265   5.370 135.567  0.00  0.00    +0.000 HD
ENDBRANCH   5   7
BRANCH   6  15
ATOM     15  N   UNL     1      -8.688   3.688 130.653  0.00  0.00    +0.000 N 
ATOM     16  C   UNL     1      -7.627   2.973 131.142  0.00  0.00    +0.000 C 
ATOM     17  C   UNL     1      -6.408   3.649 131.663  0.00  0.00    +0.000 C 
ATOM     18  O   UNL     1      -7.746   1.752 131.192  0.00  0.00    +0.000 OA
ATOM     19  H   UNL     1      -9.568   3.224 130.416  0.00  0.00    +0.000 HD
ENDBRANCH   6  15
BRANCH   3  20
ATOM     20  C   UNL     1     -11.137   8.315 128.853  0.00  0.00    +0.000 C 
ATOM     21  O   UNL     1     -12.087   8.797 129.418  0.00  0.00    +0.000 OA
BRANCH  20  22
ATOM     22  O   UNL     1     -10.686   8.814 127.675  0.00  0.00    +0.000 OA
ATOM     23  H   UNL     1     -11.321   9.253 127.093  0.00  0.00    +0.000 HD
ENDBRANCH  20  22
ENDBRANCH   3  20
BRANCH   1  24
ATOM     24  C   UNL     1      -8.158   4.394 127.893  0.00  0.00    +0.000 C 
BRANCH  24  25
ATOM     25  O   UNL     1      -8.467   2.987 127.902  0.00  0.00    +0.000 OA
ATOM     26  H   UNL     1      -8.890   2.781 127.049  0.00  0.00    +0.000 HD
ENDBRANCH  24  25
BRANCH  24  27
ATOM     27  C   UNL     1      -7.903   4.798 126.358  0.00  0.00    +0.000 C 
BRANCH  27  28
ATOM     28  O   UNL     1      -8.971   5.695 125.987  0.00  0.00    +0.000 OA
ATOM     29  H   UNL     1      -8.763   6.554 126.396  0.00  0.00    +0.000 HD
ENDBRANCH  27  28
BRANCH  27  30
ATOM     30  C   UNL     1      -7.878   3.794 125.166  0.00  0.00    +0.000 C 
BRANCH  30  31
ATOM     31  O   UNL     1      -9.207   3.288 124.883  0.00  0.00    +0.000 OA
ATOM     32  H   UNL     1      -9.858   3.983 125.143  0.00  0.00    +0.000 HD
ENDBRANCH  30  31
ENDBRANCH  27  30
ENDBRANCH  24  27
ENDBRANCH   1  24
TORSDOF 10
ENDMDL
MODEL 2
REMARK VINA RESULT:      -5.7      2.238      4.891
REMARK  Name = Zanamivir
REMARK  11 active torsions:
REMARK  status: ('A' for Active; 'I' for Inactive)
REMARK    1  A    between atoms: C_2  and  C_19
REMARK    2  A    between atoms: C_4  and  C_16
REMARK    3  A    between atoms: C_6  and  N_7
REMARK    4  A    between atoms: C_11  and  N_12
REMARK    5  A    between atoms: C_13  and  C_14
REMARK    6  A    between atoms: C_16  and  O_17
REMARK    7  A    between atoms: C_19  and  O_20
REMARK    8  A    between atoms: C_19  and  C_21
REMARK    9  A    between atoms: C_21  and  O_22
REMARK   10  A    between atoms: C_21  and  C_23
REMARK   11  A    between atoms: C_23  and  O_24
REMARK                            x       y       z     vdW  Elec       q    Type
REMARK                         _______ _______ _______ _____ _____    ______ ____
ROOT
ATOM      1  C   UNL     1      -8.617   4.927 129.503  0.00  0.00    +0.000 C 
ATOM      2  O   UNL     1      -8.776   5.017 128.078  0.00  0.00    +0.000 OA
ATOM      3  C   UNL     1      -7.925   4.189 127.323  0.00  0.00    +0.000 C 
ATOM      4  C   UNL     1      -7.355   3.067 127.810  0.00  0.00    +0.000 C 
ATOM      5  C   UNL     1      -7.549   2.558 129.188  0.00  0.00    +0.000 C 
ATOM      6  C   UNL     1      -8.527   3.477 129.901  0.00  0.00    +0.000 C 
ENDROOT
BRANCH   5   7
ATOM      7  N   UNL     1      -8.027   1.152 129.187  0.00  0.00    +0.000 NA
ATOM      8  C   UNL     1      -7.416   0.226 129.846  0.00  0.00    +0.000 C 
ATOM      9  N   UNL     1      -6.273   0.288 130.548  0.00  0.00    +0.000 N 
ATOM     10  N   UNL     1      -7.882  -1.035 129.893  0.00  0.00    +0.000 N 
ATOM     11  H   UNL     1      -5.730   1.132 130.511  0.00  0.00    +0.000 HD
ATOM     12  H   UNL     1      -5.970  -0.383 131.240  0.00  0.00    +0.000 HD
ATOM     13  H   UNL     1      -8.600  -1.300 129.236  0.00  0.00    +0.000 HD
ATOM     14  H   UNL     1      -7.353  -1.775 130.333  0.00  0.00    +0.000 HD
ENDBRANCH   5   7
BRANCH   6  15
ATOM     15  N   UNL     1      -8.183   3.401 131.278  0.00  0.00    +0.000 N 
ATOM     16  C   UNL     1      -8.792   2.796 132.345  0.00  0.00    +0.000 C 
ATOM     17  C   UNL     1      -9.877   1.795 132.157  0.00  0.00    +0.000 C 
ATOM     18  O   UNL     1      -8.365   3.066 133.464  0.00  0.00    +0.000 OA
ATOM     19  H   UNL     1      -7.357   3.989 131.409  0.00  0.00    +0.000 HD
ENDBRANCH   6  15
BRANCH   3  20
ATOM     20  C   UNL     1      -7.698   4.639 125.904  0.00  0.00    +0.000 C 
ATOM     21  O   UNL     1      -6.938   4.072 125.158  0.00  0.00    +0.000 OA
BRANCH  20  22
ATOM     22  O   UNL     1      -8.416   5.717 125.498  0.00  0.00    +0.000 OA
ATOM     23  H   UNL     1      -8.777   5.712 124.601  0.00  0.00    +0.000 HD
ENDBRANCH  20  22
ENDBRANCH   3  20
BRANCH   1  24
ATOM     24  C   UNL     1      -9.689   5.709 130.383  0.00  0.00    +0.000 C 
BRANCH  24  25
ATOM     25  O   UNL     1      -8.961   6.456 131.376  0.00  0.00    +0.000 OA
ATOM     26  H   UNL     1      -8.025   6.455 131.107  0.00  0.00    +0.000 HD
ENDBRANCH  24  25
BRANCH  24  27
ATOM     27  C   UNL     1     -10.783   6.712 129.765  0.00  0.00    +0.000 C 
BRANCH  27  28
ATOM     28  O   UNL     1     -11.674   5.907 128.967  0.00  0.00    +0.000 OA
ATOM     29  H   UNL     1     -12.427   5.678 129.542  0.00  0.00    +0.000 HD
ENDBRANCH  27  28
BRANCH  27  30
ATOM     30  C   UNL     1     -10.460   7.902 128.811  0.00  0.00    +0.000 C 
BRANCH  30  31
ATOM     31  O   UNL     1     -10.136   7.429 127.479  0.00  0.00    +0.000 OA
ATOM     32  H   UNL     1      -9.184   7.169 127.473  0.00  0.00    +0.000 HD
ENDBRANCH  30  31
ENDBRANCH  27  30
ENDBRANCH  24  27
ENDBRANCH   1  24
TORSDOF 10
ENDMDL
MODEL 3
REMARK VINA RESULT:      -5.7      2.034      4.698
REMARK  Name = Zanamivir
REMARK  11 active torsions:
REMARK  status: ('A' for Active; 'I' for Inactive)
REMARK    1  A    between atoms: C_2  and  C_19
REMARK    2  A    between atoms: C_4  and  C_16
REMARK    3  A    between atoms: C_6  and  N_7
REMARK    4  A    between atoms: C_11  and  N_12
REMARK    5  A    between atoms: C_13  and  C_14
REMARK    6  A    between atoms: C_16  and  O_17
REMARK    7  A    between atoms: C_19  and  O_20
REMARK    8  A    between atoms: C_19  and  C_21
REMARK    9  A    between atoms: C_21  and  O_22
REMARK   10  A    between atoms: C_21  and  C_23
REMARK   11  A    between atoms: C_23  and  O_24
REMARK                            x       y       z     vdW  Elec       q    Type
REMARK                         _______ _______ _______ _____ _____    ______ ____
ROOT
ATOM      1  C   UNL     1      -9.440   6.238 128.907  0.00  0.00    +0.000 C 
ATOM      2  O   UNL     1      -9.182   5.693 127.603  0.00  0.00    +0.000 OA
ATOM      3  C   UNL     1      -8.300   4.598 127.571  0.00  0.00    +0.000 C 
ATOM      4  C   UNL     1      -8.075   3.793 128.631  0.00  0.00    +0.000 C 
ATOM      5  C   UNL     1      -8.722   3.949 129.955  0.00  0.00    +0.000 C 
ATOM      6  C   UNL     1      -9.698   5.111 129.873  0.00  0.00    +0.000 C 
ENDROOT
BRANCH   5   7
ATOM      7  N   UNL     1      -9.400   2.698 130.381  0.00  0.00    +0.000 NA
ATOM      8  C   UNL     1      -9.166   2.154 131.526  0.00  0.00    +0.000 C 
ATOM      9  N   UNL     1      -8.282   2.505 132.475  0.00  0.00    +0.000 N 
ATOM     10  N   UNL     1      -9.823   1.055 131.936  0.00  0.00    +0.000 N 
ATOM     11  H   UNL     1      -7.622   3.235 132.273  0.00  0.00    +0.000 HD
ATOM     12  H   UNL     1      -8.306   2.209 133.441  0.00  0.00    +0.000 HD
ATOM     13  H   UNL     1     -10.353   0.536 131.252  0.00  0.00    +0.000 HD
ATOM     14  H   UNL     1      -9.573   0.581 132.793  0.00  0.00    +0.000 HD
ENDBRANCH   5   7
BRANCH   6  15
ATOM     15  N   UNL     1      -9.766   5.642 131.189  0.00  0.00    +0.000 N 
ATOM     16  C   UNL     1      -8.806   6.138 132.030  0.00  0.00    +0.000 C 
ATOM     17  C   UNL     1      -7.445   6.482 131.539  0.00  0.00    +0.000 C 
ATOM     18  O   UNL     1      -9.133   6.348 133.195  0.00  0.00    +0.000 OA
ATOM     19  H   UNL     1     -10.732   5.529 131.504  0.00  0.00    +0.000 HD
ENDBRANCH   6  15
BRANCH   3  20
ATOM     20  C   UNL     1      -7.620   4.370 126.246  0.00  0.00    +0.000 C 
ATOM     21  O   UNL     1      -6.658   3.652 126.128  0.00  0.00    +0.000 OA
BRANCH  20  22
ATOM     22  O   UNL     1      -8.165   5.006 125.179  0.00  0.00    +0.000 OA
ATOM     23  H   UNL     1      -8.976   4.645 124.799  0.00  0.00    +0.000 HD
ENDBRANCH  20  22
ENDBRANCH   3  20
BRANCH   1  24
ATOM     24  C   UNL     1     -10.574   7.353 128.994  0.00  0.00    +0.000 C 
BRANCH  24  25
ATOM     25  O   UNL     1     -10.063   8.531 128.341  0.00  0.00    +0.000 OA
ATOM     26  H   UNL     1      -9.948   9.212 129.027  0.00  0.00    +0.000 HD
ENDBRANCH  24  25
BRANCH  24  27
ATOM     27  C   UNL     1     -12.072   7.140 128.449  0.00  0.00    +0.000 C 
BRANCH  27  28
ATOM     28  O   UNL     1     -11.951   6.561 127.134  0.00  0.00    +0.000 OA
ATOM     29  H   UNL     1     -12.787   6.753 126.671  0.00  0.00    +0.000 HD
ENDBRANCH  27  28
BRANCH  27  30
ATOM     30  C   UNL     1     -13.106   8.284 128.220  0.00  0.00    +0.000 C 
BRANCH  30  31
ATOM     31  O   UNL     1     -12.621   9.540 128.758  0.00  0.00    +0.000 OA
ATOM     32  H   UNL     1     -13.034   9.668 129.646  0.00  0.00    +0.000 HD
ENDBRANCH  30  31
ENDBRANCH  27  30
ENDBRANCH  24  27
ENDBRANCH   1  24
TORSDOF 10
ENDMDL
MODEL 4
REMARK VINA RESULT:      -5.6      6.524      7.515
REMARK  Name = Zanamivir
REMARK  11 active torsions:
REMARK  status: ('A' for Active; 'I' for Inactive)
REMARK    1  A    between atoms: C_2  and  C_19
REMARK    2  A    between atoms: C_4  and  C_16
REMARK    3  A    between atoms: C_6  and  N_7
REMARK    4  A    between atoms: C_11  and  N_12
REMARK    5  A    between atoms: C_13  and  C_14
REMARK    6  A    between atoms: C_16  and  O_17
REMARK    7  A    between atoms: C_19  and  O_20
REMARK    8  A    between atoms: C_19  and  C_21
REMARK    9  A    between atoms: C_21  and  O_22
REMARK   10  A    between atoms: C_21  and  C_23
REMARK   11  A    between atoms: C_23  and  O_24
REMARK                            x       y       z     vdW  Elec       q    Type
REMARK                         _______ _______ _______ _____ _____    ______ ____
ROOT
ATOM      1  C   UNL     1      -7.808   0.816 124.621  0.00  0.00    +0.000 C 
ATOM      2  O   UNL     1      -7.409   1.393 123.367  0.00  0.00    +0.000 OA
ATOM      3  C   UNL     1      -6.714   2.613 123.459  0.00  0.00    +0.000 C 
ATOM      4  C   UNL     1      -6.038   3.003 124.560  0.00  0.00    +0.000 C 
ATOM      5  C   UNL     1      -5.933   2.208 125.805  0.00  0.00    +0.000 C 
ATOM      6  C   UNL     1      -6.655   0.889 125.589  0.00  0.00    +0.000 C 
ENDROOT
BRANCH   5   7
ATOM      7  N   UNL     1      -4.517   1.994 126.197  0.00  0.00    +0.000 NA
ATOM      8  C   UNL     1      -3.901   2.803 126.991  0.00  0.00    +0.000 C 
ATOM      9  N   UNL     1      -4.324   3.959 127.529  0.00  0.00    +0.000 N 
ATOM     10  N   UNL     1      -2.638   2.578 127.393  0.00  0.00    +0.000 N 
ATOM     11  H   UNL     1      -5.205   4.337 127.231  0.00  0.00    +0.000 HD
ATOM     12  H   UNL     1      -3.911   4.422 128.327  0.00  0.00    +0.000 HD
ATOM     13  H   UNL     1      -2.101   1.879 126.902  0.00  0.00    +0.000 HD
ATOM     14  H   UNL     1      -2.131   3.259 127.940  0.00  0.00    +0.000 HD
ENDBRANCH   5   7
BRANCH   6  15
ATOM     15  N   UNL     1      -7.112   0.492 126.874  0.00  0.00    +0.000 N 
ATOM     16  C   UNL     1      -6.738  -0.528 127.708  0.00  0.00    +0.000 C 
ATOM     17  C   UNL     1      -5.481  -1.292 127.487  0.00  0.00    +0.000 C 
ATOM     18  O   UNL     1      -7.451  -0.747 128.684  0.00  0.00    +0.000 OA
ATOM     19  H   UNL     1      -7.908   1.092 127.104  0.00  0.00    +0.000 HD
ENDBRANCH   6  15
BRANCH   3  20
ATOM     20  C   UNL     1      -6.765   3.466 122.218  0.00  0.00    +0.000 C 
ATOM     21  O   UNL     1      -5.770   3.885 121.680  0.00  0.00    +0.000 OA
BRANCH  20  22
ATOM     22  O   UNL     1      -8.001   3.723 121.721  0.00  0.00    +0.000 OA
ATOM     23  H   UNL     1      -8.265   4.647 121.613  0.00  0.00    +0.000 HD
ENDBRANCH  20  22
ENDBRANCH   3  20
BRANCH   1  24
ATOM     24  C   UNL     1      -8.427  -0.649 124.558  0.00  0.00    +0.000 C 
BRANCH  24  25
ATOM     25  O   UNL     1      -9.633  -0.636 125.345  0.00  0.00    +0.000 OA
ATOM     26  H   UNL     1     -10.325  -1.071 124.817  0.00  0.00    +0.000 HD
ENDBRANCH  24  25
BRANCH  24  27
ATOM     27  C   UNL     1      -8.784  -1.403 123.184  0.00  0.00    +0.000 C 
BRANCH  27  28
ATOM     28  O   UNL     1     -10.013  -0.819 122.703  0.00  0.00    +0.000 OA
ATOM     29  H   UNL     1      -9.792  -0.359 121.874  0.00  0.00    +0.000 HD
ENDBRANCH  27  28
BRANCH  27  30
ATOM     30  C   UNL     1      -9.065  -2.931 123.055  0.00  0.00    +0.000 C 
BRANCH  30  31
ATOM     31  O   UNL     1     -10.056  -3.362 124.021  0.00  0.00    +0.000 OA
ATOM     32  H   UNL     1     -10.145  -4.343 123.947  0.00  0.00    +0.000 HD
ENDBRANCH  30  31
ENDBRANCH  27  30
ENDBRANCH  24  27
ENDBRANCH   1  24
TORSDOF 10
ENDMDL
MODEL 5
REMARK VINA RESULT:      -5.6      6.455      7.831
REMARK  Name = Zanamivir
REMARK  11 active torsions:
REMARK  status: ('A' for Active; 'I' for Inactive)
REMARK    1  A    between atoms: C_2  and  C_19
REMARK    2  A    between atoms: C_4  and  C_16
REMARK    3  A    between atoms: C_6  and  N_7
REMARK    4  A    between atoms: C_11  and  N_12
REMARK    5  A    between atoms: C_13  and  C_14
REMARK    6  A    between atoms: C_16  and  O_17
REMARK    7  A    between atoms: C_19  and  O_20
REMARK    8  A    between atoms: C_19  and  C_21
REMARK    9  A    between atoms: C_21  and  O_22
REMARK   10  A    between atoms: C_21  and  C_23
REMARK   11  A    between atoms: C_23  and  O_24
REMARK                            x       y       z     vdW  Elec       q    Type
REMARK                         _______ _______ _______ _____ _____    ______ ____
ROOT
ATOM      1  C   UNL     1      -6.836   2.912 123.937  0.00  0.00    +0.000 C 
ATOM      2  O   UNL     1      -5.622   3.521 124.407  0.00  0.00    +0.000 OA
ATOM      3  C   UNL     1      -5.312   3.280 125.758  0.00  0.00    +0.000 C 
ATOM      4  C   UNL     1      -5.780   2.222 126.452  0.00  0.00    +0.000 C 
ATOM      5  C   UNL     1      -6.669   1.179 125.892  0.00  0.00    +0.000 C 
ATOM      6  C   UNL     1      -6.895   1.487 124.421  0.00  0.00    +0.000 C 
ENDROOT
BRANCH   5   7
ATOM      7  N   UNL     1      -6.103  -0.181 126.082  0.00  0.00    +0.000 NA
ATOM      8  C   UNL     1      -6.753  -1.109 126.698  0.00  0.00    +0.000 C 
ATOM      9  N   UNL     1      -7.940  -1.049 127.325  0.00  0.00    +0.000 N 
ATOM     10  N   UNL     1      -6.265  -2.356 126.818  0.00  0.00    +0.000 N 
ATOM     11  H   UNL     1      -8.382  -0.155 127.435  0.00  0.00    +0.000 HD
ATOM     12  H   UNL     1      -8.515  -1.843 127.570  0.00  0.00    +0.000 HD
ATOM     13  H   UNL     1      -5.290  -2.507 126.605  0.00  0.00    +0.000 HD
ATOM     14  H   UNL     1      -6.735  -3.053 127.379  0.00  0.00    +0.000 HD
ENDBRANCH   5   7
BRANCH   6  15
ATOM     15  N   UNL     1      -8.176   0.952 124.114  0.00  0.00    +0.000 N 
ATOM     16  C   UNL     1      -8.565  -0.153 123.406  0.00  0.00    +0.000 C 
ATOM     17  C   UNL     1      -7.598  -1.222 123.040  0.00  0.00    +0.000 C 
ATOM     18  O   UNL     1      -9.758  -0.258 123.137  0.00  0.00    +0.000 OA
ATOM     19  H   UNL     1      -8.867   1.618 124.470  0.00  0.00    +0.000 HD
ENDBRANCH   6  15
BRANCH   3  20
ATOM     20  C   UNL     1      -4.394   4.296 126.387  0.00  0.00    +0.000 C 
ATOM     21  O   UNL     1      -3.210   4.106 126.515  0.00  0.00    +0.000 OA
BRANCH  20  22
ATOM     22  O   UNL     1      -4.973   5.455 126.788  0.00  0.00    +0.000 OA
ATOM     23  H   UNL     1      -4.774   5.780 127.677  0.00  0.00    +0.000 HD
ENDBRANCH  20  22
ENDBRANCH   3  20
BRANCH   1  24
ATOM     24  C   UNL     1      -7.114   3.010 122.372  0.00  0.00    +0.000 C 
BRANCH  24  25
ATOM     25  O   UNL     1      -8.358   3.716 122.205  0.00  0.00    +0.000 OA
ATOM     26  H   UNL     1      -8.162   4.529 121.706  0.00  0.00    +0.000 HD
ENDBRANCH  24  25
BRANCH  24  27
ATOM     27  C   UNL     1      -6.077   3.653 121.325  0.00  0.00    +0.000 C 
BRANCH  27  28
ATOM     28  O   UNL     1      -5.428   4.746 122.008  0.00  0.00    +0.000 OA
ATOM     29  H   UNL     1      -4.505   4.471 122.151  0.00  0.00    +0.000 HD
ENDBRANCH  27  28
BRANCH  27  30
ATOM     30  C   UNL     1      -6.474   4.297 119.962  0.00  0.00    +0.000 C 
BRANCH  30  31
ATOM     31  O   UNL     1      -5.521   5.317 119.571  0.00  0.00    +0.000 OA
ATOM     32  H   UNL     1      -5.945   5.877 118.877  0.00  0.00    +0.000 HD
ENDBRANCH  30  31
ENDBRANCH  27  30
ENDBRANCH  24  27
ENDBRANCH   1  24
TORSDOF 10
ENDMDL
MODEL 6
REMARK VINA RESULT:      -5.5      5.103      8.792
REMARK  Name = Zanamivir
REMARK  11 active torsions:
REMARK  status: ('A' for Active; 'I' for Inactive)
REMARK    1  A    between atoms: C_2  and  C_19
REMARK    2  A    between atoms: C_4  and  C_16
REMARK    3  A    between atoms: C_6  and  N_7
REMARK    4  A    between atoms: C_11  and  N_12
REMARK    5  A    between atoms: C_13  and  C_14
REMARK    6  A    between atoms: C_16  and  O_17
REMARK    7  A    between atoms: C_19  and  O_20
REMARK    8  A    between atoms: C_19  and  C_21
REMARK    9  A    between atoms: C_21  and  O_22
REMARK   10  A    between atoms: C_21  and  C_23
REMARK   11  A    between atoms: C_23  and  O_24
REMARK                            x       y       z     vdW  Elec       q    Type
REMARK                         _______ _______ _______ _____ _____    ______ ____
ROOT
ATOM      1  C   UNL     1      -8.133   1.161 126.045  0.00  0.00    +0.000 C 
ATOM      2  O   UNL     1      -7.617  -0.137 125.703  0.00  0.00    +0.000 OA
ATOM      3  C   UNL     1      -7.763  -0.506 124.354  0.00  0.00    +0.000 C 
ATOM      4  C   UNL     1      -7.908   0.385 123.350  0.00  0.00    +0.000 C 
ATOM      5  C   UNL     1      -7.928   1.855 123.530  0.00  0.00    +0.000 C 
ATOM      6  C   UNL     1      -7.701   2.157 125.002  0.00  0.00    +0.000 C 
ENDROOT
BRANCH   5   7
ATOM      7  N   UNL     1      -6.914   2.523 122.675  0.00  0.00    +0.000 NA
ATOM      8  C   UNL     1      -7.248   3.348 121.742  0.00  0.00    +0.000 C 
ATOM      9  N   UNL     1      -8.470   3.701 121.309  0.00  0.00    +0.000 N 
ATOM     10  N   UNL     1      -6.328   3.998 121.008  0.00  0.00    +0.000 N 
ATOM     11  H   UNL     1      -9.269   3.212 121.671  0.00  0.00    +0.000 HD
ATOM     12  H   UNL     1      -8.685   4.521 120.760  0.00  0.00    +0.000 HD
ATOM     13  H   UNL     1      -5.373   3.676 121.051  0.00  0.00    +0.000 HD
ATOM     14  H   UNL     1      -6.593   4.572 120.220  0.00  0.00    +0.000 HD
ENDBRANCH   5   7
BRANCH   6  15
ATOM     15  N   UNL     1      -8.366   3.389 125.243  0.00  0.00    +0.000 N 
ATOM     16  C   UNL     1      -7.899   4.647 125.517  0.00  0.00    +0.000 C 
ATOM     17  C   UNL     1      -6.470   5.007 125.316  0.00  0.00    +0.000 C 
ATOM     18  O   UNL     1      -8.721   5.486 125.876  0.00  0.00    +0.000 OA
ATOM     19  H   UNL     1      -9.368   3.186 125.262  0.00  0.00    +0.000 HD
ENDBRANCH   6  15
BRANCH   3  20
ATOM     20  C   UNL     1      -7.733  -1.990 124.096  0.00  0.00    +0.000 C 
ATOM     21  O   UNL     1      -8.022  -2.467 123.027  0.00  0.00    +0.000 OA
BRANCH  20  22
ATOM     22  O   UNL     1      -7.341  -2.768 125.136  0.00  0.00    +0.000 OA
ATOM     23  H   UNL     1      -6.549  -3.310 125.026  0.00  0.00    +0.000 HD
ENDBRANCH  20  22
ENDBRANCH   3  20
BRANCH   1  24
ATOM     24  C   UNL     1      -7.815   1.680 127.517  0.00  0.00    +0.000 C 
BRANCH  24  25
ATOM     25  O   UNL     1      -9.063   2.105 128.097  0.00  0.00    +0.000 OA
ATOM     26  H   UNL     1      -8.856   2.800 128.746  0.00  0.00    +0.000 HD
ENDBRANCH  24  25
BRANCH  24  27
ATOM     27  C   UNL     1      -7.070   0.791 128.630  0.00  0.00    +0.000 C 
BRANCH  27  28
ATOM     28  O   UNL     1      -5.782   0.442 128.082  0.00  0.00    +0.000 OA
ATOM     29  H   UNL     1      -5.594   1.094 127.384  0.00  0.00    +0.000 HD
ENDBRANCH  27  28
BRANCH  27  30
ATOM     30  C   UNL     1      -7.589  -0.577 129.169  0.00  0.00    +0.000 C 
BRANCH  30  31
ATOM     31  O   UNL     1      -7.530  -1.598 128.142  0.00  0.00    +0.000 OA
ATOM     32  H   UNL     1      -8.339  -1.512 127.583  0.00  0.00    +0.000 HD
ENDBRANCH  30  31
ENDBRANCH  27  30
ENDBRANCH  24  27
ENDBRANCH   1  24
TORSDOF 10
ENDMDL
MODEL 7
REMARK VINA RESULT:      -5.4      4.916      7.165
REMARK  Name = Zanamivir
REMARK  11 active torsions:
REMARK  status: ('A' for Active; 'I' for Inactive)
REMARK    1  A    between atoms: C_2  and  C_19
REMARK    2  A    between atoms: C_4  and  C_16
REMARK    3  A    between atoms: C_6  and  N_7
REMARK    4  A    between atoms: C_11  and  N_12
REMARK    5  A    between atoms: C_13  and  C_14
REMARK    6  A    between atoms: C_16  and  O_17
REMARK    7  A    between atoms: C_19  and  O_20
REMARK    8  A    between atoms: C_19  and  C_21
REMARK    9  A    between atoms: C_21  and  O_22
REMARK   10  A    between atoms: C_21  and  C_23
REMARK   11  A    between atoms: C_23  and  O_24
REMARK                            x       y       z     vdW  Elec       q    Type
REMARK                         _______ _______ _______ _____ _____    ______ ____
ROOT
ATOM      1  C   UNL     1      -8.113   2.485 124.281  0.00  0.00    +0.000 C 
ATOM      2  O   UNL     1      -7.618   3.491 125.180  0.00  0.00    +0.000 OA
ATOM      3  C   UNL     1      -7.804   3.221 126.548  0.00  0.00    +0.000 C 
ATOM      4  C   UNL     1      -7.968   1.977 127.045  0.00  0.00    +0.000 C 
ATOM      5  C   UNL     1      -7.969   0.741 126.229  0.00  0.00    +0.000 C 
ATOM      6  C   UNL     1      -7.700   1.126 124.784  0.00  0.00    +0.000 C 
ENDROOT
BRANCH   5   7
ATOM      7  N   UNL     1      -6.972  -0.241 126.725  0.00  0.00    +0.000 NA
ATOM      8  C   UNL     1      -7.278  -1.478 126.924  0.00  0.00    +0.000 C 
ATOM      9  N   UNL     1      -8.468  -2.093 126.821  0.00  0.00    +0.000 N 
ATOM     10  N   UNL     1      -6.361  -2.380 127.316  0.00  0.00    +0.000 N 
ATOM     11  H   UNL     1      -9.286  -1.534 126.656  0.00  0.00    +0.000 HD
ATOM     12  H   UNL     1      -8.610  -3.090 126.742  0.00  0.00    +0.000 HD
ATOM     13  H   UNL     1      -5.475  -2.039 127.658  0.00  0.00    +0.000 HD
ATOM     14  H   UNL     1      -6.622  -3.326 127.558  0.00  0.00    +0.000 HD
ENDBRANCH   5   7
BRANCH   6  15
ATOM     15  N   UNL     1      -8.347   0.132 124.000  0.00  0.00    +0.000 N 
ATOM     16  C   UNL     1      -7.862  -0.896 123.237  0.00  0.00    +0.000 C 
ATOM     17  C   UNL     1      -6.446  -1.340 123.339  0.00  0.00    +0.000 C 
ATOM     18  O   UNL     1      -8.659  -1.479 122.508  0.00  0.00    +0.000 OA
ATOM     19  H   UNL     1      -9.347   0.347 124.017  0.00  0.00    +0.000 HD
ENDBRANCH   6  15
BRANCH   3  20
ATOM     20  C   UNL     1      -7.794   4.435 127.440  0.00  0.00    +0.000 C 
ATOM     21  O   UNL     1      -8.729   5.194 127.510  0.00  0.00    +0.000 OA
BRANCH  20  22
ATOM     22  O   UNL     1      -6.674   4.621 128.182  0.00  0.00    +0.000 OA
ATOM     23  H   UNL     1      -6.194   5.454 128.082  0.00  0.00    +0.000 HD
ENDBRANCH  20  22
ENDBRANCH   3  20
BRANCH   1  24
ATOM     24  C   UNL     1      -7.750   2.674 122.742  0.00  0.00    +0.000 C 
BRANCH  24  25
ATOM     25  O   UNL     1      -8.737   3.559 122.179  0.00  0.00    +0.000 OA
ATOM     26  H   UNL     1      -9.487   3.007 121.893  0.00  0.00    +0.000 HD
ENDBRANCH  24  25
BRANCH  24  27
ATOM     27  C   UNL     1      -6.320   3.193 122.225  0.00  0.00    +0.000 C 
BRANCH  27  28
ATOM     28  O   UNL     1      -6.090   4.466 122.863  0.00  0.00    +0.000 OA
ATOM     29  H   UNL     1      -5.132   4.635 122.804  0.00  0.00    +0.000 HD
ENDBRANCH  27  28
BRANCH  27  30
ATOM     30  C   UNL     1      -5.968   3.495 120.736  0.00  0.00    +0.000 C 
BRANCH  30  31
ATOM     31  O   UNL     1      -7.059   4.183 120.073  0.00  0.00    +0.000 OA
ATOM     32  H   UNL     1      -6.681   4.689 119.314  0.00  0.00    +0.000 HD
ENDBRANCH  30  31
ENDBRANCH  27  30
ENDBRANCH  24  27
ENDBRANCH   1  24
TORSDOF 10
ENDMDL
MODEL 8
REMARK VINA RESULT:      -5.4      4.608      7.513
REMARK  Name = Zanamivir
REMARK  11 active torsions:
REMARK  status: ('A' for Active; 'I' for Inactive)
REMARK    1  A    between atoms: C_2  and  C_19
REMARK    2  A    between atoms: C_4  and  C_16
REMARK    3  A    between atoms: C_6  and  N_7
REMARK    4  A    between atoms: C_11  and  N_12
REMARK    5  A    between atoms: C_13  and  C_14
REMARK    6  A    between atoms: C_16  and  O_17
REMARK    7  A    between atoms: C_19  and  O_20
REMARK    8  A    between atoms: C_19  and  C_21
REMARK    9  A    between atoms: C_21  and  O_22
REMARK   10  A    between atoms: C_21  and  C_23
REMARK   11  A    between atoms: C_23  and  O_24
REMARK                            x       y       z     vdW  Elec       q    Type
REMARK                         _______ _______ _______ _____ _____    ______ ____
ROOT
ATOM      1  C   UNL     1      -7.333   1.670 123.546  0.00  0.00    +0.000 C 
ATOM      2  O   UNL     1      -8.129   0.502 123.286  0.00  0.00    +0.000 OA
ATOM      3  C   UNL     1      -8.232  -0.407 124.354  0.00  0.00    +0.000 C 
ATOM      4  C   UNL     1      -8.046  -0.062 125.646  0.00  0.00    +0.000 C 
ATOM      5  C   UNL     1      -7.719   1.307 126.109  0.00  0.00    +0.000 C 
ATOM      6  C   UNL     1      -7.693   2.225 124.899  0.00  0.00    +0.000 C 
ENDROOT
BRANCH   5   7
ATOM      7  N   UNL     1      -8.686   1.782 127.132  0.00  0.00    +0.000 NA
ATOM      8  C   UNL     1      -8.321   2.049 128.340  0.00  0.00    +0.000 C 
ATOM      9  N   UNL     1      -7.122   1.896 128.925  0.00  0.00    +0.000 N 
ATOM     10  N   UNL     1      -9.184   2.535 129.249  0.00  0.00    +0.000 N 
ATOM     11  H   UNL     1      -6.394   1.426 128.417  0.00  0.00    +0.000 HD
ATOM     12  H   UNL     1      -6.823   2.343 129.780  0.00  0.00    +0.000 HD
ATOM     13  H   UNL     1     -10.170   2.492 129.038  0.00  0.00    +0.000 HD
ATOM     14  H   UNL     1      -8.917   2.657 130.216  0.00  0.00    +0.000 HD
ENDBRANCH   5   7
BRANCH   6  15
ATOM     15  N   UNL     1      -6.777   3.260 125.228  0.00  0.00    +0.000 N 
ATOM     16  C   UNL     1      -6.960   4.552 125.643  0.00  0.00    +0.000 C 
ATOM     17  C   UNL     1      -8.283   5.034 126.123  0.00  0.00    +0.000 C 
ATOM     18  O   UNL     1      -5.973   5.281 125.664  0.00  0.00    +0.000 OA
ATOM     19  H   UNL     1      -5.841   2.903 125.021  0.00  0.00    +0.000 HD
ENDBRANCH   6  15
BRANCH   3  20
ATOM     20  C   UNL     1      -8.581  -1.817 123.955  0.00  0.00    +0.000 C 
ATOM     21  O   UNL     1      -9.684  -2.129 123.580  0.00  0.00    +0.000 OA
BRANCH  20  22
ATOM     22  O   UNL     1      -7.573  -2.723 124.021  0.00  0.00    +0.000 OA
ATOM     23  H   UNL     1      -7.626  -3.415 124.694  0.00  0.00    +0.000 HD
ENDBRANCH  20  22
ENDBRANCH   3  20
BRANCH   1  24
ATOM     24  C   UNL     1      -7.353   2.801 122.425  0.00  0.00    +0.000 C 
BRANCH  24  25
ATOM     25  O   UNL     1      -8.271   3.820 122.866  0.00  0.00    +0.000 OA
ATOM     26  H   UNL     1      -9.078   3.732 122.327  0.00  0.00    +0.000 HD
ENDBRANCH  24  25
BRANCH  24  27
ATOM     27  C   UNL     1      -6.036   3.563 121.908  0.00  0.00    +0.000 C 
BRANCH  27  28
ATOM     28  O   UNL     1      -5.818   4.666 122.813  0.00  0.00    +0.000 OA
ATOM     29  H   UNL     1      -6.698   4.943 123.124  0.00  0.00    +0.000 HD
ENDBRANCH  27  28
BRANCH  27  30
ATOM     30  C   UNL     1      -5.890   4.240 120.511  0.00  0.00    +0.000 C 
BRANCH  30  31
ATOM     31  O   UNL     1      -5.048   5.417 120.589  0.00  0.00    +0.000 OA
ATOM     32  H   UNL     1      -4.681   5.586 119.688  0.00  0.00    +0.000 HD
ENDBRANCH  30  31
ENDBRANCH  27  30
ENDBRANCH  24  27
ENDBRANCH   1  24
TORSDOF 10
ENDMDL
MODEL 9
REMARK VINA RESULT:      -5.4      5.312      7.151
REMARK  Name = Zanamivir
REMARK  11 active torsions:
REMARK  status: ('A' for Active; 'I' for Inactive)
REMARK    1  A    between atoms: C_2  and  C_19
REMARK    2  A    between atoms: C_4  and  C_16
REMARK    3  A    between atoms: C_6  and  N_7
REMARK    4  A    between atoms: C_11  and  N_12
REMARK    5  A    between atoms: C_13  and  C_14
REMARK    6  A    between atoms: C_16  and  O_17
REMARK    7  A    between atoms: C_19  and  O_20
REMARK    8  A    between atoms: C_19  and  C_21
REMARK    9  A    between atoms: C_21  and  O_22
REMARK   10  A    between atoms: C_21  and  C_23
REMARK   11  A    between atoms: C_23  and  O_24
REMARK                            x       y       z     vdW  Elec       q    Type
REMARK                         _______ _______ _______ _____ _____    ______ ____
ROOT
ATOM      1  C   UNL     1      -8.729  -1.043 126.142  0.00  0.00    +0.000 C 
ATOM      2  O   UNL     1      -8.807  -0.071 125.086  0.00  0.00    +0.000 OA
ATOM      3  C   UNL     1      -8.586   1.262 125.477  0.00  0.00    +0.000 C 
ATOM      4  C   UNL     1      -7.896   1.608 126.584  0.00  0.00    +0.000 C 
ATOM      5  C   UNL     1      -7.280   0.643 127.524  0.00  0.00    +0.000 C 
ATOM      6  C   UNL     1      -7.515  -0.759 126.988  0.00  0.00    +0.000 C 
ENDROOT
BRANCH   5   7
ATOM      7  N   UNL     1      -5.833   0.916 127.716  0.00  0.00    +0.000 NA
ATOM      8  C   UNL     1      -5.325   1.094 128.888  0.00  0.00    +0.000 C 
ATOM      9  N   UNL     1      -5.933   1.153 130.085  0.00  0.00    +0.000 N 
ATOM     10  N   UNL     1      -4.005   1.283 129.066  0.00  0.00    +0.000 N 
ATOM     11  H   UNL     1      -6.936   1.155 130.115  0.00  0.00    +0.000 HD
ATOM     12  H   UNL     1      -5.479   1.045 130.981  0.00  0.00    +0.000 HD
ATOM     13  H   UNL     1      -3.442   1.494 128.256  0.00  0.00    +0.000 HD
ATOM     14  H   UNL     1      -3.625   1.512 129.974  0.00  0.00    +0.000 HD
ENDBRANCH   5   7
BRANCH   6  15
ATOM     15  N   UNL     1      -7.548  -1.602 128.132  0.00  0.00    +0.000 N 
ATOM     16  C   UNL     1      -6.646  -2.499 128.638  0.00  0.00    +0.000 C 
ATOM     17  C   UNL     1      -5.235  -2.533 128.168  0.00  0.00    +0.000 C 
ATOM     18  O   UNL     1      -7.032  -3.235 129.543  0.00  0.00    +0.000 OA
ATOM     19  H   UNL     1      -8.477  -1.500 128.548  0.00  0.00    +0.000 HD
ENDBRANCH   6  15
BRANCH   3  20
ATOM     20  C   UNL     1      -9.171   2.298 124.553  0.00  0.00    +0.000 C 
ATOM     21  O   UNL     1      -9.726   2.006 123.523  0.00  0.00    +0.000 OA
BRANCH  20  22
ATOM     22  O   UNL     1      -9.055   3.588 124.954  0.00  0.00    +0.000 OA
ATOM     23  H   UNL     1      -9.301   4.284 124.330  0.00  0.00    +0.000 HD
ENDBRANCH  20  22
ENDBRANCH   3  20
BRANCH   1  24
ATOM     24  C   UNL     1      -8.788  -2.572 125.699  0.00  0.00    +0.000 C 
BRANCH  24  25
ATOM     25  O   UNL     1     -10.169  -2.978 125.757  0.00  0.00    +0.000 OA
ATOM     26  H   UNL     1     -10.543  -2.850 124.868  0.00  0.00    +0.000 HD
ENDBRANCH  24  25
BRANCH  24  27
ATOM     27  C   UNL     1      -8.209  -3.114 124.301  0.00  0.00    +0.000 C 
BRANCH  27  28
ATOM     28  O   UNL     1      -6.778  -2.935 124.352  0.00  0.00    +0.000 OA
ATOM     29  H   UNL     1      -6.582  -2.137 123.829  0.00  0.00    +0.000 HD
ENDBRANCH  27  28
BRANCH  27  30
ATOM     30  C   UNL     1      -8.571  -2.530 122.902  0.00  0.00    +0.000 C 
BRANCH  30  31
ATOM     31  O   UNL     1      -9.819  -1.794 122.951  0.00  0.00    +0.000 OA
ATOM     32  H   UNL     1      -9.855  -1.205 122.159  0.00  0.00    +0.000 HD
ENDBRANCH  30  31
ENDBRANCH  27  30
ENDBRANCH  24  27
ENDBRANCH   1  24
TORSDOF 10
ENDMDL
