MODEL 1
REMARK VINA RESULT:      -9.6      0.000      0.000
REMARK  Name = Zanubrutinib
REMARK  6 active torsions:
REMARK  status: ('A' for Active; 'I' for Inactive)
REMARK    1  A    between atoms: C_2  and  C_4
REMARK    2  A    between atoms: C_9  and  C_10
REMARK    3  A    between atoms: C_16  and  C_18
REMARK    4  A    between atoms: C_22  and  C_23
REMARK    5  A    between atoms: C_26  and  O_27
REMARK    6  A    between atoms: O_27  and  C_28
REMARK                            x       y       z     vdW  Elec       q    Type
REMARK                         _______ _______ _______ _____ _____    ______ ____
ROOT
ATOM      1  C   UNL     1      -7.689   1.637 128.416  0.00  0.00    +0.000 A 
ATOM      2  C   UNL     1      -8.362   1.914 129.585  0.00  0.00    +0.000 A 
ATOM      3  N   UNL     1      -8.493   1.235 130.746  0.00  0.00    +0.000 N 
ATOM      4  C   UNL     1      -9.486   1.615 131.717  0.00  0.00    +0.000 C 
ATOM      5  C   UNL     1      -9.608   3.112 131.784  0.00  0.00    +0.000 C 
ATOM      6  C   UNL     1      -9.700   3.859 130.443  0.00  0.00    +0.000 C 
ATOM      7  N   UNL     1      -8.915   3.162 129.421  0.00  0.00    +0.000 N 
ATOM      8  N   UNL     1      -8.641   3.720 128.225  0.00  0.00    +0.000 NA
ATOM      9  C   UNL     1      -7.857   2.811 127.616  0.00  0.00    +0.000 A 
ATOM     10  H   UNL     1      -7.948   0.397 130.943  0.00  0.00    +0.000 HD
ENDROOT
BRANCH   6  11
ATOM     11  C   UNL     1      -9.360   5.388 130.550  0.00  0.00    +0.000 C 
ATOM     12  C   UNL     1     -10.045   6.103 131.736  0.00  0.00    +0.000 C 
ATOM     13  C   UNL     1     -11.518   6.423 131.512  0.00  0.00    +0.000 C 
ATOM     14  N   UNL     1     -11.722   7.091 130.215  0.00  0.00    +0.000 N 
ATOM     15  C   UNL     1     -11.124   6.463 129.037  0.00  0.00    +0.000 C 
ATOM     16  C   UNL     1      -9.643   6.172 129.253  0.00  0.00    +0.000 C 
ATOM     17  C   UNL     1     -12.517   8.222 130.198  0.00  0.00    +0.000 C 
ATOM     18  O   UNL     1     -13.043   8.672 131.214  0.00  0.00    +0.000 OA
BRANCH  17  19
ATOM     19  C   UNL     1     -12.703   8.920 128.896  0.00  0.00    +0.000 C 
ATOM     20  C   UNL     1     -13.581   9.922 128.788  0.00  0.00    +0.000 C 
ENDBRANCH  17  19
ENDBRANCH   6  11
BRANCH   9  21
ATOM     21  C   UNL     1      -7.404   2.984 126.242  0.00  0.00    +0.000 A 
ATOM     22  C   UNL     1      -6.663   4.094 125.820  0.00  0.00    +0.000 A 
ATOM     23  C   UNL     1      -6.279   4.209 124.472  0.00  0.00    +0.000 A 
ATOM     24  C   UNL     1      -6.545   3.174 123.566  0.00  0.00    +0.000 A 
ATOM     25  C   UNL     1      -7.270   2.067 124.004  0.00  0.00    +0.000 A 
ATOM     26  C   UNL     1      -7.712   1.982 125.319  0.00  0.00    +0.000 A 
BRANCH  24  27
ATOM     27  O   UNL     1      -6.006   3.298 122.299  0.00  0.00    +0.000 OA
BRANCH  27  28
ATOM     28  C   UNL     1      -6.830   3.675 121.259  0.00  0.00    +0.000 A 
ATOM     29  C   UNL     1      -8.212   3.552 121.416  0.00  0.00    +0.000 A 
ATOM     30  C   UNL     1      -9.061   3.843 120.342  0.00  0.00    +0.000 A 
ATOM     31  C   UNL     1      -8.536   4.336 119.146  0.00  0.00    +0.000 A 
ATOM     32  C   UNL     1      -7.157   4.467 118.994  0.00  0.00    +0.000 A 
ATOM     33  C   UNL     1      -6.305   4.096 120.034  0.00  0.00    +0.000 A 
ENDBRANCH  27  28
ENDBRANCH  24  27
ENDBRANCH   9  21
BRANCH   1  35
ATOM     34  N   UNL     1      -5.599   0.509 128.172  0.00  0.00    +0.000 N 
ATOM     35  C   UNL     1      -6.964   0.436 128.052  0.00  0.00    +0.000 C 
ATOM     36  O   UNL     1      -7.495  -0.609 127.722  0.00  0.00    +0.000 OA
ATOM     37  H   UNL     1      -5.091  -0.357 128.056  0.00  0.00    +0.000 HD
ATOM     38  H   UNL     1      -5.136   1.308 128.579  0.00  0.00    +0.000 HD
ENDBRANCH   1  35
TORSDOF 6
ENDMDL
MODEL 2
REMARK VINA RESULT:      -9.5      5.985      8.948
REMARK  Name = Zanubrutinib
REMARK  6 active torsions:
REMARK  status: ('A' for Active; 'I' for Inactive)
REMARK    1  A    between atoms: C_2  and  C_4
REMARK    2  A    between atoms: C_9  and  C_10
REMARK    3  A    between atoms: C_16  and  C_18
REMARK    4  A    between atoms: C_22  and  C_23
REMARK    5  A    between atoms: C_26  and  O_27
REMARK    6  A    between atoms: O_27  and  C_28
REMARK                            x       y       z     vdW  Elec       q    Type
REMARK                         _______ _______ _______ _____ _____    ______ ____
ROOT
ATOM      1  C   UNL     1      -6.342   3.446 132.339  0.00  0.00    +0.000 A 
ATOM      2  C   UNL     1      -4.984   3.409 132.562  0.00  0.00    +0.000 A 
ATOM      3  N   UNL     1      -4.113   2.388 132.721  0.00  0.00    +0.000 N 
ATOM      4  C   UNL     1      -2.783   2.622 133.223  0.00  0.00    +0.000 C 
ATOM      5  C   UNL     1      -2.234   3.909 132.675  0.00  0.00    +0.000 C 
ATOM      6  C   UNL     1      -3.164   5.134 132.721  0.00  0.00    +0.000 C 
ATOM      7  N   UNL     1      -4.558   4.716 132.548  0.00  0.00    +0.000 N 
ATOM      8  N   UNL     1      -5.547   5.603 132.323  0.00  0.00    +0.000 NA
ATOM      9  C   UNL     1      -6.639   4.834 132.153  0.00  0.00    +0.000 A 
ATOM     10  H   UNL     1      -4.384   1.420 132.559  0.00  0.00    +0.000 HD
ENDROOT
BRANCH   6  11
ATOM     11  C   UNL     1      -2.736   6.286 131.745  0.00  0.00    +0.000 C 
ATOM     12  C   UNL     1      -1.207   6.465 131.615  0.00  0.00    +0.000 C 
ATOM     13  C   UNL     1      -0.556   7.187 132.789  0.00  0.00    +0.000 C 
ATOM     14  N   UNL     1      -1.278   8.432 133.108  0.00  0.00    +0.000 N 
ATOM     15  C   UNL     1      -2.728   8.342 133.270  0.00  0.00    +0.000 C 
ATOM     16  C   UNL     1      -3.379   7.646 132.081  0.00  0.00    +0.000 C 
ATOM     17  C   UNL     1      -0.524   9.575 133.296  0.00  0.00    +0.000 C 
ATOM     18  O   UNL     1       0.703   9.578 133.204  0.00  0.00    +0.000 OA
BRANCH  17  19
ATOM     19  C   UNL     1      -1.248  10.843 133.589  0.00  0.00    +0.000 C 
ATOM     20  C   UNL     1      -1.440  11.748 132.625  0.00  0.00    +0.000 C 
ENDBRANCH  17  19
ENDBRANCH   6  11
BRANCH   9  21
ATOM     21  C   UNL     1      -7.966   5.410 131.974  0.00  0.00    +0.000 A 
ATOM     22  C   UNL     1      -9.019   5.185 132.867  0.00  0.00    +0.000 A 
ATOM     23  C   UNL     1     -10.281   5.752 132.620  0.00  0.00    +0.000 A 
ATOM     24  C   UNL     1     -10.469   6.625 131.539  0.00  0.00    +0.000 A 
ATOM     25  C   UNL     1      -9.406   6.853 130.666  0.00  0.00    +0.000 A 
ATOM     26  C   UNL     1      -8.177   6.237 130.868  0.00  0.00    +0.000 A 
BRANCH  24  27
ATOM     27  O   UNL     1     -11.697   7.256 131.451  0.00  0.00    +0.000 OA
BRANCH  27  28
ATOM     28  C   UNL     1     -12.251   7.462 130.205  0.00  0.00    +0.000 A 
ATOM     29  C   UNL     1     -12.482   8.771 129.779  0.00  0.00    +0.000 A 
ATOM     30  C   UNL     1     -13.126   9.000 128.557  0.00  0.00    +0.000 A 
ATOM     31  C   UNL     1     -13.459   7.927 127.729  0.00  0.00    +0.000 A 
ATOM     32  C   UNL     1     -13.220   6.621 128.152  0.00  0.00    +0.000 A 
ATOM     33  C   UNL     1     -12.656   6.389 129.406  0.00  0.00    +0.000 A 
ENDBRANCH  27  28
ENDBRANCH  24  27
ENDBRANCH   9  21
BRANCH   1  35
ATOM     34  N   UNL     1      -7.551   1.846 131.045  0.00  0.00    +0.000 N 
ATOM     35  C   UNL     1      -7.283   2.345 132.294  0.00  0.00    +0.000 C 
ATOM     36  O   UNL     1      -7.773   1.825 133.280  0.00  0.00    +0.000 OA
ATOM     37  H   UNL     1      -8.094   0.993 131.009  0.00  0.00    +0.000 HD
ATOM     38  H   UNL     1      -7.055   2.156 130.223  0.00  0.00    +0.000 HD
ENDBRANCH   1  35
TORSDOF 6
ENDMDL
MODEL 3
REMARK VINA RESULT:      -9.4      4.139      9.465
REMARK  Name = Zanubrutinib
REMARK  6 active torsions:
REMARK  status: ('A' for Active; 'I' for Inactive)
REMARK    1  A    between atoms: C_2  and  C_4
REMARK    2  A    between atoms: C_9  and  C_10
REMARK    3  A    between atoms: C_16  and  C_18
REMARK    4  A    between atoms: C_22  and  C_23
REMARK    5  A    between atoms: C_26  and  O_27
REMARK    6  A    between atoms: O_27  and  C_28
REMARK                            x       y       z     vdW  Elec       q    Type
REMARK                         _______ _______ _______ _____ _____    ______ ____
ROOT
ATOM      1  C   UNL     1      -8.038   0.903 128.742  0.00  0.00    +0.000 A 
ATOM      2  C   UNL     1      -7.719  -0.426 128.907  0.00  0.00    +0.000 A 
ATOM      3  N   UNL     1      -7.320  -1.384 128.041  0.00  0.00    +0.000 N 
ATOM      4  C   UNL     1      -7.320  -2.772 128.422  0.00  0.00    +0.000 C 
ATOM      5  C   UNL     1      -6.887  -2.923 129.854  0.00  0.00    +0.000 C 
ATOM      6  C   UNL     1      -7.535  -1.975 130.877  0.00  0.00    +0.000 C 
ATOM      7  N   UNL     1      -7.818  -0.678 130.255  0.00  0.00    +0.000 N 
ATOM      8  N   UNL     1      -8.173   0.400 130.981  0.00  0.00    +0.000 NA
ATOM      9  C   UNL     1      -8.272   1.385 130.069  0.00  0.00    +0.000 A 
ATOM     10  H   UNL     1      -7.075  -1.168 127.076  0.00  0.00    +0.000 HD
ENDROOT
BRANCH   6  11
ATOM     11  C   UNL     1      -6.733  -1.855 132.221  0.00  0.00    +0.000 C 
ATOM     12  C   UNL     1      -5.495  -2.778 132.298  0.00  0.00    +0.000 C 
ATOM     13  C   UNL     1      -5.816  -4.238 132.593  0.00  0.00    +0.000 C 
ATOM     14  N   UNL     1      -6.721  -4.356 133.750  0.00  0.00    +0.000 N 
ATOM     15  C   UNL     1      -7.930  -3.532 133.741  0.00  0.00    +0.000 C 
ATOM     16  C   UNL     1      -7.602  -2.067 133.476  0.00  0.00    +0.000 C 
ATOM     17  C   UNL     1      -6.396  -5.283 134.722  0.00  0.00    +0.000 C 
ATOM     18  O   UNL     1      -5.394  -5.993 134.647  0.00  0.00    +0.000 OA
BRANCH  17  19
ATOM     19  C   UNL     1      -7.290  -5.388 135.908  0.00  0.00    +0.000 C 
ATOM     20  C   UNL     1      -8.030  -6.484 136.101  0.00  0.00    +0.000 C 
ENDBRANCH  17  19
ENDBRANCH   6  11
BRANCH   9  21
ATOM     21  C   UNL     1      -8.732   2.722 130.426  0.00  0.00    +0.000 A 
ATOM     22  C   UNL     1      -7.858   3.758 130.773  0.00  0.00    +0.000 A 
ATOM     23  C   UNL     1      -8.371   5.017 131.132  0.00  0.00    +0.000 A 
ATOM     24  C   UNL     1      -9.746   5.274 131.048  0.00  0.00    +0.000 A 
ATOM     25  C   UNL     1     -10.604   4.236 130.686  0.00  0.00    +0.000 A 
ATOM     26  C   UNL     1     -10.106   2.971 130.399  0.00  0.00    +0.000 A 
BRANCH  24  27
ATOM     27  O   UNL     1     -10.154   6.576 131.275  0.00  0.00    +0.000 OA
BRANCH  27  28
ATOM     28  C   UNL     1     -10.831   7.245 130.277  0.00  0.00    +0.000 A 
ATOM     29  C   UNL     1     -10.116   7.706 129.170  0.00  0.00    +0.000 A 
ATOM     30  C   UNL     1     -10.768   8.465 128.190  0.00  0.00    +0.000 A 
ATOM     31  C   UNL     1     -12.143   8.688 128.276  0.00  0.00    +0.000 A 
ATOM     32  C   UNL     1     -12.857   8.220 129.378  0.00  0.00    +0.000 A 
ATOM     33  C   UNL     1     -12.193   7.537 130.396  0.00  0.00    +0.000 A 
ENDBRANCH  27  28
ENDBRANCH  24  27
ENDBRANCH   9  21
BRANCH   1  35
ATOM     34  N   UNL     1      -6.974   2.315 127.139  0.00  0.00    +0.000 N 
ATOM     35  C   UNL     1      -8.124   1.667 127.514  0.00  0.00    +0.000 C 
ATOM     36  O   UNL     1      -9.109   1.704 126.799  0.00  0.00    +0.000 OA
ATOM     37  H   UNL     1      -6.976   2.736 126.219  0.00  0.00    +0.000 HD
ATOM     38  H   UNL     1      -6.101   2.190 127.628  0.00  0.00    +0.000 HD
ENDBRANCH   1  35
TORSDOF 6
ENDMDL
MODEL 4
REMARK VINA RESULT:      -9.0      3.921      8.790
REMARK  Name = Zanubrutinib
REMARK  6 active torsions:
REMARK  status: ('A' for Active; 'I' for Inactive)
REMARK    1  A    between atoms: C_2  and  C_4
REMARK    2  A    between atoms: C_9  and  C_10
REMARK    3  A    between atoms: C_16  and  C_18
REMARK    4  A    between atoms: C_22  and  C_23
REMARK    5  A    between atoms: C_26  and  O_27
REMARK    6  A    between atoms: O_27  and  C_28
REMARK                            x       y       z     vdW  Elec       q    Type
REMARK                         _______ _______ _______ _____ _____    ______ ____
ROOT
ATOM      1  C   UNL     1      -6.616   3.304 130.941  0.00  0.00    +0.000 A 
ATOM      2  C   UNL     1      -5.957   2.281 130.297  0.00  0.00    +0.000 A 
ATOM      3  N   UNL     1      -4.777   1.665 130.531  0.00  0.00    +0.000 N 
ATOM      4  C   UNL     1      -4.181   0.808 129.539  0.00  0.00    +0.000 C 
ATOM      5  C   UNL     1      -5.240   0.009 128.832  0.00  0.00    +0.000 C 
ATOM      6  C   UNL     1      -6.484   0.777 128.355  0.00  0.00    +0.000 C 
ATOM      7  N   UNL     1      -6.787   1.872 129.280  0.00  0.00    +0.000 N 
ATOM      8  N   UNL     1      -7.947   2.555 129.223  0.00  0.00    +0.000 NA
ATOM      9  C   UNL     1      -7.871   3.409 130.262  0.00  0.00    +0.000 A 
ATOM     10  H   UNL     1      -4.239   1.838 131.378  0.00  0.00    +0.000 HD
ENDROOT
BRANCH   6  11
ATOM     11  C   UNL     1      -7.720  -0.146 128.061  0.00  0.00    +0.000 C 
ATOM     12  C   UNL     1      -7.402  -1.658 128.112  0.00  0.00    +0.000 C 
ATOM     13  C   UNL     1      -6.681  -2.191 126.879  0.00  0.00    +0.000 C 
ATOM     14  N   UNL     1      -7.364  -1.765 125.644  0.00  0.00    +0.000 N 
ATOM     15  C   UNL     1      -7.679  -0.344 125.509  0.00  0.00    +0.000 C 
ATOM     16  C   UNL     1      -8.426   0.179 126.730  0.00  0.00    +0.000 C 
ATOM     17  C   UNL     1      -7.594  -2.728 124.679  0.00  0.00    +0.000 C 
ATOM     18  O   UNL     1      -7.252  -3.901 124.824  0.00  0.00    +0.000 OA
BRANCH  17  19
ATOM     19  C   UNL     1      -8.309  -2.313 123.441  0.00  0.00    +0.000 C 
ATOM     20  C   UNL     1      -9.507  -2.829 123.149  0.00  0.00    +0.000 C 
ENDBRANCH  17  19
ENDBRANCH   6  11
BRANCH   9  21
ATOM     21  C   UNL     1      -8.899   4.412 130.510  0.00  0.00    +0.000 A 
ATOM     22  C   UNL     1      -8.642   5.787 130.481  0.00  0.00    +0.000 A 
ATOM     23  C   UNL     1      -9.676   6.699 130.755  0.00  0.00    +0.000 A 
ATOM     24  C   UNL     1     -10.987   6.248 130.958  0.00  0.00    +0.000 A 
ATOM     25  C   UNL     1     -11.232   4.875 130.969  0.00  0.00    +0.000 A 
ATOM     26  C   UNL     1     -10.198   3.969 130.769  0.00  0.00    +0.000 A 
BRANCH  24  27
ATOM     27  O   UNL     1     -11.970   7.214 131.074  0.00  0.00    +0.000 OA
BRANCH  27  28
ATOM     28  C   UNL     1     -12.577   7.687 129.929  0.00  0.00    +0.000 A 
ATOM     29  C   UNL     1     -12.738   9.065 129.773  0.00  0.00    +0.000 A 
ATOM     30  C   UNL     1     -13.430   9.561 128.662  0.00  0.00    +0.000 A 
ATOM     31  C   UNL     1     -13.883   8.688 127.671  0.00  0.00    +0.000 A 
ATOM     32  C   UNL     1     -13.714   7.313 127.825  0.00  0.00    +0.000 A 
ATOM     33  C   UNL     1     -13.099   6.813 128.972  0.00  0.00    +0.000 A 
ENDBRANCH  27  28
ENDBRANCH  24  27
ENDBRANCH   9  21
BRANCH   1  35
ATOM     34  N   UNL     1      -5.245   5.080 131.756  0.00  0.00    +0.000 N 
ATOM     35  C   UNL     1      -6.165   4.109 132.059  0.00  0.00    +0.000 C 
ATOM     36  O   UNL     1      -6.599   4.007 133.192  0.00  0.00    +0.000 OA
ATOM     37  H   UNL     1      -5.026   5.736 132.494  0.00  0.00    +0.000 HD
ATOM     38  H   UNL     1      -4.973   5.287 130.807  0.00  0.00    +0.000 HD
ENDBRANCH   1  35
TORSDOF 6
ENDMDL
MODEL 5
REMARK VINA RESULT:      -9.0      5.106      6.388
REMARK  Name = Zanubrutinib
REMARK  6 active torsions:
REMARK  status: ('A' for Active; 'I' for Inactive)
REMARK    1  A    between atoms: C_2  and  C_4
REMARK    2  A    between atoms: C_9  and  C_10
REMARK    3  A    between atoms: C_16  and  C_18
REMARK    4  A    between atoms: C_22  and  C_23
REMARK    5  A    between atoms: C_26  and  O_27
REMARK    6  A    between atoms: O_27  and  C_28
REMARK                            x       y       z     vdW  Elec       q    Type
REMARK                         _______ _______ _______ _____ _____    ______ ____
ROOT
ATOM      1  C   UNL     1      -7.975  -1.846 126.733  0.00  0.00    +0.000 A 
ATOM      2  C   UNL     1      -7.556  -2.248 127.981  0.00  0.00    +0.000 A 
ATOM      3  N   UNL     1      -7.718  -3.399 128.671  0.00  0.00    +0.000 N 
ATOM      4  C   UNL     1      -7.418  -3.466 130.078  0.00  0.00    +0.000 C 
ATOM      5  C   UNL     1      -6.199  -2.646 130.394  0.00  0.00    +0.000 C 
ATOM      6  C   UNL     1      -6.138  -1.233 129.790  0.00  0.00    +0.000 C 
ATOM      7  N   UNL     1      -6.804  -1.213 128.484  0.00  0.00    +0.000 N 
ATOM      8  N   UNL     1      -6.698  -0.165 127.643  0.00  0.00    +0.000 NA
ATOM      9  C   UNL     1      -7.379  -0.558 126.550  0.00  0.00    +0.000 A 
ATOM     10  H   UNL     1      -8.120  -4.231 128.242  0.00  0.00    +0.000 HD
ENDROOT
BRANCH   6  11
ATOM     11  C   UNL     1      -4.692  -0.623 129.757  0.00  0.00    +0.000 C 
ATOM     12  C   UNL     1      -3.824  -0.999 130.979  0.00  0.00    +0.000 C 
ATOM     13  C   UNL     1      -4.149  -0.217 132.246  0.00  0.00    +0.000 C 
ATOM     14  N   UNL     1      -4.203   1.230 131.974  0.00  0.00    +0.000 N 
ATOM     15  C   UNL     1      -5.024   1.670 130.846  0.00  0.00    +0.000 C 
ATOM     16  C   UNL     1      -4.675   0.907 129.573  0.00  0.00    +0.000 C 
ATOM     17  C   UNL     1      -3.529   2.067 132.843  0.00  0.00    +0.000 C 
ATOM     18  O   UNL     1      -2.902   1.643 133.812  0.00  0.00    +0.000 OA
BRANCH  17  19
ATOM     19  C   UNL     1      -3.554   3.529 132.558  0.00  0.00    +0.000 C 
ATOM     20  C   UNL     1      -2.423   4.176 132.257  0.00  0.00    +0.000 C 
ENDBRANCH  17  19
ENDBRANCH   6  11
BRANCH   9  21
ATOM     21  C   UNL     1      -7.592   0.333 125.416  0.00  0.00    +0.000 A 
ATOM     22  C   UNL     1      -7.004   0.122 124.164  0.00  0.00    +0.000 A 
ATOM     23  C   UNL     1      -7.232   1.035 123.119  0.00  0.00    +0.000 A 
ATOM     24  C   UNL     1      -8.125   2.101 123.290  0.00  0.00    +0.000 A 
ATOM     25  C   UNL     1      -8.717   2.290 124.539  0.00  0.00    +0.000 A 
ATOM     26  C   UNL     1      -8.438   1.430 125.593  0.00  0.00    +0.000 A 
BRANCH  24  27
ATOM     27  O   UNL     1      -8.408   2.865 122.173  0.00  0.00    +0.000 OA
BRANCH  27  28
ATOM     28  C   UNL     1      -7.379   3.541 121.550  0.00  0.00    +0.000 A 
ATOM     29  C   UNL     1      -7.536   3.929 120.218  0.00  0.00    +0.000 A 
ATOM     30  C   UNL     1      -6.471   4.535 119.542  0.00  0.00    +0.000 A 
ATOM     31  C   UNL     1      -5.286   4.828 120.220  0.00  0.00    +0.000 A 
ATOM     32  C   UNL     1      -5.134   4.449 121.552  0.00  0.00    +0.000 A 
ATOM     33  C   UNL     1      -6.164   3.768 122.202  0.00  0.00    +0.000 A 
ENDBRANCH  27  28
ENDBRANCH  24  27
ENDBRANCH   9  21
BRANCH   1  35
ATOM     34  N   UNL     1      -8.192  -3.463 124.990  0.00  0.00    +0.000 N 
ATOM     35  C   UNL     1      -8.826  -2.548 125.793  0.00  0.00    +0.000 C 
ATOM     36  O   UNL     1     -10.034  -2.415 125.734  0.00  0.00    +0.000 OA
ATOM     37  H   UNL     1      -8.788  -4.057 124.429  0.00  0.00    +0.000 HD
ATOM     38  H   UNL     1      -7.219  -3.703 125.110  0.00  0.00    +0.000 HD
ENDBRANCH   1  35
TORSDOF 6
ENDMDL
MODEL 6
REMARK VINA RESULT:      -8.9      6.425      9.101
REMARK  Name = Zanubrutinib
REMARK  6 active torsions:
REMARK  status: ('A' for Active; 'I' for Inactive)
REMARK    1  A    between atoms: C_2  and  C_4
REMARK    2  A    between atoms: C_9  and  C_10
REMARK    3  A    between atoms: C_16  and  C_18
REMARK    4  A    between atoms: C_22  and  C_23
REMARK    5  A    between atoms: C_26  and  O_27
REMARK    6  A    between atoms: O_27  and  C_28
REMARK                            x       y       z     vdW  Elec       q    Type
REMARK                         _______ _______ _______ _____ _____    ______ ____
ROOT
ATOM      1  C   UNL     1      -5.524   4.402 133.835  0.00  0.00    +0.000 A 
ATOM      2  C   UNL     1      -6.762   3.965 133.420  0.00  0.00    +0.000 A 
ATOM      3  N   UNL     1      -7.505   2.884 133.744  0.00  0.00    +0.000 N 
ATOM      4  C   UNL     1      -8.650   2.510 132.956  0.00  0.00    +0.000 C 
ATOM      5  C   UNL     1      -9.391   3.733 132.492  0.00  0.00    +0.000 C 
ATOM      6  C   UNL     1      -8.544   4.871 131.898  0.00  0.00    +0.000 C 
ATOM      7  N   UNL     1      -7.236   4.925 132.557  0.00  0.00    +0.000 N 
ATOM      8  N   UNL     1      -6.393   5.962 132.388  0.00  0.00    +0.000 NA
ATOM      9  C   UNL     1      -5.357   5.672 133.197  0.00  0.00    +0.000 A 
ATOM     10  H   UNL     1      -7.244   2.262 134.508  0.00  0.00    +0.000 HD
ENDROOT
BRANCH   6  11
ATOM     11  C   UNL     1      -9.282   6.257 131.872  0.00  0.00    +0.000 C 
ATOM     12  C   UNL     1     -10.813   6.157 132.058  0.00  0.00    +0.000 C 
ATOM     13  C   UNL     1     -11.570   5.705 130.814  0.00  0.00    +0.000 C 
ATOM     14  N   UNL     1     -11.161   6.488 129.634  0.00  0.00    +0.000 N 
ATOM     15  C   UNL     1      -9.727   6.610 129.375  0.00  0.00    +0.000 C 
ATOM     16  C   UNL     1      -8.977   7.091 130.612  0.00  0.00    +0.000 C 
ATOM     17  C   UNL     1     -12.162   6.990 128.825  0.00  0.00    +0.000 C 
ATOM     18  O   UNL     1     -13.355   6.805 129.061  0.00  0.00    +0.000 OA
BRANCH  17  19
ATOM     19  C   UNL     1     -11.758   7.807 127.647  0.00  0.00    +0.000 C 
ATOM     20  C   UNL     1     -11.759   7.271 126.423  0.00  0.00    +0.000 C 
ENDBRANCH  17  19
ENDBRANCH   6  11
BRANCH   9  21
ATOM     21  C   UNL     1      -4.162   6.506 133.247  0.00  0.00    +0.000 A 
ATOM     22  C   UNL     1      -3.442   6.870 132.103  0.00  0.00    +0.000 A 
ATOM     23  C   UNL     1      -2.283   7.657 132.226  0.00  0.00    +0.000 A 
ATOM     24  C   UNL     1      -1.898   8.164 133.474  0.00  0.00    +0.000 A 
ATOM     25  C   UNL     1      -2.633   7.806 134.603  0.00  0.00    +0.000 A 
ATOM     26  C   UNL     1      -3.738   6.971 134.494  0.00  0.00    +0.000 A 
BRANCH  24  27
ATOM     27  O   UNL     1      -0.834   9.048 133.488  0.00  0.00    +0.000 OA
BRANCH  27  28
ATOM     28  C   UNL     1      -1.080  10.389 133.279  0.00  0.00    +0.000 A 
ATOM     29  C   UNL     1      -0.028  11.212 132.874  0.00  0.00    +0.000 A 
ATOM     30  C   UNL     1      -0.235  12.591 132.744  0.00  0.00    +0.000 A 
ATOM     31  C   UNL     1      -1.509  13.129 132.935  0.00  0.00    +0.000 A 
ATOM     32  C   UNL     1      -2.561  12.305 133.330  0.00  0.00    +0.000 A 
ATOM     33  C   UNL     1      -2.335  10.945 133.543  0.00  0.00    +0.000 A 
ENDBRANCH  27  28
ENDBRANCH  24  27
ENDBRANCH   9  21
BRANCH   1  35
ATOM     34  N   UNL     1      -4.898   3.784 136.054  0.00  0.00    +0.000 N 
ATOM     35  C   UNL     1      -4.582   3.745 134.719  0.00  0.00    +0.000 C 
ATOM     36  O   UNL     1      -3.601   3.133 134.339  0.00  0.00    +0.000 OA
ATOM     37  H   UNL     1      -4.328   3.215 136.666  0.00  0.00    +0.000 HD
ATOM     38  H   UNL     1      -5.773   4.156 136.390  0.00  0.00    +0.000 HD
ENDBRANCH   1  35
TORSDOF 6
ENDMDL
MODEL 7
REMARK VINA RESULT:      -8.9      3.858      4.715
REMARK  Name = Zanubrutinib
REMARK  6 active torsions:
REMARK  status: ('A' for Active; 'I' for Inactive)
REMARK    1  A    between atoms: C_2  and  C_4
REMARK    2  A    between atoms: C_9  and  C_10
REMARK    3  A    between atoms: C_16  and  C_18
REMARK    4  A    between atoms: C_22  and  C_23
REMARK    5  A    between atoms: C_26  and  O_27
REMARK    6  A    between atoms: O_27  and  C_28
REMARK                            x       y       z     vdW  Elec       q    Type
REMARK                         _______ _______ _______ _____ _____    ______ ____
ROOT
ATOM      1  C   UNL     1      -7.267   0.884 131.909  0.00  0.00    +0.000 A 
ATOM      2  C   UNL     1      -7.668   2.023 132.570  0.00  0.00    +0.000 A 
ATOM      3  N   UNL     1      -7.359   2.532 133.783  0.00  0.00    +0.000 N 
ATOM      4  C   UNL     1      -8.133   3.602 134.356  0.00  0.00    +0.000 C 
ATOM      5  C   UNL     1      -8.544   4.580 133.291  0.00  0.00    +0.000 C 
ATOM      6  C   UNL     1      -9.124   3.989 131.995  0.00  0.00    +0.000 C 
ATOM      7  N   UNL     1      -8.492   2.699 131.702  0.00  0.00    +0.000 N 
ATOM      8  N   UNL     1      -8.650   2.079 130.515  0.00  0.00    +0.000 NA
ATOM      9  C   UNL     1      -7.871   0.986 130.616  0.00  0.00    +0.000 A 
ATOM     10  H   UNL     1      -6.619   2.134 134.360  0.00  0.00    +0.000 HD
ENDROOT
BRANCH   6  11
ATOM     11  C   UNL     1      -9.094   4.983 130.781  0.00  0.00    +0.000 C 
ATOM     12  C   UNL     1      -9.294   6.464 131.176  0.00  0.00    +0.000 C 
ATOM     13  C   UNL     1     -10.737   6.845 131.482  0.00  0.00    +0.000 C 
ATOM     14  N   UNL     1     -11.642   6.385 130.413  0.00  0.00    +0.000 N 
ATOM     15  C   UNL     1     -11.532   4.987 129.998  0.00  0.00    +0.000 C 
ATOM     16  C   UNL     1     -10.091   4.618 129.663  0.00  0.00    +0.000 C 
ATOM     17  C   UNL     1     -12.570   7.289 129.932  0.00  0.00    +0.000 C 
ATOM     18  O   UNL     1     -12.656   8.438 130.363  0.00  0.00    +0.000 OA
BRANCH  17  19
ATOM     19  C   UNL     1     -13.468   6.842 128.832  0.00  0.00    +0.000 C 
ATOM     20  C   UNL     1     -13.240   7.234 127.574  0.00  0.00    +0.000 C 
ENDBRANCH  17  19
ENDBRANCH   6  11
BRANCH   9  21
ATOM     21  C   UNL     1      -7.824  -0.024 129.566  0.00  0.00    +0.000 A 
ATOM     22  C   UNL     1      -7.905  -1.397 129.828  0.00  0.00    +0.000 A 
ATOM     23  C   UNL     1      -7.828  -2.318 128.768  0.00  0.00    +0.000 A 
ATOM     24  C   UNL     1      -7.771  -1.871 127.441  0.00  0.00    +0.000 A 
ATOM     25  C   UNL     1      -7.707  -0.501 127.194  0.00  0.00    +0.000 A 
ATOM     26  C   UNL     1      -7.712   0.410 128.243  0.00  0.00    +0.000 A 
BRANCH  24  27
ATOM     27  O   UNL     1      -7.847  -2.836 126.453  0.00  0.00    +0.000 OA
BRANCH  27  28
ATOM     28  C   UNL     1      -7.260  -2.586 125.231  0.00  0.00    +0.000 A 
ATOM     29  C   UNL     1      -8.070  -2.211 124.158  0.00  0.00    +0.000 A 
ATOM     30  C   UNL     1      -7.505  -2.040 122.888  0.00  0.00    +0.000 A 
ATOM     31  C   UNL     1      -6.126  -2.159 122.713  0.00  0.00    +0.000 A 
ATOM     32  C   UNL     1      -5.317  -2.525 123.787  0.00  0.00    +0.000 A 
ATOM     33  C   UNL     1      -5.890  -2.779 125.033  0.00  0.00    +0.000 A 
ENDBRANCH  27  28
ENDBRANCH  24  27
ENDBRANCH   9  21
BRANCH   1  35
ATOM     34  N   UNL     1      -5.122  -0.162 131.954  0.00  0.00    +0.000 N 
ATOM     35  C   UNL     1      -6.423  -0.192 132.390  0.00  0.00    +0.000 C 
ATOM     36  O   UNL     1      -6.786  -1.044 133.180  0.00  0.00    +0.000 OA
ATOM     37  H   UNL     1      -4.489  -0.821 132.388  0.00  0.00    +0.000 HD
ATOM     38  H   UNL     1      -4.751   0.607 131.417  0.00  0.00    +0.000 HD
ENDBRANCH   1  35
TORSDOF 6
ENDMDL
MODEL 8
REMARK VINA RESULT:      -8.9      7.159      9.688
REMARK  Name = Zanubrutinib
REMARK  6 active torsions:
REMARK  status: ('A' for Active; 'I' for Inactive)
REMARK    1  A    between atoms: C_2  and  C_4
REMARK    2  A    between atoms: C_9  and  C_10
REMARK    3  A    between atoms: C_16  and  C_18
REMARK    4  A    between atoms: C_22  and  C_23
REMARK    5  A    between atoms: C_26  and  O_27
REMARK    6  A    between atoms: O_27  and  C_28
REMARK                            x       y       z     vdW  Elec       q    Type
REMARK                         _______ _______ _______ _____ _____    ______ ____
ROOT
ATOM      1  C   UNL     1      -4.444  -3.366 130.907  0.00  0.00    +0.000 A 
ATOM      2  C   UNL     1      -4.234  -3.767 132.207  0.00  0.00    +0.000 A 
ATOM      3  N   UNL     1      -3.111  -4.049 132.905  0.00  0.00    +0.000 N 
ATOM      4  C   UNL     1      -3.180  -4.719 134.177  0.00  0.00    +0.000 C 
ATOM      5  C   UNL     1      -4.368  -4.235 134.961  0.00  0.00    +0.000 C 
ATOM      6  C   UNL     1      -5.705  -4.145 134.208  0.00  0.00    +0.000 C 
ATOM      7  N   UNL     1      -5.472  -3.795 132.804  0.00  0.00    +0.000 N 
ATOM      8  N   UNL     1      -6.475  -3.432 131.981  0.00  0.00    +0.000 NA
ATOM      9  C   UNL     1      -5.853  -3.129 130.826  0.00  0.00    +0.000 A 
ATOM     10  H   UNL     1      -2.183  -3.863 132.528  0.00  0.00    +0.000 HD
ENDROOT
BRANCH   6  11
ATOM     11  C   UNL     1      -6.763  -3.222 134.909  0.00  0.00    +0.000 C 
ATOM     12  C   UNL     1      -6.549  -3.064 136.432  0.00  0.00    +0.000 C 
ATOM     13  C   UNL     1      -7.010  -4.259 137.259  0.00  0.00    +0.000 C 
ATOM     14  N   UNL     1      -8.378  -4.661 136.886  0.00  0.00    +0.000 N 
ATOM     15  C   UNL     1      -8.656  -4.854 135.464  0.00  0.00    +0.000 C 
ATOM     16  C   UNL     1      -8.221  -3.645 134.643  0.00  0.00    +0.000 C 
ATOM     17  C   UNL     1      -9.275  -4.891 137.912  0.00  0.00    +0.000 C 
ATOM     18  O   UNL     1      -8.968  -4.770 139.097  0.00  0.00    +0.000 OA
BRANCH  17  19
ATOM     19  C   UNL     1     -10.668  -5.270 137.544  0.00  0.00    +0.000 C 
ATOM     20  C   UNL     1     -11.706  -4.599 138.053  0.00  0.00    +0.000 C 
ENDBRANCH  17  19
ENDBRANCH   6  11
BRANCH   9  21
ATOM     21  C   UNL     1      -6.595  -2.771 129.624  0.00  0.00    +0.000 A 
ATOM     22  C   UNL     1      -6.301  -1.636 128.859  0.00  0.00    +0.000 A 
ATOM     23  C   UNL     1      -7.074  -1.337 127.723  0.00  0.00    +0.000 A 
ATOM     24  C   UNL     1      -8.073  -2.218 127.291  0.00  0.00    +0.000 A 
ATOM     25  C   UNL     1      -8.345  -3.353 128.054  0.00  0.00    +0.000 A 
ATOM     26  C   UNL     1      -7.630  -3.615 129.216  0.00  0.00    +0.000 A 
BRANCH  24  27
ATOM     27  O   UNL     1      -8.686  -1.927 126.086  0.00  0.00    +0.000 OA
BRANCH  27  28
ATOM     28  C   UNL     1      -7.917  -1.877 124.943  0.00  0.00    +0.000 A 
ATOM     29  C   UNL     1      -7.091  -2.961 124.639  0.00  0.00    +0.000 A 
ATOM     30  C   UNL     1      -6.236  -2.894 123.533  0.00  0.00    +0.000 A 
ATOM     31  C   UNL     1      -6.270  -1.784 122.687  0.00  0.00    +0.000 A 
ATOM     32  C   UNL     1      -7.102  -0.706 122.987  0.00  0.00    +0.000 A 
ATOM     33  C   UNL     1      -7.891  -0.736 124.136  0.00  0.00    +0.000 A 
ENDBRANCH  27  28
ENDBRANCH  24  27
ENDBRANCH   9  21
BRANCH   1  35
ATOM     34  N   UNL     1      -2.639  -2.130 129.954  0.00  0.00    +0.000 N 
ATOM     35  C   UNL     1      -3.477  -3.210 129.839  0.00  0.00    +0.000 C 
ATOM     36  O   UNL     1      -3.339  -3.998 128.921  0.00  0.00    +0.000 OA
ATOM     37  H   UNL     1      -1.872  -2.085 129.295  0.00  0.00    +0.000 HD
ATOM     38  H   UNL     1      -2.628  -1.540 130.772  0.00  0.00    +0.000 HD
ENDBRANCH   1  35
TORSDOF 6
ENDMDL
MODEL 9
REMARK VINA RESULT:      -8.8      3.264      4.724
REMARK  Name = Zanubrutinib
REMARK  6 active torsions:
REMARK  status: ('A' for Active; 'I' for Inactive)
REMARK    1  A    between atoms: C_2  and  C_4
REMARK    2  A    between atoms: C_9  and  C_10
REMARK    3  A    between atoms: C_16  and  C_18
REMARK    4  A    between atoms: C_22  and  C_23
REMARK    5  A    between atoms: C_26  and  O_27
REMARK    6  A    between atoms: O_27  and  C_28
REMARK                            x       y       z     vdW  Elec       q    Type
REMARK                         _______ _______ _______ _____ _____    ______ ____
ROOT
ATOM      1  C   UNL     1      -5.463   4.179 128.411  0.00  0.00    +0.000 A 
ATOM      2  C   UNL     1      -5.658   4.729 129.658  0.00  0.00    +0.000 A 
ATOM      3  N   UNL     1      -5.312   5.920 130.195  0.00  0.00    +0.000 N 
ATOM      4  C   UNL     1      -5.390   6.141 131.616  0.00  0.00    +0.000 C 
ATOM      5  C   UNL     1      -6.602   5.461 132.187  0.00  0.00    +0.000 C 
ATOM      6  C   UNL     1      -6.854   4.009 131.747  0.00  0.00    +0.000 C 
ATOM      7  N   UNL     1      -6.396   3.813 130.368  0.00  0.00    +0.000 N 
ATOM      8  N   UNL     1      -6.703   2.705 129.665  0.00  0.00    +0.000 NA
ATOM      9  C   UNL     1      -6.170   2.936 128.450  0.00  0.00    +0.000 A 
ATOM     10  H   UNL     1      -4.922   6.672 129.629  0.00  0.00    +0.000 HD
ENDROOT
BRANCH   6  11
ATOM     11  C   UNL     1      -8.328   3.525 131.986  0.00  0.00    +0.000 C 
ATOM     12  C   UNL     1      -9.118   3.251 130.685  0.00  0.00    +0.000 C 
ATOM     13  C   UNL     1      -9.620   4.504 129.978  0.00  0.00    +0.000 C 
ATOM     14  N   UNL     1     -10.314   5.399 130.921  0.00  0.00    +0.000 N 
ATOM     15  C   UNL     1      -9.621   5.727 132.167  0.00  0.00    +0.000 C 
ATOM     16  C   UNL     1      -9.147   4.470 132.887  0.00  0.00    +0.000 C 
ATOM     17  C   UNL     1     -11.535   5.915 130.529  0.00  0.00    +0.000 C 
ATOM     18  O   UNL     1     -12.042   5.650 129.441  0.00  0.00    +0.000 OA
BRANCH  17  19
ATOM     19  C   UNL     1     -12.256   6.797 131.488  0.00  0.00    +0.000 C 
ATOM     20  C   UNL     1     -12.904   7.881 131.050  0.00  0.00    +0.000 C 
ENDBRANCH  17  19
ENDBRANCH   6  11
BRANCH   9  21
ATOM     21  C   UNL     1      -6.195   1.930 127.395  0.00  0.00    +0.000 A 
ATOM     22  C   UNL     1      -6.992   2.049 126.251  0.00  0.00    +0.000 A 
ATOM     23  C   UNL     1      -6.986   1.028 125.284  0.00  0.00    +0.000 A 
ATOM     24  C   UNL     1      -6.113  -0.061 125.405  0.00  0.00    +0.000 A 
ATOM     25  C   UNL     1      -5.313  -0.158 126.543  0.00  0.00    +0.000 A 
ATOM     26  C   UNL     1      -5.368   0.813 127.535  0.00  0.00    +0.000 A 
BRANCH  24  27
ATOM     27  O   UNL     1      -6.063  -0.943 124.341  0.00  0.00    +0.000 OA
BRANCH  27  28
ATOM     28  C   UNL     1      -7.127  -1.795 124.131  0.00  0.00    +0.000 A 
ATOM     29  C   UNL     1      -7.981  -1.553 123.054  0.00  0.00    +0.000 A 
ATOM     30  C   UNL     1      -9.117  -2.352 122.877  0.00  0.00    +0.000 A 
ATOM     31  C   UNL     1      -9.350  -3.438 123.722  0.00  0.00    +0.000 A 
ATOM     32  C   UNL     1      -8.491  -3.684 124.791  0.00  0.00    +0.000 A 
ATOM     33  C   UNL     1      -7.406  -2.837 125.020  0.00  0.00    +0.000 A 
ENDBRANCH  27  28
ENDBRANCH  24  27
ENDBRANCH   9  21
BRANCH   1  35
ATOM     34  N   UNL     1      -3.483   4.155 127.077  0.00  0.00    +0.000 N 
ATOM     35  C   UNL     1      -4.717   4.717 127.291  0.00  0.00    +0.000 C 
ATOM     36  O   UNL     1      -5.146   5.562 126.527  0.00  0.00    +0.000 OA
ATOM     37  H   UNL     1      -3.012   4.420 126.223  0.00  0.00    +0.000 HD
ATOM     38  H   UNL     1      -3.157   3.357 127.600  0.00  0.00    +0.000 HD
ENDBRANCH   1  35
TORSDOF 6
ENDMDL
