MODEL 1
REMARK VINA RESULT:      -8.7      0.000      0.000
REMARK  Name = Zeaxanthin
REMARK  22 active torsions:
REMARK  status: ('A' for Active; 'I' for Inactive)
REMARK    1  A    between atoms: C_1  and  C_2
REMARK    2  A    between atoms: C_2  and  C_3
REMARK    3  A    between atoms: C_4  and  C_5
REMARK    4  A    between atoms: C_6  and  C_7
REMARK    5  A    between atoms: C_6  and  C_8
REMARK    6  A    between atoms: C_9  and  C_10
REMARK    7  A    between atoms: C_11  and  C_12
REMARK    8  A    between atoms: C_14  and  O_15
REMARK    9  A    between atoms: C_17  and  C_18
REMARK   10  A    between atoms: C_17  and  C_19
REMARK   11  A    between atoms: C_20  and  C_21
REMARK   12  A    between atoms: C_22  and  C_23
REMARK   13  A    between atoms: C_24  and  C_25
REMARK   14  A    between atoms: C_24  and  C_26
REMARK   15  A    between atoms: C_27  and  C_28
REMARK   16  A    between atoms: C_29  and  C_30
REMARK   17  A    between atoms: C_29  and  C_31
REMARK   18  A    between atoms: C_32  and  C_33
REMARK   19  A    between atoms: C_34  and  C_35
REMARK   20  A    between atoms: C_37  and  O_38
REMARK   21  A    between atoms: C_40  and  C_41
REMARK   22  A    between atoms: C_40  and  C_42
REMARK                            x       y       z     vdW  Elec       q    Type
REMARK                         _______ _______ _______ _____ _____    ______ ____
ROOT
ATOM      1  C   UNL     1      -7.473   5.766 135.405  0.00  0.00    +0.000 C 
ATOM      2  C   UNL     1      -7.982   5.603 134.176  0.00  0.00    +0.000 C 
ENDROOT
BRANCH   1   5
ATOM      3  C   UNL     1      -6.510   5.840 138.126  0.00  0.00    +0.000 C 
ATOM      4  C   UNL     1      -7.624   6.760 137.667  0.00  0.00    +0.000 C 
ATOM      5  C   UNL     1      -8.039   6.686 136.381  0.00  0.00    +0.000 C 
BRANCH   4   6
ATOM      6  C   UNL     1      -8.242   7.712 138.599  0.00  0.00    +0.000 C 
ATOM      7  C   UNL     1      -9.044   8.716 138.203  0.00  0.00    +0.000 C 
BRANCH   7   8
ATOM      8  C   UNL     1      -9.718   9.705 139.007  0.00  0.00    +0.000 C 
ATOM      9  C   UNL     1      -9.103  10.804 139.513  0.00  0.00    +0.000 C 
ATOM     10  C   UNL     1      -7.640  11.137 139.324  0.00  0.00    +0.000 C 
BRANCH   9  11
ATOM     11  C   UNL     1      -9.886  11.773 140.277  0.00  0.00    +0.000 C 
ATOM     12  C   UNL     1      -9.674  13.102 140.342  0.00  0.00    +0.000 C 
BRANCH  12  13
ATOM     13  C   UNL     1     -10.438  14.104 141.097  0.00  0.00    +0.000 C 
ATOM     14  C   UNL     1     -11.146  15.030 140.411  0.00  0.00    +0.000 C 
ATOM     15  C   UNL     1     -11.319  15.051 138.906  0.00  0.00    +0.000 C 
ATOM     16  C   UNL     1     -11.846  16.189 141.061  0.00  0.00    +0.000 C 
ATOM     17  C   UNL     1     -11.893  16.250 142.579  0.00  0.00    +0.000 C 
ATOM     18  C   UNL     1     -10.992  15.332 143.371  0.00  0.00    +0.000 C 
ATOM     19  C   UNL     1     -10.266  14.177 142.626  0.00  0.00    +0.000 C 
ATOM     20  C   UNL     1      -8.766  14.418 142.914  0.00  0.00    +0.000 C 
ATOM     21  C   UNL     1     -10.806  12.896 143.299  0.00  0.00    +0.000 C 
BRANCH  17  22
ATOM     22  O   UNL     1     -13.238  15.988 143.000  0.00  0.00    +0.000 OA
ATOM     23  H   UNL     1     -13.182  15.265 143.651  0.00  0.00    +0.000 HD
ENDBRANCH  17  22
ENDBRANCH  12  13
ENDBRANCH   9  11
ENDBRANCH   7   8
ENDBRANCH   4   6
ENDBRANCH   1   5
BRANCH   2  24
ATOM     24  C   UNL     1      -7.442   4.693 133.180  0.00  0.00    +0.000 C 
ATOM     25  C   UNL     1      -8.044   3.550 132.779  0.00  0.00    +0.000 C 
ATOM     26  C   UNL     1      -9.377   3.100 133.340  0.00  0.00    +0.000 C 
BRANCH  25  27
ATOM     27  C   UNL     1      -7.418   2.686 131.759  0.00  0.00    +0.000 C 
ATOM     28  C   UNL     1      -8.131   2.001 130.847  0.00  0.00    +0.000 C 
BRANCH  28  29
ATOM     29  C   UNL     1      -7.646   1.142 129.788  0.00  0.00    +0.000 C 
ATOM     30  C   UNL     1      -7.717  -0.213 129.815  0.00  0.00    +0.000 C 
ATOM     31  C   UNL     1      -8.275  -1.020 130.961  0.00  0.00    +0.000 C 
BRANCH  30  32
ATOM     32  C   UNL     1      -7.257  -0.988 128.661  0.00  0.00    +0.000 C 
ATOM     33  C   UNL     1      -7.640  -0.845 127.377  0.00  0.00    +0.000 C 
BRANCH  33  34
ATOM     34  C   UNL     1      -7.217  -1.663 126.226  0.00  0.00    +0.000 C 
ATOM     35  C   UNL     1      -6.100  -1.328 125.544  0.00  0.00    +0.000 C 
ATOM     36  C   UNL     1      -5.161  -0.199 125.909  0.00  0.00    +0.000 C 
ATOM     37  C   UNL     1      -5.644  -2.039 124.299  0.00  0.00    +0.000 C 
ATOM     38  C   UNL     1      -6.391  -3.287 123.860  0.00  0.00    +0.000 C 
ATOM     39  C   UNL     1      -7.734  -3.586 124.483  0.00  0.00    +0.000 C 
ATOM     40  C   UNL     1      -8.163  -2.780 125.740  0.00  0.00    +0.000 C 
ATOM     41  C   UNL     1      -9.499  -2.114 125.334  0.00  0.00    +0.000 C 
ATOM     42  C   UNL     1      -8.348  -3.854 126.834  0.00  0.00    +0.000 C 
BRANCH  38  43
ATOM     43  O   UNL     1      -5.554  -4.426 124.101  0.00  0.00    +0.000 OA
ATOM     44  H   UNL     1      -4.669  -4.188 123.769  0.00  0.00    +0.000 HD
ENDBRANCH  38  43
ENDBRANCH  33  34
ENDBRANCH  30  32
ENDBRANCH  28  29
ENDBRANCH  25  27
ENDBRANCH   2  24
TORSDOF 12
ENDMDL
MODEL 2
REMARK VINA RESULT:      -8.6      1.718     18.661
REMARK  Name = Zeaxanthin
REMARK  22 active torsions:
REMARK  status: ('A' for Active; 'I' for Inactive)
REMARK    1  A    between atoms: C_1  and  C_2
REMARK    2  A    between atoms: C_2  and  C_3
REMARK    3  A    between atoms: C_4  and  C_5
REMARK    4  A    between atoms: C_6  and  C_7
REMARK    5  A    between atoms: C_6  and  C_8
REMARK    6  A    between atoms: C_9  and  C_10
REMARK    7  A    between atoms: C_11  and  C_12
REMARK    8  A    between atoms: C_14  and  O_15
REMARK    9  A    between atoms: C_17  and  C_18
REMARK   10  A    between atoms: C_17  and  C_19
REMARK   11  A    between atoms: C_20  and  C_21
REMARK   12  A    between atoms: C_22  and  C_23
REMARK   13  A    between atoms: C_24  and  C_25
REMARK   14  A    between atoms: C_24  and  C_26
REMARK   15  A    between atoms: C_27  and  C_28
REMARK   16  A    between atoms: C_29  and  C_30
REMARK   17  A    between atoms: C_29  and  C_31
REMARK   18  A    between atoms: C_32  and  C_33
REMARK   19  A    between atoms: C_34  and  C_35
REMARK   20  A    between atoms: C_37  and  O_38
REMARK   21  A    between atoms: C_40  and  C_41
REMARK   22  A    between atoms: C_40  and  C_42
REMARK                            x       y       z     vdW  Elec       q    Type
REMARK                         _______ _______ _______ _____ _____    ______ ____
ROOT
ATOM      1  C   UNL     1      -8.692   4.137 134.543  0.00  0.00    +0.000 C 
ATOM      2  C   UNL     1      -7.854   5.181 134.594  0.00  0.00    +0.000 C 
ENDROOT
BRANCH   1   5
ATOM      3  C   UNL     1      -6.492   2.295 134.222  0.00  0.00    +0.000 C 
ATOM      4  C   UNL     1      -7.670   2.277 133.270  0.00  0.00    +0.000 C 
ATOM      5  C   UNL     1      -8.676   3.161 133.463  0.00  0.00    +0.000 C 
BRANCH   4   6
ATOM      6  C   UNL     1      -7.720   1.319 132.157  0.00  0.00    +0.000 C 
ATOM      7  C   UNL     1      -8.021   1.671 130.894  0.00  0.00    +0.000 C 
BRANCH   7   8
ATOM      8  C   UNL     1      -8.092   0.842 129.717  0.00  0.00    +0.000 C 
ATOM      9  C   UNL     1      -7.086   0.741 128.811  0.00  0.00    +0.000 C 
ATOM     10  C   UNL     1      -5.772   1.483 128.895  0.00  0.00    +0.000 C 
BRANCH   9  11
ATOM     11  C   UNL     1      -7.238  -0.165 127.673  0.00  0.00    +0.000 C 
ATOM     12  C   UNL     1      -8.363  -0.381 126.965  0.00  0.00    +0.000 C 
BRANCH  12  13
ATOM     13  C   UNL     1      -8.551  -1.281 125.819  0.00  0.00    +0.000 C 
ATOM     14  C   UNL     1      -8.670  -2.608 126.051  0.00  0.00    +0.000 C 
ATOM     15  C   UNL     1      -8.748  -3.246 127.422  0.00  0.00    +0.000 C 
ATOM     16  C   UNL     1      -8.718  -3.640 124.960  0.00  0.00    +0.000 C 
ATOM     17  C   UNL     1      -8.790  -3.168 123.517  0.00  0.00    +0.000 C 
ATOM     18  C   UNL     1      -8.505  -1.716 123.212  0.00  0.00    +0.000 C 
ATOM     19  C   UNL     1      -8.428  -0.709 124.394  0.00  0.00    +0.000 C 
ATOM     20  C   UNL     1      -7.022  -0.076 124.268  0.00  0.00    +0.000 C 
ATOM     21  C   UNL     1      -9.564   0.296 124.107  0.00  0.00    +0.000 C 
BRANCH  17  22
ATOM     22  O   UNL     1     -10.100  -3.455 123.012  0.00  0.00    +0.000 OA
ATOM     23  H   UNL     1     -10.066  -3.277 122.055  0.00  0.00    +0.000 HD
ENDBRANCH  17  22
ENDBRANCH  12  13
ENDBRANCH   9  11
ENDBRANCH   7   8
ENDBRANCH   4   6
ENDBRANCH   1   5
BRANCH   2  24
ATOM     24  C   UNL     1      -7.843   6.171 135.658  0.00  0.00    +0.000 C 
ATOM     25  C   UNL     1      -7.000   6.152 136.716  0.00  0.00    +0.000 C 
ATOM     26  C   UNL     1      -5.954   5.070 136.895  0.00  0.00    +0.000 C 
BRANCH  25  27
ATOM     27  C   UNL     1      -7.063   7.202 137.751  0.00  0.00    +0.000 C 
ATOM     28  C   UNL     1      -7.463   8.459 137.490  0.00  0.00    +0.000 C 
BRANCH  28  29
ATOM     29  C   UNL     1      -7.591   9.570 138.409  0.00  0.00    +0.000 C 
ATOM     30  C   UNL     1      -8.778  10.100 138.802  0.00  0.00    +0.000 C 
ATOM     31  C   UNL     1     -10.127   9.636 138.313  0.00  0.00    +0.000 C 
BRANCH  30  32
ATOM     32  C   UNL     1      -8.800  11.182 139.788  0.00  0.00    +0.000 C 
ATOM     33  C   UNL     1      -9.769  12.101 139.969  0.00  0.00    +0.000 C 
BRANCH  33  34
ATOM     34  C   UNL     1      -9.762  13.222 140.925  0.00  0.00    +0.000 C 
ATOM     35  C   UNL     1     -10.158  13.015 142.201  0.00  0.00    +0.000 C 
ATOM     36  C   UNL     1     -10.545  11.675 142.786  0.00  0.00    +0.000 C 
ATOM     37  C   UNL     1     -10.282  14.115 143.220  0.00  0.00    +0.000 C 
ATOM     38  C   UNL     1      -9.804  15.508 142.848  0.00  0.00    +0.000 C 
ATOM     39  C   UNL     1      -9.528  15.816 141.395  0.00  0.00    +0.000 C 
ATOM     40  C   UNL     1      -9.461  14.636 140.387  0.00  0.00    +0.000 C 
ATOM     41  C   UNL     1     -10.539  14.970 139.329  0.00  0.00    +0.000 C 
ATOM     42  C   UNL     1      -8.029  14.708 139.814  0.00  0.00    +0.000 C 
BRANCH  38  43
ATOM     43  O   UNL     1      -8.598  15.782 143.572  0.00  0.00    +0.000 OA
ATOM     44  H   UNL     1      -8.864  15.930 144.498  0.00  0.00    +0.000 HD
ENDBRANCH  38  43
ENDBRANCH  33  34
ENDBRANCH  30  32
ENDBRANCH  28  29
ENDBRANCH  25  27
ENDBRANCH   2  24
TORSDOF 12
ENDMDL
MODEL 3
REMARK VINA RESULT:      -8.5      1.642      2.412
REMARK  Name = Zeaxanthin
REMARK  22 active torsions:
REMARK  status: ('A' for Active; 'I' for Inactive)
REMARK    1  A    between atoms: C_1  and  C_2
REMARK    2  A    between atoms: C_2  and  C_3
REMARK    3  A    between atoms: C_4  and  C_5
REMARK    4  A    between atoms: C_6  and  C_7
REMARK    5  A    between atoms: C_6  and  C_8
REMARK    6  A    between atoms: C_9  and  C_10
REMARK    7  A    between atoms: C_11  and  C_12
REMARK    8  A    between atoms: C_14  and  O_15
REMARK    9  A    between atoms: C_17  and  C_18
REMARK   10  A    between atoms: C_17  and  C_19
REMARK   11  A    between atoms: C_20  and  C_21
REMARK   12  A    between atoms: C_22  and  C_23
REMARK   13  A    between atoms: C_24  and  C_25
REMARK   14  A    between atoms: C_24  and  C_26
REMARK   15  A    between atoms: C_27  and  C_28
REMARK   16  A    between atoms: C_29  and  C_30
REMARK   17  A    between atoms: C_29  and  C_31
REMARK   18  A    between atoms: C_32  and  C_33
REMARK   19  A    between atoms: C_34  and  C_35
REMARK   20  A    between atoms: C_37  and  O_38
REMARK   21  A    between atoms: C_40  and  C_41
REMARK   22  A    between atoms: C_40  and  C_42
REMARK                            x       y       z     vdW  Elec       q    Type
REMARK                         _______ _______ _______ _____ _____    ______ ____
ROOT
ATOM      1  C   UNL     1      -7.517   5.178 134.826  0.00  0.00    +0.000 C 
ATOM      2  C   UNL     1      -8.414   4.216 134.569  0.00  0.00    +0.000 C 
ENDROOT
BRANCH   1   5
ATOM      3  C   UNL     1      -5.749   5.134 137.108  0.00  0.00    +0.000 C 
ATOM      4  C   UNL     1      -6.866   6.151 137.007  0.00  0.00    +0.000 C 
ATOM      5  C   UNL     1      -7.667   6.130 135.917  0.00  0.00    +0.000 C 
BRANCH   4   6
ATOM      6  C   UNL     1      -7.077   7.141 138.072  0.00  0.00    +0.000 C 
ATOM      7  C   UNL     1      -7.929   8.176 137.958  0.00  0.00    +0.000 C 
BRANCH   7   8
ATOM      8  C   UNL     1      -8.237   9.203 138.921  0.00  0.00    +0.000 C 
ATOM      9  C   UNL     1      -9.467   9.764 139.049  0.00  0.00    +0.000 C 
ATOM     10  C   UNL     1     -10.669   9.409 138.203  0.00  0.00    +0.000 C 
BRANCH   9  11
ATOM     11  C   UNL     1      -9.691  10.767 140.089  0.00  0.00    +0.000 C 
ATOM     12  C   UNL     1      -9.190  12.017 140.118  0.00  0.00    +0.000 C 
BRANCH  12  13
ATOM     13  C   UNL     1      -9.393  13.049 141.144  0.00  0.00    +0.000 C 
ATOM     14  C   UNL     1     -10.265  14.052 140.890  0.00  0.00    +0.000 C 
ATOM     15  C   UNL     1     -11.155  14.139 139.668  0.00  0.00    +0.000 C 
ATOM     16  C   UNL     1     -10.450  15.238 141.792  0.00  0.00    +0.000 C 
ATOM     17  C   UNL     1      -9.736  15.249 143.134  0.00  0.00    +0.000 C 
ATOM     18  C   UNL     1      -8.645  14.235 143.385  0.00  0.00    +0.000 C 
ATOM     19  C   UNL     1      -8.483  13.054 142.388  0.00  0.00    +0.000 C 
ATOM     20  C   UNL     1      -7.022  13.166 141.893  0.00  0.00    +0.000 C 
ATOM     21  C   UNL     1      -8.728  11.797 143.250  0.00  0.00    +0.000 C 
BRANCH  17  22
ATOM     22  O   UNL     1     -10.714  15.079 144.167  0.00  0.00    +0.000 OA
ATOM     23  H   UNL     1     -11.412  14.513 143.790  0.00  0.00    +0.000 HD
ENDBRANCH  17  22
ENDBRANCH  12  13
ENDBRANCH   9  11
ENDBRANCH   7   8
ENDBRANCH   4   6
ENDBRANCH   1   5
BRANCH   2  24
ATOM     24  C   UNL     1      -8.292   3.250 133.490  0.00  0.00    +0.000 C 
ATOM     25  C   UNL     1      -7.294   2.344 133.382  0.00  0.00    +0.000 C 
ATOM     26  C   UNL     1      -6.181   2.242 134.405  0.00  0.00    +0.000 C 
BRANCH  25  27
ATOM     27  C   UNL     1      -7.251   1.400 132.247  0.00  0.00    +0.000 C 
ATOM     28  C   UNL     1      -8.217   1.340 131.313  0.00  0.00    +0.000 C 
BRANCH  28  29
ATOM     29  C   UNL     1      -8.287   0.484 130.148  0.00  0.00    +0.000 C 
ATOM     30  C   UNL     1      -7.633   0.730 128.983  0.00  0.00    +0.000 C 
ATOM     31  C   UNL     1      -6.773   1.940 128.722  0.00  0.00    +0.000 C 
BRANCH  30  32
ATOM     32  C   UNL     1      -7.719  -0.235 127.885  0.00  0.00    +0.000 C 
ATOM     33  C   UNL     1      -8.467  -0.136 126.769  0.00  0.00    +0.000 C 
BRANCH  33  34
ATOM     34  C   UNL     1      -8.594  -1.135 125.692  0.00  0.00    +0.000 C 
ATOM     35  C   UNL     1      -8.663  -2.448 126.004  0.00  0.00    +0.000 C 
ATOM     36  C   UNL     1      -8.704  -3.009 127.409  0.00  0.00    +0.000 C 
ATOM     37  C   UNL     1      -8.692  -3.545 124.974  0.00  0.00    +0.000 C 
ATOM     38  C   UNL     1      -8.794  -3.162 123.508  0.00  0.00    +0.000 C 
ATOM     39  C   UNL     1      -8.542  -1.726 123.113  0.00  0.00    +0.000 C 
ATOM     40  C   UNL     1      -8.476  -0.650 124.233  0.00  0.00    +0.000 C 
ATOM     41  C   UNL     1      -7.080  -0.006 124.068  0.00  0.00    +0.000 C 
ATOM     42  C   UNL     1      -9.621   0.326 123.887  0.00  0.00    +0.000 C 
BRANCH  38  43
ATOM     43  O   UNL     1     -10.107  -3.501 123.041  0.00  0.00    +0.000 OA
ATOM     44  H   UNL     1     -10.599  -2.662 122.980  0.00  0.00    +0.000 HD
ENDBRANCH  38  43
ENDBRANCH  33  34
ENDBRANCH  30  32
ENDBRANCH  28  29
ENDBRANCH  25  27
ENDBRANCH   2  24
TORSDOF 12
ENDMDL
MODEL 4
REMARK VINA RESULT:      -8.4      1.802      2.800
REMARK  Name = Zeaxanthin
REMARK  22 active torsions:
REMARK  status: ('A' for Active; 'I' for Inactive)
REMARK    1  A    between atoms: C_1  and  C_2
REMARK    2  A    between atoms: C_2  and  C_3
REMARK    3  A    between atoms: C_4  and  C_5
REMARK    4  A    between atoms: C_6  and  C_7
REMARK    5  A    between atoms: C_6  and  C_8
REMARK    6  A    between atoms: C_9  and  C_10
REMARK    7  A    between atoms: C_11  and  C_12
REMARK    8  A    between atoms: C_14  and  O_15
REMARK    9  A    between atoms: C_17  and  C_18
REMARK   10  A    between atoms: C_17  and  C_19
REMARK   11  A    between atoms: C_20  and  C_21
REMARK   12  A    between atoms: C_22  and  C_23
REMARK   13  A    between atoms: C_24  and  C_25
REMARK   14  A    between atoms: C_24  and  C_26
REMARK   15  A    between atoms: C_27  and  C_28
REMARK   16  A    between atoms: C_29  and  C_30
REMARK   17  A    between atoms: C_29  and  C_31
REMARK   18  A    between atoms: C_32  and  C_33
REMARK   19  A    between atoms: C_34  and  C_35
REMARK   20  A    between atoms: C_37  and  O_38
REMARK   21  A    between atoms: C_40  and  C_41
REMARK   22  A    between atoms: C_40  and  C_42
REMARK                            x       y       z     vdW  Elec       q    Type
REMARK                         _______ _______ _______ _____ _____    ______ ____
ROOT
ATOM      1  C   UNL     1      -7.859   5.535 135.294  0.00  0.00    +0.000 C 
ATOM      2  C   UNL     1      -8.308   5.621 134.034  0.00  0.00    +0.000 C 
ENDROOT
BRANCH   1   5
ATOM      3  C   UNL     1      -6.269   5.702 137.698  0.00  0.00    +0.000 C 
ATOM      4  C   UNL     1      -7.394   6.683 137.437  0.00  0.00    +0.000 C 
ATOM      5  C   UNL     1      -8.110   6.562 136.295  0.00  0.00    +0.000 C 
BRANCH   4   6
ATOM      6  C   UNL     1      -7.703   7.744 138.405  0.00  0.00    +0.000 C 
ATOM      7  C   UNL     1      -8.290   8.904 138.064  0.00  0.00    +0.000 C 
BRANCH   7   8
ATOM      8  C   UNL     1      -8.657  10.015 138.907  0.00  0.00    +0.000 C 
ATOM      9  C   UNL     1      -7.790  10.994 139.273  0.00  0.00    +0.000 C 
ATOM     10  C   UNL     1      -6.335  11.053 138.867  0.00  0.00    +0.000 C 
BRANCH   9  11
ATOM     11  C   UNL     1      -8.271  12.104 140.093  0.00  0.00    +0.000 C 
ATOM     12  C   UNL     1      -9.502  12.652 140.059  0.00  0.00    +0.000 C 
BRANCH  12  13
ATOM     13  C   UNL     1     -10.019  13.765 140.867  0.00  0.00    +0.000 C 
ATOM     14  C   UNL     1     -10.535  13.494 142.087  0.00  0.00    +0.000 C 
ATOM     15  C   UNL     1     -10.515  12.135 142.756  0.00  0.00    +0.000 C 
ATOM     16  C   UNL     1     -11.224  14.518 142.943  0.00  0.00    +0.000 C 
ATOM     17  C   UNL     1     -11.215  15.968 142.489  0.00  0.00    +0.000 C 
ATOM     18  C   UNL     1     -10.792  16.284 141.074  0.00  0.00    +0.000 C 
ATOM     19  C   UNL     1     -10.121  15.164 140.230  0.00  0.00    +0.000 C 
ATOM     20  C   UNL     1     -11.017  15.040 138.976  0.00  0.00    +0.000 C 
ATOM     21  C   UNL     1      -8.718  15.723 139.910  0.00  0.00    +0.000 C 
BRANCH  17  22
ATOM     22  O   UNL     1     -10.353  16.709 143.361  0.00  0.00    +0.000 OA
ATOM     23  H   UNL     1      -9.806  16.050 143.826  0.00  0.00    +0.000 HD
ENDBRANCH  17  22
ENDBRANCH  12  13
ENDBRANCH   9  11
ENDBRANCH   7   8
ENDBRANCH   4   6
ENDBRANCH   1   5
BRANCH   2  24
ATOM     24  C   UNL     1      -8.077   4.613 133.012  0.00  0.00    +0.000 C 
ATOM     25  C   UNL     1      -7.828   4.883 131.711  0.00  0.00    +0.000 C 
ATOM     26  C   UNL     1      -7.758   6.301 131.179  0.00  0.00    +0.000 C 
BRANCH  25  27
ATOM     27  C   UNL     1      -7.606   3.792 130.742  0.00  0.00    +0.000 C 
ATOM     28  C   UNL     1      -8.554   3.376 129.884  0.00  0.00    +0.000 C 
BRANCH  28  29
ATOM     29  C   UNL     1      -8.461   2.340 128.877  0.00  0.00    +0.000 C 
ATOM     30  C   UNL     1      -7.814   2.486 127.692  0.00  0.00    +0.000 C 
ATOM     31  C   UNL     1      -7.131   3.753 127.239  0.00  0.00    +0.000 C 
BRANCH  30  32
ATOM     32  C   UNL     1      -7.723   1.353 126.769  0.00  0.00    +0.000 C 
ATOM     33  C   UNL     1      -8.742   0.658 126.228  0.00  0.00    +0.000 C 
BRANCH  33  34
ATOM     34  C   UNL     1      -8.646  -0.517 125.344  0.00  0.00    +0.000 C 
ATOM     35  C   UNL     1      -8.486  -1.746 125.883  0.00  0.00    +0.000 C 
ATOM     36  C   UNL     1      -8.474  -2.054 127.364  0.00  0.00    +0.000 C 
ATOM     37  C   UNL     1      -8.278  -2.991 125.062  0.00  0.00    +0.000 C 
ATOM     38  C   UNL     1      -8.396  -2.892 123.551  0.00  0.00    +0.000 C 
ATOM     39  C   UNL     1      -8.395  -1.525 122.910  0.00  0.00    +0.000 C 
ATOM     40  C   UNL     1      -8.567  -0.279 123.822  0.00  0.00    +0.000 C 
ATOM     41  C   UNL     1      -7.306   0.575 123.551  0.00  0.00    +0.000 C 
ATOM     42  C   UNL     1      -9.857   0.394 123.307  0.00  0.00    +0.000 C 
BRANCH  38  43
ATOM     43  O   UNL     1      -9.607  -3.545 123.147  0.00  0.00    +0.000 OA
ATOM     44  H   UNL     1      -9.400  -4.496 123.097  0.00  0.00    +0.000 HD
ENDBRANCH  38  43
ENDBRANCH  33  34
ENDBRANCH  30  32
ENDBRANCH  28  29
ENDBRANCH  25  27
ENDBRANCH   2  24
TORSDOF 12
ENDMDL
MODEL 5
REMARK VINA RESULT:      -8.0      8.275     19.325
REMARK  Name = Zeaxanthin
REMARK  22 active torsions:
REMARK  status: ('A' for Active; 'I' for Inactive)
REMARK    1  A    between atoms: C_1  and  C_2
REMARK    2  A    between atoms: C_2  and  C_3
REMARK    3  A    between atoms: C_4  and  C_5
REMARK    4  A    between atoms: C_6  and  C_7
REMARK    5  A    between atoms: C_6  and  C_8
REMARK    6  A    between atoms: C_9  and  C_10
REMARK    7  A    between atoms: C_11  and  C_12
REMARK    8  A    between atoms: C_14  and  O_15
REMARK    9  A    between atoms: C_17  and  C_18
REMARK   10  A    between atoms: C_17  and  C_19
REMARK   11  A    between atoms: C_20  and  C_21
REMARK   12  A    between atoms: C_22  and  C_23
REMARK   13  A    between atoms: C_24  and  C_25
REMARK   14  A    between atoms: C_24  and  C_26
REMARK   15  A    between atoms: C_27  and  C_28
REMARK   16  A    between atoms: C_29  and  C_30
REMARK   17  A    between atoms: C_29  and  C_31
REMARK   18  A    between atoms: C_32  and  C_33
REMARK   19  A    between atoms: C_34  and  C_35
REMARK   20  A    between atoms: C_37  and  O_38
REMARK   21  A    between atoms: C_40  and  C_41
REMARK   22  A    between atoms: C_40  and  C_42
REMARK                            x       y       z     vdW  Elec       q    Type
REMARK                         _______ _______ _______ _____ _____    ______ ____
ROOT
ATOM      1  C   UNL     1      -3.676   7.700 130.482  0.00  0.00    +0.000 C 
ATOM      2  C   UNL     1      -3.397   7.383 131.754  0.00  0.00    +0.000 C 
ENDROOT
BRANCH   1   5
ATOM      3  C   UNL     1      -2.264   6.092 128.545  0.00  0.00    +0.000 C 
ATOM      4  C   UNL     1      -3.773   6.031 128.656  0.00  0.00    +0.000 C 
ATOM      5  C   UNL     1      -4.388   6.805 129.581  0.00  0.00    +0.000 C 
BRANCH   4   6
ATOM      6  C   UNL     1      -4.556   5.152 127.778  0.00  0.00    +0.000 C 
ATOM      7  C   UNL     1      -4.565   3.812 127.896  0.00  0.00    +0.000 C 
BRANCH   7   8
ATOM      8  C   UNL     1      -5.290   2.841 127.115  0.00  0.00    +0.000 C 
ATOM      9  C   UNL     1      -5.473   1.553 127.506  0.00  0.00    +0.000 C 
ATOM     10  C   UNL     1      -4.937   0.956 128.787  0.00  0.00    +0.000 C 
BRANCH   9  11
ATOM     11  C   UNL     1      -6.265   0.657 126.665  0.00  0.00    +0.000 C 
ATOM     12  C   UNL     1      -6.322  -0.686 126.756  0.00  0.00    +0.000 C 
BRANCH  12  13
ATOM     13  C   UNL     1      -7.105  -1.616 125.931  0.00  0.00    +0.000 C 
ATOM     14  C   UNL     1      -7.945  -2.478 126.547  0.00  0.00    +0.000 C 
ATOM     15  C   UNL     1      -8.245  -2.486 128.032  0.00  0.00    +0.000 C 
ATOM     16  C   UNL     1      -8.686  -3.570 125.830  0.00  0.00    +0.000 C 
ATOM     17  C   UNL     1      -8.610  -3.624 124.313  0.00  0.00    +0.000 C 
ATOM     18  C   UNL     1      -7.570  -2.786 123.607  0.00  0.00    +0.000 C 
ATOM     19  C   UNL     1      -6.812  -1.701 124.421  0.00  0.00    +0.000 C 
ATOM     20  C   UNL     1      -5.319  -2.071 124.257  0.00  0.00    +0.000 C 
ATOM     21  C   UNL     1      -7.180  -0.377 123.717  0.00  0.00    +0.000 C 
BRANCH  17  22
ATOM     22  O   UNL     1      -9.887  -3.245 123.783  0.00  0.00    +0.000 OA
ATOM     23  H   UNL     1      -9.897  -3.547 122.857  0.00  0.00    +0.000 HD
ENDBRANCH  17  22
ENDBRANCH  12  13
ENDBRANCH   9  11
ENDBRANCH   7   8
ENDBRANCH   4   6
ENDBRANCH   1   5
BRANCH   2  24
ATOM     24  C   UNL     1      -2.691   8.253 132.679  0.00  0.00    +0.000 C 
ATOM     25  C   UNL     1      -1.385   8.127 133.006  0.00  0.00    +0.000 C 
ATOM     26  C   UNL     1      -0.507   7.040 132.419  0.00  0.00    +0.000 C 
BRANCH  25  27
ATOM     27  C   UNL     1      -0.751   9.060 133.958  0.00  0.00    +0.000 C 
ATOM     28  C   UNL     1       0.367   9.748 133.668  0.00  0.00    +0.000 C 
BRANCH  28  29
ATOM     29  C   UNL     1       1.074  10.704 134.495  0.00  0.00    +0.000 C 
ATOM     30  C   UNL     1       0.884  12.047 134.437  0.00  0.00    +0.000 C 
ATOM     31  C   UNL     1      -0.057  12.739 133.484  0.00  0.00    +0.000 C 
BRANCH  30  32
ATOM     32  C   UNL     1       1.602  12.923 135.365  0.00  0.00    +0.000 C 
ATOM     33  C   UNL     1       1.289  13.184 136.649  0.00  0.00    +0.000 C 
BRANCH  33  34
ATOM     34  C   UNL     1       1.981  14.109 137.563  0.00  0.00    +0.000 C 
ATOM     35  C   UNL     1       1.923  15.440 137.336  0.00  0.00    +0.000 C 
ATOM     36  C   UNL     1       1.119  16.103 136.239  0.00  0.00    +0.000 C 
ATOM     37  C   UNL     1       2.678  16.455 138.151  0.00  0.00    +0.000 C 
ATOM     38  C   UNL     1       3.432  15.982 139.382  0.00  0.00    +0.000 C 
ATOM     39  C   UNL     1       3.668  14.501 139.565  0.00  0.00    +0.000 C 
ATOM     40  C   UNL     1       2.890  13.510 138.656  0.00  0.00    +0.000 C 
ATOM     41  C   UNL     1       3.993  12.691 137.945  0.00  0.00    +0.000 C 
ATOM     42  C   UNL     1       2.066  12.657 139.643  0.00  0.00    +0.000 C 
BRANCH  38  43
ATOM     43  O   UNL     1       2.734  16.443 140.547  0.00  0.00    +0.000 OA
ATOM     44  H   UNL     1       2.994  15.847 141.273  0.00  0.00    +0.000 HD
ENDBRANCH  38  43
ENDBRANCH  33  34
ENDBRANCH  30  32
ENDBRANCH  28  29
ENDBRANCH  25  27
ENDBRANCH   2  24
TORSDOF 12
ENDMDL
MODEL 6
REMARK VINA RESULT:      -8.0      7.704     19.312
REMARK  Name = Zeaxanthin
REMARK  22 active torsions:
REMARK  status: ('A' for Active; 'I' for Inactive)
REMARK    1  A    between atoms: C_1  and  C_2
REMARK    2  A    between atoms: C_2  and  C_3
REMARK    3  A    between atoms: C_4  and  C_5
REMARK    4  A    between atoms: C_6  and  C_7
REMARK    5  A    between atoms: C_6  and  C_8
REMARK    6  A    between atoms: C_9  and  C_10
REMARK    7  A    between atoms: C_11  and  C_12
REMARK    8  A    between atoms: C_14  and  O_15
REMARK    9  A    between atoms: C_17  and  C_18
REMARK   10  A    between atoms: C_17  and  C_19
REMARK   11  A    between atoms: C_20  and  C_21
REMARK   12  A    between atoms: C_22  and  C_23
REMARK   13  A    between atoms: C_24  and  C_25
REMARK   14  A    between atoms: C_24  and  C_26
REMARK   15  A    between atoms: C_27  and  C_28
REMARK   16  A    between atoms: C_29  and  C_30
REMARK   17  A    between atoms: C_29  and  C_31
REMARK   18  A    between atoms: C_32  and  C_33
REMARK   19  A    between atoms: C_34  and  C_35
REMARK   20  A    between atoms: C_37  and  O_38
REMARK   21  A    between atoms: C_40  and  C_41
REMARK   22  A    between atoms: C_40  and  C_42
REMARK                            x       y       z     vdW  Elec       q    Type
REMARK                         _______ _______ _______ _____ _____    ______ ____
ROOT
ATOM      1  C   UNL     1      -3.598   7.435 130.474  0.00  0.00    +0.000 C 
ATOM      2  C   UNL     1      -3.302   7.130 131.745  0.00  0.00    +0.000 C 
ENDROOT
BRANCH   1   5
ATOM      3  C   UNL     1      -2.276   6.458 128.100  0.00  0.00    +0.000 C 
ATOM      4  C   UNL     1      -3.683   6.017 128.446  0.00  0.00    +0.000 C 
ATOM      5  C   UNL     1      -4.259   6.504 129.570  0.00  0.00    +0.000 C 
BRANCH   4   6
ATOM      6  C   UNL     1      -4.410   5.081 127.579  0.00  0.00    +0.000 C 
ATOM      7  C   UNL     1      -3.899   3.906 127.172  0.00  0.00    +0.000 C 
BRANCH   7   8
ATOM      8  C   UNL     1      -4.504   2.897 126.337  0.00  0.00    +0.000 C 
ATOM      9  C   UNL     1      -5.004   1.730 126.818  0.00  0.00    +0.000 C 
ATOM     10  C   UNL     1      -4.984   1.317 128.272  0.00  0.00    +0.000 C 
BRANCH   9  11
ATOM     11  C   UNL     1      -5.641   0.791 125.896  0.00  0.00    +0.000 C 
ATOM     12  C   UNL     1      -6.899   0.317 125.976  0.00  0.00    +0.000 C 
BRANCH  12  13
ATOM     13  C   UNL     1      -7.571  -0.624 125.070  0.00  0.00    +0.000 C 
ATOM     14  C   UNL     1      -7.280  -1.941 125.172  0.00  0.00    +0.000 C 
ATOM     15  C   UNL     1      -6.397  -2.554 126.239  0.00  0.00    +0.000 C 
ATOM     16  C   UNL     1      -7.786  -2.979 124.212  0.00  0.00    +0.000 C 
ATOM     17  C   UNL     1      -8.797  -2.561 123.157  0.00  0.00    +0.000 C 
ATOM     18  C   UNL     1      -9.026  -1.089 122.913  0.00  0.00    +0.000 C 
ATOM     19  C   UNL     1      -8.438  -0.066 123.925  0.00  0.00    +0.000 C 
ATOM     20  C   UNL     1      -7.539   0.852 123.066  0.00  0.00    +0.000 C 
ATOM     21  C   UNL     1      -9.679   0.664 124.485  0.00  0.00    +0.000 C 
BRANCH  17  22
ATOM     22  O   UNL     1     -10.066  -3.134 123.496  0.00  0.00    +0.000 OA
ATOM     23  H   UNL     1      -9.953  -4.100 123.435  0.00  0.00    +0.000 HD
ENDBRANCH  17  22
ENDBRANCH  12  13
ENDBRANCH   9  11
ENDBRANCH   7   8
ENDBRANCH   4   6
ENDBRANCH   1   5
BRANCH   2  24
ATOM     24  C   UNL     1      -2.646   8.037 132.672  0.00  0.00    +0.000 C 
ATOM     25  C   UNL     1      -1.335   7.981 133.001  0.00  0.00    +0.000 C 
ATOM     26  C   UNL     1      -0.399   6.943 132.416  0.00  0.00    +0.000 C 
BRANCH  25  27
ATOM     27  C   UNL     1      -0.754   8.946 133.956  0.00  0.00    +0.000 C 
ATOM     28  C   UNL     1       0.271   9.756 133.639  0.00  0.00    +0.000 C 
BRANCH  28  29
ATOM     29  C   UNL     1       0.916  10.754 134.466  0.00  0.00    +0.000 C 
ATOM     30  C   UNL     1       0.681  12.088 134.370  0.00  0.00    +0.000 C 
ATOM     31  C   UNL     1      -0.252  12.725 133.370  0.00  0.00    +0.000 C 
BRANCH  30  32
ATOM     32  C   UNL     1       1.337  13.010 135.299  0.00  0.00    +0.000 C 
ATOM     33  C   UNL     1       1.046  13.199 136.601  0.00  0.00    +0.000 C 
BRANCH  33  34
ATOM     34  C   UNL     1       1.671  14.168 137.520  0.00  0.00    +0.000 C 
ATOM     35  C   UNL     1       2.713  13.782 138.290  0.00  0.00    +0.000 C 
ATOM     36  C   UNL     1       3.377  12.423 138.241  0.00  0.00    +0.000 C 
ATOM     37  C   UNL     1       3.350  14.666 139.328  0.00  0.00    +0.000 C 
ATOM     38  C   UNL     1       2.900  16.114 139.423  0.00  0.00    +0.000 C 
ATOM     39  C   UNL     1       1.633  16.529 138.714  0.00  0.00    +0.000 C 
ATOM     40  C   UNL     1       1.001  15.547 137.689  0.00  0.00    +0.000 C 
ATOM     41  C   UNL     1      -0.432  15.305 138.218  0.00  0.00    +0.000 C 
ATOM     42  C   UNL     1       1.016  16.328 136.358  0.00  0.00    +0.000 C 
BRANCH  38  43
ATOM     43  O   UNL     1       3.954  16.949 138.923  0.00  0.00    +0.000 OA
ATOM     44  H   UNL     1       4.691  16.352 138.700  0.00  0.00    +0.000 HD
ENDBRANCH  38  43
ENDBRANCH  33  34
ENDBRANCH  30  32
ENDBRANCH  28  29
ENDBRANCH  25  27
ENDBRANCH   2  24
TORSDOF 12
ENDMDL
MODEL 7
REMARK VINA RESULT:      -7.9      8.269      9.172
REMARK  Name = Zeaxanthin
REMARK  22 active torsions:
REMARK  status: ('A' for Active; 'I' for Inactive)
REMARK    1  A    between atoms: C_1  and  C_2
REMARK    2  A    between atoms: C_2  and  C_3
REMARK    3  A    between atoms: C_4  and  C_5
REMARK    4  A    between atoms: C_6  and  C_7
REMARK    5  A    between atoms: C_6  and  C_8
REMARK    6  A    between atoms: C_9  and  C_10
REMARK    7  A    between atoms: C_11  and  C_12
REMARK    8  A    between atoms: C_14  and  O_15
REMARK    9  A    between atoms: C_17  and  C_18
REMARK   10  A    between atoms: C_17  and  C_19
REMARK   11  A    between atoms: C_20  and  C_21
REMARK   12  A    between atoms: C_22  and  C_23
REMARK   13  A    between atoms: C_24  and  C_25
REMARK   14  A    between atoms: C_24  and  C_26
REMARK   15  A    between atoms: C_27  and  C_28
REMARK   16  A    between atoms: C_29  and  C_30
REMARK   17  A    between atoms: C_29  and  C_31
REMARK   18  A    between atoms: C_32  and  C_33
REMARK   19  A    between atoms: C_34  and  C_35
REMARK   20  A    between atoms: C_37  and  O_38
REMARK   21  A    between atoms: C_40  and  C_41
REMARK   22  A    between atoms: C_40  and  C_42
REMARK                            x       y       z     vdW  Elec       q    Type
REMARK                         _______ _______ _______ _____ _____    ______ ____
ROOT
ATOM      1  C   UNL     1      -3.242   7.156 131.701  0.00  0.00    +0.000 C 
ATOM      2  C   UNL     1      -3.758   7.420 130.492  0.00  0.00    +0.000 C 
ENDROOT
BRANCH   1   5
ATOM      3  C   UNL     1      -0.462   7.155 132.480  0.00  0.00    +0.000 C 
ATOM      4  C   UNL     1      -1.408   8.234 132.967  0.00  0.00    +0.000 C 
ATOM      5  C   UNL     1      -2.701   8.189 132.573  0.00  0.00    +0.000 C 
BRANCH   4   6
ATOM      6  C   UNL     1      -0.931   9.306 133.850  0.00  0.00    +0.000 C 
ATOM      7  C   UNL     1       0.371   9.535 134.095  0.00  0.00    +0.000 C 
BRANCH   7   8
ATOM      8  C   UNL     1       0.970  10.551 134.924  0.00  0.00    +0.000 C 
ATOM      9  C   UNL     1       1.481  11.710 134.435  0.00  0.00    +0.000 C 
ATOM     10  C   UNL     1       1.509  12.090 132.972  0.00  0.00    +0.000 C 
BRANCH   9  11
ATOM     11  C   UNL     1       2.025  12.699 135.364  0.00  0.00    +0.000 C 
ATOM     12  C   UNL     1       1.499  13.059 136.551  0.00  0.00    +0.000 C 
BRANCH  12  13
ATOM     13  C   UNL     1       2.017  14.046 137.507  0.00  0.00    +0.000 C 
ATOM     14  C   UNL     1       1.868  15.361 137.226  0.00  0.00    +0.000 C 
ATOM     15  C   UNL     1       1.093  15.914 136.048  0.00  0.00    +0.000 C 
ATOM     16  C   UNL     1       2.481  16.459 138.046  0.00  0.00    +0.000 C 
ATOM     17  C   UNL     1       3.179  16.093 139.345  0.00  0.00    +0.000 C 
ATOM     18  C   UNL     1       3.500  14.641 139.613  0.00  0.00    +0.000 C 
ATOM     19  C   UNL     1       2.864  13.557 138.698  0.00  0.00    +0.000 C 
ATOM     20  C   UNL     1       4.072  12.783 138.123  0.00  0.00    +0.000 C 
ATOM     21  C   UNL     1       2.011  12.705 139.662  0.00  0.00    +0.000 C 
BRANCH  17  22
ATOM     22  O   UNL     1       2.375  16.555 140.437  0.00  0.00    +0.000 OA
ATOM     23  H   UNL     1       2.347  15.825 141.082  0.00  0.00    +0.000 HD
ENDBRANCH  17  22
ENDBRANCH  12  13
ENDBRANCH   9  11
ENDBRANCH   7   8
ENDBRANCH   4   6
ENDBRANCH   1   5
BRANCH   2  24
ATOM     24  C   UNL     1      -4.306   6.412 129.600  0.00  0.00    +0.000 C 
ATOM     25  C   UNL     1      -3.685   5.951 128.490  0.00  0.00    +0.000 C 
ATOM     26  C   UNL     1      -2.319   6.449 128.063  0.00  0.00    +0.000 C 
BRANCH  25  27
ATOM     27  C   UNL     1      -4.321   4.924 127.641  0.00  0.00    +0.000 C 
ATOM     28  C   UNL     1      -3.891   3.652 127.590  0.00  0.00    +0.000 C 
BRANCH  28  29
ATOM     29  C   UNL     1      -4.432   2.550 126.823  0.00  0.00    +0.000 C 
ATOM     30  C   UNL     1      -5.595   1.915 127.120  0.00  0.00    +0.000 C 
ATOM     31  C   UNL     1      -6.469   2.239 128.306  0.00  0.00    +0.000 C 
BRANCH  30  32
ATOM     32  C   UNL     1      -6.089   0.854 126.241  0.00  0.00    +0.000 C 
ATOM     33  C   UNL     1      -7.335   0.345 126.197  0.00  0.00    +0.000 C 
BRANCH  33  34
ATOM     34  C   UNL     1      -7.814  -0.762 125.350  0.00  0.00    +0.000 C 
ATOM     35  C   UNL     1      -7.779  -2.028 125.823  0.00  0.00    +0.000 C 
ATOM     36  C   UNL     1      -7.353  -2.426 127.219  0.00  0.00    +0.000 C 
ATOM     37  C   UNL     1      -8.150  -3.232 124.999  0.00  0.00    +0.000 C 
ATOM     38  C   UNL     1      -8.732  -3.012 123.613  0.00  0.00    +0.000 C 
ATOM     39  C   UNL     1      -8.622  -1.641 122.988  0.00  0.00    +0.000 C 
ATOM     40  C   UNL     1      -8.187  -0.451 123.886  0.00  0.00    +0.000 C 
ATOM     41  C   UNL     1      -6.922   0.112 123.195  0.00  0.00    +0.000 C 
ATOM     42  C   UNL     1      -9.379   0.528 123.822  0.00  0.00    +0.000 C 
BRANCH  38  43
ATOM     43  O   UNL     1     -10.126  -3.346 123.649  0.00  0.00    +0.000 OA
ATOM     44  H   UNL     1     -10.494  -3.070 122.790  0.00  0.00    +0.000 HD
ENDBRANCH  38  43
ENDBRANCH  33  34
ENDBRANCH  30  32
ENDBRANCH  28  29
ENDBRANCH  25  27
ENDBRANCH   2  24
TORSDOF 12
ENDMDL
MODEL 8
REMARK VINA RESULT:      -7.7      7.414      8.768
REMARK  Name = Zeaxanthin
REMARK  22 active torsions:
REMARK  status: ('A' for Active; 'I' for Inactive)
REMARK    1  A    between atoms: C_1  and  C_2
REMARK    2  A    between atoms: C_2  and  C_3
REMARK    3  A    between atoms: C_4  and  C_5
REMARK    4  A    between atoms: C_6  and  C_7
REMARK    5  A    between atoms: C_6  and  C_8
REMARK    6  A    between atoms: C_9  and  C_10
REMARK    7  A    between atoms: C_11  and  C_12
REMARK    8  A    between atoms: C_14  and  O_15
REMARK    9  A    between atoms: C_17  and  C_18
REMARK   10  A    between atoms: C_17  and  C_19
REMARK   11  A    between atoms: C_20  and  C_21
REMARK   12  A    between atoms: C_22  and  C_23
REMARK   13  A    between atoms: C_24  and  C_25
REMARK   14  A    between atoms: C_24  and  C_26
REMARK   15  A    between atoms: C_27  and  C_28
REMARK   16  A    between atoms: C_29  and  C_30
REMARK   17  A    between atoms: C_29  and  C_31
REMARK   18  A    between atoms: C_32  and  C_33
REMARK   19  A    between atoms: C_34  and  C_35
REMARK   20  A    between atoms: C_37  and  O_38
REMARK   21  A    between atoms: C_40  and  C_41
REMARK   22  A    between atoms: C_40  and  C_42
REMARK                            x       y       z     vdW  Elec       q    Type
REMARK                         _______ _______ _______ _____ _____    ______ ____
ROOT
ATOM      1  C   UNL     1      -3.086   6.312 132.088  0.00  0.00    +0.000 C 
ATOM      2  C   UNL     1      -2.526   5.656 131.062  0.00  0.00    +0.000 C 
ENDROOT
BRANCH   1   5
ATOM      3  C   UNL     1      -2.994   9.153 131.582  0.00  0.00    +0.000 C 
ATOM      4  C   UNL     1      -2.264   8.547 132.763  0.00  0.00    +0.000 C 
ATOM      5  C   UNL     1      -2.339   7.210 132.957  0.00  0.00    +0.000 C 
BRANCH   4   6
ATOM      6  C   UNL     1      -1.489   9.393 133.680  0.00  0.00    +0.000 C 
ATOM      7  C   UNL     1      -0.965  10.579 133.324  0.00  0.00    +0.000 C 
BRANCH   7   8
ATOM      8  C   UNL     1      -0.201  11.506 134.121  0.00  0.00    +0.000 C 
ATOM      9  C   UNL     1      -0.462  12.838 134.175  0.00  0.00    +0.000 C 
ATOM     10  C   UNL     1      -1.564  13.532 133.408  0.00  0.00    +0.000 C 
BRANCH   9  11
ATOM     11  C   UNL     1       0.341  13.688 135.052  0.00  0.00    +0.000 C 
ATOM     12  C   UNL     1       0.406  13.620 136.396  0.00  0.00    +0.000 C 
BRANCH  12  13
ATOM     13  C   UNL     1       1.200  14.456 137.306  0.00  0.00    +0.000 C 
ATOM     14  C   UNL     1       2.347  13.950 137.814  0.00  0.00    +0.000 C 
ATOM     15  C   UNL     1       2.956  12.620 137.425  0.00  0.00    +0.000 C 
ATOM     16  C   UNL     1       3.167  14.645 138.863  0.00  0.00    +0.000 C 
ATOM     17  C   UNL     1       2.778  16.056 139.273  0.00  0.00    +0.000 C 
ATOM     18  C   UNL     1       1.429  16.590 138.850  0.00  0.00    +0.000 C 
ATOM     19  C   UNL     1       0.615  15.798 137.789  0.00  0.00    +0.000 C 
ATOM     20  C   UNL     1      -0.731  15.493 138.486  0.00  0.00    +0.000 C 
ATOM     21  C   UNL     1       0.469  16.786 136.611  0.00  0.00    +0.000 C 
BRANCH  17  22
ATOM     22  O   UNL     1       3.767  16.962 138.768  0.00  0.00    +0.000 OA
ATOM     23  H   UNL     1       4.626  16.517 138.882  0.00  0.00    +0.000 HD
ENDBRANCH  17  22
ENDBRANCH  12  13
ENDBRANCH   9  11
ENDBRANCH   7   8
ENDBRANCH   4   6
ENDBRANCH   1   5
BRANCH   2  24
ATOM     24  C   UNL     1      -3.245   4.756 130.176  0.00  0.00    +0.000 C 
ATOM     25  C   UNL     1      -3.236   4.839 128.826  0.00  0.00    +0.000 C 
ATOM     26  C   UNL     1      -2.452   5.904 128.088  0.00  0.00    +0.000 C 
BRANCH  25  27
ATOM     27  C   UNL     1      -3.999   3.877 128.006  0.00  0.00    +0.000 C 
ATOM     28  C   UNL     1      -4.473   2.718 128.494  0.00  0.00    +0.000 C 
BRANCH  28  29
ATOM     29  C   UNL     1      -5.248   1.705 127.810  0.00  0.00    +0.000 C 
ATOM     30  C   UNL     1      -6.605   1.678 127.777  0.00  0.00    +0.000 C 
ATOM     31  C   UNL     1      -7.499   2.673 128.474  0.00  0.00    +0.000 C 
BRANCH  30  32
ATOM     32  C   UNL     1      -7.293   0.645 127.000  0.00  0.00    +0.000 C 
ATOM     33  C   UNL     1      -6.767  -0.496 126.515  0.00  0.00    +0.000 C 
BRANCH  33  34
ATOM     34  C   UNL     1      -7.447  -1.507 125.686  0.00  0.00    +0.000 C 
ATOM     35  C   UNL     1      -8.083  -2.540 126.281  0.00  0.00    +0.000 C 
ATOM     36  C   UNL     1      -8.239  -2.725 127.775  0.00  0.00    +0.000 C 
ATOM     37  C   UNL     1      -8.718  -3.673 125.520  0.00  0.00    +0.000 C 
ATOM     38  C   UNL     1      -8.778  -3.586 124.005  0.00  0.00    +0.000 C 
ATOM     39  C   UNL     1      -7.931  -2.551 123.303  0.00  0.00    +0.000 C 
ATOM     40  C   UNL     1      -7.265  -1.436 124.156  0.00  0.00    +0.000 C 
ATOM     41  C   UNL     1      -5.753  -1.576 123.861  0.00  0.00    +0.000 C 
ATOM     42  C   UNL     1      -7.857  -0.126 123.596  0.00  0.00    +0.000 C 
BRANCH  38  43
ATOM     43  O   UNL     1     -10.138  -3.350 123.617  0.00  0.00    +0.000 OA
ATOM     44  H   UNL     1     -10.256  -3.792 122.756  0.00  0.00    +0.000 HD
ENDBRANCH  38  43
ENDBRANCH  33  34
ENDBRANCH  30  32
ENDBRANCH  28  29
ENDBRANCH  25  27
ENDBRANCH   2  24
TORSDOF 12
ENDMDL
MODEL 9
REMARK VINA RESULT:      -7.4      6.106      7.554
REMARK  Name = Zeaxanthin
REMARK  22 active torsions:
REMARK  status: ('A' for Active; 'I' for Inactive)
REMARK    1  A    between atoms: C_1  and  C_2
REMARK    2  A    between atoms: C_2  and  C_3
REMARK    3  A    between atoms: C_4  and  C_5
REMARK    4  A    between atoms: C_6  and  C_7
REMARK    5  A    between atoms: C_6  and  C_8
REMARK    6  A    between atoms: C_9  and  C_10
REMARK    7  A    between atoms: C_11  and  C_12
REMARK    8  A    between atoms: C_14  and  O_15
REMARK    9  A    between atoms: C_17  and  C_18
REMARK   10  A    between atoms: C_17  and  C_19
REMARK   11  A    between atoms: C_20  and  C_21
REMARK   12  A    between atoms: C_22  and  C_23
REMARK   13  A    between atoms: C_24  and  C_25
REMARK   14  A    between atoms: C_24  and  C_26
REMARK   15  A    between atoms: C_27  and  C_28
REMARK   16  A    between atoms: C_29  and  C_30
REMARK   17  A    between atoms: C_29  and  C_31
REMARK   18  A    between atoms: C_32  and  C_33
REMARK   19  A    between atoms: C_34  and  C_35
REMARK   20  A    between atoms: C_37  and  O_38
REMARK   21  A    between atoms: C_40  and  C_41
REMARK   22  A    between atoms: C_40  and  C_42
REMARK                            x       y       z     vdW  Elec       q    Type
REMARK                         _______ _______ _______ _____ _____    ______ ____
ROOT
ATOM      1  C   UNL     1      -4.567   5.661 133.383  0.00  0.00    +0.000 C 
ATOM      2  C   UNL     1      -5.772   5.656 132.796  0.00  0.00    +0.000 C 
ENDROOT
BRANCH   1   5
ATOM      3  C   UNL     1      -2.317   7.230 132.482  0.00  0.00    +0.000 C 
ATOM      4  C   UNL     1      -3.021   7.552 133.784  0.00  0.00    +0.000 C 
ATOM      5  C   UNL     1      -4.071   6.786 134.162  0.00  0.00    +0.000 C 
BRANCH   4   6
ATOM      6  C   UNL     1      -2.573   8.672 134.621  0.00  0.00    +0.000 C 
ATOM      7  C   UNL     1      -2.319   9.900 134.135  0.00  0.00    +0.000 C 
BRANCH   7   8
ATOM      8  C   UNL     1      -1.889  11.081 134.841  0.00  0.00    +0.000 C 
ATOM      9  C   UNL     1      -1.577  12.250 134.223  0.00  0.00    +0.000 C 
ATOM     10  C   UNL     1      -1.619  12.473 132.729  0.00  0.00    +0.000 C 
BRANCH   9  11
ATOM     11  C   UNL     1      -1.196  13.406 135.033  0.00  0.00    +0.000 C 
ATOM     12  C   UNL     1      -0.655  13.378 136.267  0.00  0.00    +0.000 C 
BRANCH  12  13
ATOM     13  C   UNL     1      -0.261  14.517 137.107  0.00  0.00    +0.000 C 
ATOM     14  C   UNL     1      -1.215  15.152 137.826  0.00  0.00    +0.000 C 
ATOM     15  C   UNL     1      -2.658  14.707 137.936  0.00  0.00    +0.000 C 
ATOM     16  C   UNL     1      -0.966  16.412 138.604  0.00  0.00    +0.000 C 
ATOM     17  C   UNL     1       0.460  16.926 138.717  0.00  0.00    +0.000 C 
ATOM     18  C   UNL     1       1.517  16.341 137.811  0.00  0.00    +0.000 C 
ATOM     19  C   UNL     1       1.178  15.058 137.002  0.00  0.00    +0.000 C 
ATOM     20  C   UNL     1       1.418  15.458 135.528  0.00  0.00    +0.000 C 
ATOM     21  C   UNL     1       2.194  14.012 137.512  0.00  0.00    +0.000 C 
BRANCH  17  22
ATOM     22  O   UNL     1       0.905  16.729 140.065  0.00  0.00    +0.000 OA
ATOM     23  H   UNL     1       1.727  17.244 140.157  0.00  0.00    +0.000 HD
ENDBRANCH  17  22
ENDBRANCH  12  13
ENDBRANCH   9  11
ENDBRANCH   7   8
ENDBRANCH   4   6
ENDBRANCH   1   5
BRANCH   2  24
ATOM     24  C   UNL     1      -6.297   4.549 132.014  0.00  0.00    +0.000 C 
ATOM     25  C   UNL     1      -7.347   3.780 132.381  0.00  0.00    +0.000 C 
ATOM     26  C   UNL     1      -8.101   4.009 133.675  0.00  0.00    +0.000 C 
BRANCH  25  27
ATOM     27  C   UNL     1      -7.810   2.673 131.521  0.00  0.00    +0.000 C 
ATOM     28  C   UNL     1      -7.964   2.800 130.191  0.00  0.00    +0.000 C 
BRANCH  28  29
ATOM     29  C   UNL     1      -8.386   1.798 129.236  0.00  0.00    +0.000 C 
ATOM     30  C   UNL     1      -8.239   1.918 127.891  0.00  0.00    +0.000 C 
ATOM     31  C   UNL     1      -7.653   3.122 127.198  0.00  0.00    +0.000 C 
BRANCH  30  32
ATOM     32  C   UNL     1      -8.640   0.816 127.015  0.00  0.00    +0.000 C 
ATOM     33  C   UNL     1      -7.835   0.017 126.289  0.00  0.00    +0.000 C 
BRANCH  33  34
ATOM     34  C   UNL     1      -8.245  -1.056 125.364  0.00  0.00    +0.000 C 
ATOM     35  C   UNL     1      -8.402  -2.314 125.830  0.00  0.00    +0.000 C 
ATOM     36  C   UNL     1      -8.271  -2.731 127.279  0.00  0.00    +0.000 C 
ATOM     37  C   UNL     1      -8.719  -3.492 124.948  0.00  0.00    +0.000 C 
ATOM     38  C   UNL     1      -9.020  -3.240 123.480  0.00  0.00    +0.000 C 
ATOM     39  C   UNL     1      -8.683  -1.890 122.892  0.00  0.00    +0.000 C 
ATOM     40  C   UNL     1      -8.318  -0.730 123.858  0.00  0.00    +0.000 C 
ATOM     41  C   UNL     1      -6.907  -0.284 123.411  0.00  0.00    +0.000 C 
ATOM     42  C   UNL     1      -9.392   0.344 123.584  0.00  0.00    +0.000 C 
BRANCH  38  43
ATOM     43  O   UNL     1     -10.421  -3.455 123.262  0.00  0.00    +0.000 OA
ATOM     44  H   UNL     1     -10.487  -4.054 122.495  0.00  0.00    +0.000 HD
ENDBRANCH  38  43
ENDBRANCH  33  34
ENDBRANCH  30  32
ENDBRANCH  28  29
ENDBRANCH  25  27
ENDBRANCH   2  24
TORSDOF 12
ENDMDL
