MODEL 1
REMARK VINA RESULT:      -6.7      0.000      0.000
REMARK  Name = Zidovudine
REMARK  5 active torsions:
REMARK  status: ('A' for Active; 'I' for Inactive)
REMARK    1  A    between atoms: C_1  and  C_2
REMARK    2  A    between atoms: N_4  and  C_5
REMARK    3  A    between atoms: C_7  and  N_8
REMARK    4  A    between atoms: C_11  and  C_12
REMARK    5  A    between atoms: C_12  and  O_13
REMARK                            x       y       z     vdW  Elec       q    Type
REMARK                         _______ _______ _______ _____ _____    ______ ____
ROOT
ATOM      1  C   UNL     1      -8.285   2.896 123.683  0.00  0.00    +0.000 C 
ATOM      2  C   UNL     1      -9.377   2.008 123.105  0.00  0.00    +0.000 C 
ATOM      3  C   UNL     1      -8.764   0.630 123.188  0.00  0.00    +0.000 C 
ATOM      4  C   UNL     1      -7.978   0.721 124.494  0.00  0.00    +0.000 C 
ATOM      5  O   UNL     1      -7.612   2.103 124.668  0.00  0.00    +0.000 OA
ENDROOT
BRANCH   1   9
ATOM      6  C   UNL     1      -7.865   4.315 118.964  0.00  0.00    +0.000 C 
ATOM      7  C   UNL     1      -7.273   4.050 120.310  0.00  0.00    +0.000 A 
ATOM      8  C   UNL     1      -7.935   3.507 121.338  0.00  0.00    +0.000 A 
ATOM      9  N   UNL     1      -7.395   3.398 122.616  0.00  0.00    +0.000 N 
ATOM     10  C   UNL     1      -6.084   3.784 122.862  0.00  0.00    +0.000 A 
ATOM     11  O   UNL     1      -5.529   3.850 123.954  0.00  0.00    +0.000 OA
ATOM     12  N   UNL     1      -5.352   4.113 121.750  0.00  0.00    +0.000 N 
ATOM     13  C   UNL     1      -5.866   4.439 120.532  0.00  0.00    +0.000 A 
ATOM     14  O   UNL     1      -5.207   5.014 119.674  0.00  0.00    +0.000 OA
ATOM     15  H   UNL     1      -4.399   4.382 121.930  0.00  0.00    +0.000 HD
ENDBRANCH   1   9
BRANCH   3  16
ATOM     16  N   UNL     1      -9.828  -0.377 123.263  0.00  0.00    +0.000 NA
ATOM     17  N   UNL     1      -9.471  -1.574 123.210  0.00  0.00    +0.000 NA
ATOM     18  N   UNL     1      -9.171  -2.666 123.142  0.00  0.00    +0.000 NA
ENDBRANCH   3  16
BRANCH   4  19
ATOM     19  C   UNL     1      -6.742  -0.183 124.491  0.00  0.00    +0.000 C 
BRANCH  19  20
ATOM     20  O   UNL     1      -6.651  -0.931 123.281  0.00  0.00    +0.000 OA
ATOM     21  H   UNL     1      -7.491  -1.408 123.172  0.00  0.00    +0.000 HD
ENDBRANCH  19  20
ENDBRANCH   4  19
TORSDOF 4
ENDMDL
MODEL 2
REMARK VINA RESULT:      -6.6      3.325      4.864
REMARK  Name = Zidovudine
REMARK  5 active torsions:
REMARK  status: ('A' for Active; 'I' for Inactive)
REMARK    1  A    between atoms: C_1  and  C_2
REMARK    2  A    between atoms: N_4  and  C_5
REMARK    3  A    between atoms: C_7  and  N_8
REMARK    4  A    between atoms: C_11  and  C_12
REMARK    5  A    between atoms: C_12  and  O_13
REMARK                            x       y       z     vdW  Elec       q    Type
REMARK                         _______ _______ _______ _____ _____    ______ ____
ROOT
ATOM      1  C   UNL     1      -8.897  -1.328 122.818  0.00  0.00    +0.000 C 
ATOM      2  C   UNL     1      -7.515  -1.955 122.913  0.00  0.00    +0.000 C 
ATOM      3  C   UNL     1      -7.556  -2.650 124.254  0.00  0.00    +0.000 C 
ATOM      4  C   UNL     1      -9.004  -3.132 124.306  0.00  0.00    +0.000 C 
ATOM      5  O   UNL     1      -9.782  -2.214 123.516  0.00  0.00    +0.000 OA
ENDROOT
BRANCH   1   9
ATOM      6  C   UNL     1      -6.227   2.332 124.803  0.00  0.00    +0.000 C 
ATOM      7  C   UNL     1      -7.527   1.764 124.333  0.00  0.00    +0.000 A 
ATOM      8  C   UNL     1      -7.700   0.506 123.913  0.00  0.00    +0.000 A 
ATOM      9  N   UNL     1      -8.891   0.048 123.355  0.00  0.00    +0.000 N 
ATOM     10  C   UNL     1     -10.001   0.879 123.287  0.00  0.00    +0.000 A 
ATOM     11  O   UNL     1     -11.063   0.642 122.720  0.00  0.00    +0.000 OA
ATOM     12  N   UNL     1      -9.875   2.080 123.936  0.00  0.00    +0.000 N 
ATOM     13  C   UNL     1      -8.700   2.662 124.304  0.00  0.00    +0.000 A 
ATOM     14  O   UNL     1      -8.617   3.849 124.595  0.00  0.00    +0.000 OA
ATOM     15  H   UNL     1     -10.685   2.676 123.894  0.00  0.00    +0.000 HD
ENDBRANCH   1   9
BRANCH   3  16
ATOM     16  N   UNL     1      -6.609  -3.769 124.257  0.00  0.00    +0.000 NA
ATOM     17  N   UNL     1      -5.450  -3.523 123.861  0.00  0.00    +0.000 NA
ATOM     18  N   UNL     1      -4.397  -3.326 123.486  0.00  0.00    +0.000 NA
ENDBRANCH   3  16
BRANCH   4  19
ATOM     19  C   UNL     1      -9.536  -3.218 125.739  0.00  0.00    +0.000 C 
BRANCH  19  20
ATOM     20  O   UNL     1      -8.506  -3.588 126.652  0.00  0.00    +0.000 OA
ATOM     21  H   UNL     1      -7.665  -3.266 126.285  0.00  0.00    +0.000 HD
ENDBRANCH  19  20
ENDBRANCH   4  19
TORSDOF 4
ENDMDL
MODEL 3
REMARK VINA RESULT:      -6.5      2.034      2.390
REMARK  Name = Zidovudine
REMARK  5 active torsions:
REMARK  status: ('A' for Active; 'I' for Inactive)
REMARK    1  A    between atoms: C_1  and  C_2
REMARK    2  A    between atoms: N_4  and  C_5
REMARK    3  A    between atoms: C_7  and  N_8
REMARK    4  A    between atoms: C_11  and  C_12
REMARK    5  A    between atoms: C_12  and  O_13
REMARK                            x       y       z     vdW  Elec       q    Type
REMARK                         _______ _______ _______ _____ _____    ______ ____
ROOT
ATOM      1  C   UNL     1      -9.533   1.976 124.017  0.00  0.00    +0.000 C 
ATOM      2  C   UNL     1      -9.573   0.736 123.137  0.00  0.00    +0.000 C 
ATOM      3  C   UNL     1      -8.931  -0.314 124.014  0.00  0.00    +0.000 C 
ATOM      4  C   UNL     1      -9.438   0.087 125.397  0.00  0.00    +0.000 C 
ATOM      5  O   UNL     1      -9.664   1.509 125.365  0.00  0.00    +0.000 OA
ENDROOT
BRANCH   1   9
ATOM      6  C   UNL     1      -5.682   2.817 121.029  0.00  0.00    +0.000 C 
ATOM      7  C   UNL     1      -6.451   3.084 122.282  0.00  0.00    +0.000 A 
ATOM      8  C   UNL     1      -7.527   2.394 122.675  0.00  0.00    +0.000 A 
ATOM      9  N   UNL     1      -8.300   2.754 123.776  0.00  0.00    +0.000 N 
ATOM     10  C   UNL     1      -7.926   3.823 124.579  0.00  0.00    +0.000 A 
ATOM     11  O   UNL     1      -8.573   4.313 125.499  0.00  0.00    +0.000 OA
ATOM     12  N   UNL     1      -6.698   4.365 124.299  0.00  0.00    +0.000 N 
ATOM     13  C   UNL     1      -6.009   4.206 123.135  0.00  0.00    +0.000 A 
ATOM     14  O   UNL     1      -5.083   4.941 122.814  0.00  0.00    +0.000 OA
ATOM     15  H   UNL     1      -6.425   5.133 124.889  0.00  0.00    +0.000 HD
ENDBRANCH   1   9
BRANCH   3  16
ATOM     16  N   UNL     1      -9.413  -1.643 123.622  0.00  0.00    +0.000 NA
ATOM     17  N   UNL     1      -8.667  -2.610 123.889  0.00  0.00    +0.000 NA
ATOM     18  N   UNL     1      -7.997  -3.500 124.102  0.00  0.00    +0.000 NA
ENDBRANCH   3  16
BRANCH   4  19
ATOM     19  C   UNL     1      -8.455  -0.292 126.508  0.00  0.00    +0.000 C 
BRANCH  19  20
ATOM     20  O   UNL     1      -8.303  -1.706 126.604  0.00  0.00    +0.000 OA
ATOM     21  H   UNL     1      -7.435  -1.930 126.226  0.00  0.00    +0.000 HD
ENDBRANCH  19  20
ENDBRANCH   4  19
TORSDOF 4
ENDMDL
MODEL 4
REMARK VINA RESULT:      -6.4      8.169     10.387
REMARK  Name = Zidovudine
REMARK  5 active torsions:
REMARK  status: ('A' for Active; 'I' for Inactive)
REMARK    1  A    between atoms: C_1  and  C_2
REMARK    2  A    between atoms: N_4  and  C_5
REMARK    3  A    between atoms: C_7  and  N_8
REMARK    4  A    between atoms: C_11  and  C_12
REMARK    5  A    between atoms: C_12  and  O_13
REMARK                            x       y       z     vdW  Elec       q    Type
REMARK                         _______ _______ _______ _____ _____    ______ ____
ROOT
ATOM      1  C   UNL     1      -9.503   5.848 132.061  0.00  0.00    +0.000 C 
ATOM      2  C   UNL     1      -8.810   6.624 130.951  0.00  0.00    +0.000 C 
ATOM      3  C   UNL     1      -9.919   6.824 129.944  0.00  0.00    +0.000 C 
ATOM      4  C   UNL     1     -11.129   7.022 130.854  0.00  0.00    +0.000 C 
ATOM      5  O   UNL     1     -10.862   6.300 132.071  0.00  0.00    +0.000 OA
ENDROOT
BRANCH   1   9
ATOM      6  C   UNL     1      -8.675   2.183 128.845  0.00  0.00    +0.000 C 
ATOM      7  C   UNL     1      -8.976   2.673 130.224  0.00  0.00    +0.000 A 
ATOM      8  C   UNL     1      -9.220   3.949 130.541  0.00  0.00    +0.000 A 
ATOM      9  N   UNL     1      -9.364   4.392 131.853  0.00  0.00    +0.000 N 
ATOM     10  C   UNL     1      -9.340   3.489 132.907  0.00  0.00    +0.000 A 
ATOM     11  O   UNL     1      -9.336   3.756 134.105  0.00  0.00    +0.000 OA
ATOM     12  N   UNL     1      -9.327   2.166 132.545  0.00  0.00    +0.000 N 
ATOM     13  C   UNL     1      -8.978   1.684 131.321  0.00  0.00    +0.000 A 
ATOM     14  O   UNL     1      -8.687   0.508 131.136  0.00  0.00    +0.000 OA
ATOM     15  H   UNL     1      -9.320   1.513 133.312  0.00  0.00    +0.000 HD
ENDBRANCH   1   9
BRANCH   3  16
ATOM     16  N   UNL     1      -9.642   8.019 129.139  0.00  0.00    +0.000 NA
ATOM     17  N   UNL     1     -10.288   8.140 128.077  0.00  0.00    +0.000 NA
ATOM     18  N   UNL     1     -10.849   8.261 127.098  0.00  0.00    +0.000 NA
ENDBRANCH   3  16
BRANCH   4  19
ATOM     19  C   UNL     1     -12.429   6.545 130.201  0.00  0.00    +0.000 C 
BRANCH  19  20
ATOM     20  O   UNL     1     -12.196   6.045 128.887  0.00  0.00    +0.000 OA
ATOM     21  H   UNL     1     -12.426   6.754 128.263  0.00  0.00    +0.000 HD
ENDBRANCH  19  20
ENDBRANCH   4  19
TORSDOF 4
ENDMDL
MODEL 5
REMARK VINA RESULT:      -6.3      8.191      9.426
REMARK  Name = Zidovudine
REMARK  5 active torsions:
REMARK  status: ('A' for Active; 'I' for Inactive)
REMARK    1  A    between atoms: C_1  and  C_2
REMARK    2  A    between atoms: N_4  and  C_5
REMARK    3  A    between atoms: C_7  and  N_8
REMARK    4  A    between atoms: C_11  and  C_12
REMARK    5  A    between atoms: C_12  and  O_13
REMARK                            x       y       z     vdW  Elec       q    Type
REMARK                         _______ _______ _______ _____ _____    ______ ____
ROOT
ATOM      1  C   UNL     1      -9.690   6.623 131.077  0.00  0.00    +0.000 C 
ATOM      2  C   UNL     1     -10.071   5.590 132.126  0.00  0.00    +0.000 C 
ATOM      3  C   UNL     1      -9.722   4.285 131.449  0.00  0.00    +0.000 C 
ATOM      4  C   UNL     1      -8.467   4.669 130.668  0.00  0.00    +0.000 C 
ATOM      5  O   UNL     1      -8.573   6.073 130.368  0.00  0.00    +0.000 OA
ENDROOT
BRANCH   1   9
ATOM      6  C   UNL     1     -11.318   7.416 126.474  0.00  0.00    +0.000 C 
ATOM      7  C   UNL     1     -11.546   7.337 127.949  0.00  0.00    +0.000 A 
ATOM      8  C   UNL     1     -10.582   7.149 128.858  0.00  0.00    +0.000 A 
ATOM      9  N   UNL     1     -10.843   6.945 130.210  0.00  0.00    +0.000 N 
ATOM     10  C   UNL     1     -12.142   7.013 130.695  0.00  0.00    +0.000 A 
ATOM     11  O   UNL     1     -12.519   6.740 131.830  0.00  0.00    +0.000 OA
ATOM     12  N   UNL     1     -13.082   7.440 129.792  0.00  0.00    +0.000 N 
ATOM     13  C   UNL     1     -12.935   7.447 128.439  0.00  0.00    +0.000 A 
ATOM     14  O   UNL     1     -13.887   7.541 127.674  0.00  0.00    +0.000 OA
ATOM     15  H   UNL     1     -14.022   7.499 130.149  0.00  0.00    +0.000 HD
ENDBRANCH   1   9
BRANCH   3  16
ATOM     16  N   UNL     1      -9.440   3.265 132.464  0.00  0.00    +0.000 NA
ATOM     17  N   UNL     1      -9.699   2.082 132.156  0.00  0.00    +0.000 NA
ATOM     18  N   UNL     1      -9.946   1.003 131.906  0.00  0.00    +0.000 NA
ENDBRANCH   3  16
BRANCH   4  19
ATOM     19  C   UNL     1      -8.302   3.841 129.392  0.00  0.00    +0.000 C 
BRANCH  19  20
ATOM     20  O   UNL     1      -9.313   2.842 129.288  0.00  0.00    +0.000 OA
ATOM     21  H   UNL     1      -9.716   2.746 130.168  0.00  0.00    +0.000 HD
ENDBRANCH  19  20
ENDBRANCH   4  19
TORSDOF 4
ENDMDL
MODEL 6
REMARK VINA RESULT:      -6.3      3.726      7.261
REMARK  Name = Zidovudine
REMARK  5 active torsions:
REMARK  status: ('A' for Active; 'I' for Inactive)
REMARK    1  A    between atoms: C_1  and  C_2
REMARK    2  A    between atoms: N_4  and  C_5
REMARK    3  A    between atoms: C_7  and  N_8
REMARK    4  A    between atoms: C_11  and  C_12
REMARK    5  A    between atoms: C_12  and  O_13
REMARK                            x       y       z     vdW  Elec       q    Type
REMARK                         _______ _______ _______ _____ _____    ______ ____
ROOT
ATOM      1  C   UNL     1      -7.222  -2.770 124.544  0.00  0.00    +0.000 C 
ATOM      2  C   UNL     1      -8.579  -2.725 123.861  0.00  0.00    +0.000 C 
ATOM      3  C   UNL     1      -8.813  -1.243 123.682  0.00  0.00    +0.000 C 
ATOM      4  C   UNL     1      -7.400  -0.742 123.388  0.00  0.00    +0.000 C 
ATOM      5  O   UNL     1      -6.490  -1.644 124.045  0.00  0.00    +0.000 OA
ENDROOT
BRANCH   1   9
ATOM      6  C   UNL     1      -9.824  -4.359 128.438  0.00  0.00    +0.000 C 
ATOM      7  C   UNL     1      -8.701  -3.572 127.846  0.00  0.00    +0.000 A 
ATOM      8  C   UNL     1      -8.501  -3.400 126.535  0.00  0.00    +0.000 A 
ATOM      9  N   UNL     1      -7.371  -2.776 126.014  0.00  0.00    +0.000 N 
ATOM     10  C   UNL     1      -6.421  -2.220 126.860  0.00  0.00    +0.000 A 
ATOM     11  O   UNL     1      -5.334  -1.750 126.539  0.00  0.00    +0.000 OA
ATOM     12  N   UNL     1      -6.761  -2.197 128.188  0.00  0.00    +0.000 N 
ATOM     13  C   UNL     1      -7.725  -2.962 128.772  0.00  0.00    +0.000 A 
ATOM     14  O   UNL     1      -7.784  -3.134 129.984  0.00  0.00    +0.000 OA
ATOM     15  H   UNL     1      -6.075  -1.784 128.799  0.00  0.00    +0.000 HD
ENDBRANCH   1   9
BRANCH   3  16
ATOM     16  N   UNL     1      -9.716  -1.020 122.548  0.00  0.00    +0.000 NA
ATOM     17  N   UNL     1     -10.512  -0.062 122.646  0.00  0.00    +0.000 NA
ATOM     18  N   UNL     1     -11.258   0.790 122.722  0.00  0.00    +0.000 NA
ENDBRANCH   3  16
BRANCH   4  19
ATOM     19  C   UNL     1      -7.186   0.699 123.857  0.00  0.00    +0.000 C 
BRANCH  19  20
ATOM     20  O   UNL     1      -8.425   1.395 123.974  0.00  0.00    +0.000 OA
ATOM     21  H   UNL     1      -8.220   2.344 124.032  0.00  0.00    +0.000 HD
ENDBRANCH  19  20
ENDBRANCH   4  19
TORSDOF 4
ENDMDL
MODEL 7
REMARK VINA RESULT:      -6.3      2.276      6.102
REMARK  Name = Zidovudine
REMARK  5 active torsions:
REMARK  status: ('A' for Active; 'I' for Inactive)
REMARK    1  A    between atoms: C_1  and  C_2
REMARK    2  A    between atoms: N_4  and  C_5
REMARK    3  A    between atoms: C_7  and  N_8
REMARK    4  A    between atoms: C_11  and  C_12
REMARK    5  A    between atoms: C_12  and  O_13
REMARK                            x       y       z     vdW  Elec       q    Type
REMARK                         _______ _______ _______ _____ _____    ______ ____
ROOT
ATOM      1  C   UNL     1      -7.803   1.518 125.172  0.00  0.00    +0.000 C 
ATOM      2  C   UNL     1      -6.475   2.147 124.781  0.00  0.00    +0.000 C 
ATOM      3  C   UNL     1      -6.729   2.608 123.364  0.00  0.00    +0.000 C 
ATOM      4  C   UNL     1      -8.190   3.047 123.441  0.00  0.00    +0.000 C 
ATOM      5  O   UNL     1      -8.812   2.258 124.472  0.00  0.00    +0.000 OA
ENDROOT
BRANCH   1   9
ATOM      6  C   UNL     1      -5.151  -2.474 123.952  0.00  0.00    +0.000 C 
ATOM      7  C   UNL     1      -6.454  -1.810 124.257  0.00  0.00    +0.000 A 
ATOM      8  C   UNL     1      -6.610  -0.496 124.455  0.00  0.00    +0.000 A 
ATOM      9  N   UNL     1      -7.811   0.072 124.870  0.00  0.00    +0.000 N 
ATOM     10  C   UNL     1      -8.947  -0.713 125.019  0.00  0.00    +0.000 A 
ATOM     11  O   UNL     1     -10.026  -0.363 125.486  0.00  0.00    +0.000 OA
ATOM     12  N   UNL     1      -8.825  -2.007 124.583  0.00  0.00    +0.000 N 
ATOM     13  C   UNL     1      -7.652  -2.666 124.375  0.00  0.00    +0.000 A 
ATOM     14  O   UNL     1      -7.590  -3.886 124.288  0.00  0.00    +0.000 OA
ATOM     15  H   UNL     1      -9.653  -2.572 124.683  0.00  0.00    +0.000 HD
ENDBRANCH   1   9
BRANCH   3  16
ATOM     16  N   UNL     1      -5.840   3.730 123.046  0.00  0.00    +0.000 NA
ATOM     17  N   UNL     1      -5.631   3.953 121.834  0.00  0.00    +0.000 NA
ATOM     18  N   UNL     1      -5.412   4.160 120.740  0.00  0.00    +0.000 NA
ENDBRANCH   3  16
BRANCH   4  19
ATOM     19  C   UNL     1      -8.916   2.882 122.104  0.00  0.00    +0.000 C 
BRANCH  19  20
ATOM     20  O   UNL     1      -8.517   3.884 121.171  0.00  0.00    +0.000 OA
ATOM     21  H   UNL     1      -8.740   4.747 121.561  0.00  0.00    +0.000 HD
ENDBRANCH  19  20
ENDBRANCH   4  19
TORSDOF 4
ENDMDL
MODEL 8
REMARK VINA RESULT:      -6.3      1.785      5.991
REMARK  Name = Zidovudine
REMARK  5 active torsions:
REMARK  status: ('A' for Active; 'I' for Inactive)
REMARK    1  A    between atoms: C_1  and  C_2
REMARK    2  A    between atoms: N_4  and  C_5
REMARK    3  A    between atoms: C_7  and  N_8
REMARK    4  A    between atoms: C_11  and  C_12
REMARK    5  A    between atoms: C_12  and  O_13
REMARK                            x       y       z     vdW  Elec       q    Type
REMARK                         _______ _______ _______ _____ _____    ______ ____
ROOT
ATOM      1  C   UNL     1      -8.833   2.383 123.435  0.00  0.00    +0.000 C 
ATOM      2  C   UNL     1      -7.603   2.982 124.100  0.00  0.00    +0.000 C 
ATOM      3  C   UNL     1      -6.733   3.348 122.920  0.00  0.00    +0.000 C 
ATOM      4  C   UNL     1      -7.774   3.794 121.896  0.00  0.00    +0.000 C 
ATOM      5  O   UNL     1      -8.987   3.077 122.191  0.00  0.00    +0.000 OA
ENDROOT
BRANCH   1   9
ATOM      6  C   UNL     1      -6.009  -1.606 124.191  0.00  0.00    +0.000 C 
ATOM      7  C   UNL     1      -7.251  -0.960 123.670  0.00  0.00    +0.000 A 
ATOM      8  C   UNL     1      -7.472   0.359 123.652  0.00  0.00    +0.000 A 
ATOM      9  N   UNL     1      -8.692   0.920 123.285  0.00  0.00    +0.000 N 
ATOM     10  C   UNL     1      -9.730   0.115 122.833  0.00  0.00    +0.000 A 
ATOM     11  O   UNL     1     -10.880   0.465 122.593  0.00  0.00    +0.000 OA
ATOM     12  N   UNL     1      -9.405  -1.202 122.634  0.00  0.00    +0.000 N 
ATOM     13  C   UNL     1      -8.324  -1.840 123.163  0.00  0.00    +0.000 A 
ATOM     14  O   UNL     1      -8.242  -3.061 123.214  0.00  0.00    +0.000 OA
ATOM     15  H   UNL     1     -10.156  -1.782 122.296  0.00  0.00    +0.000 HD
ENDBRANCH   1   9
BRANCH   3  16
ATOM     16  N   UNL     1      -5.833   4.444 123.294  0.00  0.00    +0.000 NA
ATOM     17  N   UNL     1      -5.024   4.827 122.423  0.00  0.00    +0.000 NA
ATOM     18  N   UNL     1      -4.267   5.177 121.653  0.00  0.00    +0.000 NA
ENDBRANCH   3  16
BRANCH   4  19
ATOM     19  C   UNL     1      -7.317   3.542 120.457  0.00  0.00    +0.000 C 
BRANCH  19  20
ATOM     20  O   UNL     1      -6.451   4.578 120.000  0.00  0.00    +0.000 OA
ATOM     21  H   UNL     1      -6.970   5.149 119.408  0.00  0.00    +0.000 HD
ENDBRANCH  19  20
ENDBRANCH   4  19
TORSDOF 4
ENDMDL
MODEL 9
REMARK VINA RESULT:      -6.2      2.703      5.955
REMARK  Name = Zidovudine
REMARK  5 active torsions:
REMARK  status: ('A' for Active; 'I' for Inactive)
REMARK    1  A    between atoms: C_1  and  C_2
REMARK    2  A    between atoms: N_4  and  C_5
REMARK    3  A    between atoms: C_7  and  N_8
REMARK    4  A    between atoms: C_11  and  C_12
REMARK    5  A    between atoms: C_12  and  O_13
REMARK                            x       y       z     vdW  Elec       q    Type
REMARK                         _______ _______ _______ _____ _____    ______ ____
ROOT
ATOM      1  C   UNL     1      -7.929   1.861 123.003  0.00  0.00    +0.000 C 
ATOM      2  C   UNL     1      -8.920   2.712 123.782  0.00  0.00    +0.000 C 
ATOM      3  C   UNL     1      -8.089   3.214 124.940  0.00  0.00    +0.000 C 
ATOM      4  C   UNL     1      -6.728   3.414 124.278  0.00  0.00    +0.000 C 
ATOM      5  O   UNL     1      -6.648   2.476 123.188  0.00  0.00    +0.000 OA
ENDROOT
BRANCH   1   9
ATOM      6  C   UNL     1      -5.700  -1.780 125.499  0.00  0.00    +0.000 C 
ATOM      7  C   UNL     1      -6.822  -1.264 124.659  0.00  0.00    +0.000 A 
ATOM      8  C   UNL     1      -6.863  -0.045 124.110  0.00  0.00    +0.000 A 
ATOM      9  N   UNL     1      -7.981   0.452 123.446  0.00  0.00    +0.000 N 
ATOM     10  C   UNL     1      -9.098  -0.349 123.251  0.00  0.00    +0.000 A 
ATOM     11  O   UNL     1     -10.181  -0.001 122.791  0.00  0.00    +0.000 OA
ATOM     12  N   UNL     1      -8.945  -1.663 123.609  0.00  0.00    +0.000 N 
ATOM     13  C   UNL     1      -7.982  -2.152 124.439  0.00  0.00    +0.000 A 
ATOM     14  O   UNL     1      -8.067  -3.254 124.967  0.00  0.00    +0.000 OA
ATOM     15  H   UNL     1      -9.753  -2.245 123.457  0.00  0.00    +0.000 HD
ENDBRANCH   1   9
BRANCH   3  16
ATOM     16  N   UNL     1      -8.646   4.478 125.433  0.00  0.00    +0.000 NA
ATOM     17  N   UNL     1      -8.472   4.732 126.644  0.00  0.00    +0.000 NA
ATOM     18  N   UNL     1      -8.343   4.973 127.745  0.00  0.00    +0.000 NA
ENDBRANCH   3  16
BRANCH   4  19
ATOM     19  C   UNL     1      -5.571   3.220 125.261  0.00  0.00    +0.000 C 
BRANCH  19  20
ATOM     20  O   UNL     1      -6.040   3.146 126.605  0.00  0.00    +0.000 OA
ATOM     21  H   UNL     1      -6.189   2.207 126.808  0.00  0.00    +0.000 HD
ENDBRANCH  19  20
ENDBRANCH   4  19
TORSDOF 4
ENDMDL
