MODEL 1
REMARK VINA RESULT:      -6.5      0.000      0.000
REMARK  Name = Zileuton
REMARK  4 active torsions:
REMARK  status: ('A' for Active; 'I' for Inactive)
REMARK    1  A    between atoms: C_1  and  C_2
REMARK    2  A    between atoms: C_2  and  N_3
REMARK    3  A    between atoms: C_2  and  C_8
REMARK    4  A    between atoms: N_3  and  O_4
REMARK                            x       y       z     vdW  Elec       q    Type
REMARK                         _______ _______ _______ _____ _____    ______ ____
ROOT
ATOM      1  C   UNL     1      -8.848   2.648 125.055  0.00  0.00    +0.000 C 
ATOM      2  C   UNL     1      -8.213   1.789 123.942  0.00  0.00    +0.000 C 
ENDROOT
BRANCH   2   3
ATOM      3  C   UNL     1      -7.730   2.665 122.780  0.00  0.00    +0.000 A 
ATOM      4  C   UNL     1      -6.536   3.343 122.613  0.00  0.00    +0.000 A 
ATOM      5  C   UNL     1      -6.376   3.928 121.320  0.00  0.00    +0.000 A 
ATOM      6  C   UNL     1      -5.250   4.552 120.745  0.00  0.00    +0.000 A 
ATOM      7  C   UNL     1      -5.343   5.132 119.481  0.00  0.00    +0.000 A 
ATOM      8  C   UNL     1      -6.539   5.086 118.775  0.00  0.00    +0.000 A 
ATOM      9  C   UNL     1      -7.658   4.441 119.306  0.00  0.00    +0.000 A 
ATOM     10  C   UNL     1      -7.555   3.860 120.582  0.00  0.00    +0.000 A 
ATOM     11  S   UNL     1      -8.769   3.019 121.447  0.00  0.00    +0.000 S 
ENDBRANCH   2   3
BRANCH   2  12
ATOM     12  N   UNL     1      -9.167   0.701 123.547  0.00  0.00    +0.000 N 
ATOM     13  C   UNL     1      -8.884  -0.600 123.198  0.00  0.00    +0.000 C 
ATOM     14  N   UNL     1      -7.575  -0.947 123.113  0.00  0.00    +0.000 N 
ATOM     15  O   UNL     1      -9.724  -1.473 122.976  0.00  0.00    +0.000 OA
ATOM     16  H   UNL     1      -6.799  -0.314 123.189  0.00  0.00    +0.000 HD
ATOM     17  H   UNL     1      -7.381  -1.917 122.906  0.00  0.00    +0.000 HD
BRANCH  12  18
ATOM     18  O   UNL     1     -10.560   0.964 123.565  0.00  0.00    +0.000 OA
ATOM     19  H   UNL     1     -10.822   0.983 122.630  0.00  0.00    +0.000 HD
ENDBRANCH  12  18
ENDBRANCH   2  12
TORSDOF 3
ENDMDL
MODEL 2
REMARK VINA RESULT:      -6.4      9.347     10.272
REMARK  Name = Zileuton
REMARK  4 active torsions:
REMARK  status: ('A' for Active; 'I' for Inactive)
REMARK    1  A    between atoms: C_1  and  C_2
REMARK    2  A    between atoms: C_2  and  N_3
REMARK    3  A    between atoms: C_2  and  C_8
REMARK    4  A    between atoms: N_3  and  O_4
REMARK                            x       y       z     vdW  Elec       q    Type
REMARK                         _______ _______ _______ _____ _____    ______ ____
ROOT
ATOM      1  C   UNL     1      -8.098   5.871 133.486  0.00  0.00    +0.000 C 
ATOM      2  C   UNL     1      -8.647   5.140 132.244  0.00  0.00    +0.000 C 
ENDROOT
BRANCH   2   3
ATOM      3  C   UNL     1      -9.547   6.066 131.417  0.00  0.00    +0.000 A 
ATOM      4  C   UNL     1      -9.244   6.862 130.327  0.00  0.00    +0.000 A 
ATOM      5  C   UNL     1     -10.384   7.465 129.713  0.00  0.00    +0.000 A 
ATOM      6  C   UNL     1     -10.478   8.203 128.515  0.00  0.00    +0.000 A 
ATOM      7  C   UNL     1     -11.694   8.775 128.142  0.00  0.00    +0.000 A 
ATOM      8  C   UNL     1     -12.820   8.610 128.939  0.00  0.00    +0.000 A 
ATOM      9  C   UNL     1     -12.762   7.853 130.111  0.00  0.00    +0.000 A 
ATOM     10  C   UNL     1     -11.531   7.280 130.479  0.00  0.00    +0.000 A 
ATOM     11  S   UNL     1     -11.199   6.317 131.855  0.00  0.00    +0.000 S 
ENDBRANCH   2   3
BRANCH   2  12
ATOM     12  N   UNL     1      -9.294   3.856 132.667  0.00  0.00    +0.000 N 
ATOM     13  C   UNL     1      -9.392   2.676 131.966  0.00  0.00    +0.000 C 
ATOM     14  N   UNL     1      -8.921   2.670 130.694  0.00  0.00    +0.000 N 
ATOM     15  O   UNL     1      -9.854   1.623 132.410  0.00  0.00    +0.000 OA
ATOM     16  H   UNL     1      -8.597   3.477 130.190  0.00  0.00    +0.000 HD
ATOM     17  H   UNL     1      -8.952   1.784 130.208  0.00  0.00    +0.000 HD
BRANCH  12  18
ATOM     18  O   UNL     1      -9.854   3.760 133.967  0.00  0.00    +0.000 OA
ATOM     19  H   UNL     1      -9.198   3.264 134.484  0.00  0.00    +0.000 HD
ENDBRANCH  12  18
ENDBRANCH   2  12
TORSDOF 3
ENDMDL
MODEL 3
REMARK VINA RESULT:      -6.3      8.588     10.727
REMARK  Name = Zileuton
REMARK  4 active torsions:
REMARK  status: ('A' for Active; 'I' for Inactive)
REMARK    1  A    between atoms: C_1  and  C_2
REMARK    2  A    between atoms: C_2  and  N_3
REMARK    3  A    between atoms: C_2  and  C_8
REMARK    4  A    between atoms: N_3  and  O_4
REMARK                            x       y       z     vdW  Elec       q    Type
REMARK                         _______ _______ _______ _____ _____    ______ ____
ROOT
ATOM      1  C   UNL     1     -12.637   8.550 129.778  0.00  0.00    +0.000 C 
ATOM      2  C   UNL     1     -11.731   7.482 129.131  0.00  0.00    +0.000 C 
ENDROOT
BRANCH   2   3
ATOM      3  C   UNL     1     -10.681   6.976 130.127  0.00  0.00    +0.000 A 
ATOM      4  C   UNL     1      -9.306   6.895 130.006  0.00  0.00    +0.000 A 
ATOM      5  C   UNL     1      -8.638   6.519 131.212  0.00  0.00    +0.000 A 
ATOM      6  C   UNL     1      -7.259   6.482 131.505  0.00  0.00    +0.000 A 
ATOM      7  C   UNL     1      -6.821   5.999 132.738  0.00  0.00    +0.000 A 
ATOM      8  C   UNL     1      -7.738   5.565 133.687  0.00  0.00    +0.000 A 
ATOM      9  C   UNL     1      -9.111   5.627 133.435  0.00  0.00    +0.000 A 
ATOM     10  C   UNL     1      -9.543   6.115 132.189  0.00  0.00    +0.000 A 
ATOM     11  S   UNL     1     -11.155   6.291 131.640  0.00  0.00    +0.000 S 
ENDBRANCH   2   3
BRANCH   2  12
ATOM     12  N   UNL     1     -11.167   8.018 127.849  0.00  0.00    +0.000 N 
ATOM     13  C   UNL     1     -11.461   7.637 126.560  0.00  0.00    +0.000 C 
ATOM     14  N   UNL     1     -12.308   6.589 126.402  0.00  0.00    +0.000 N 
ATOM     15  O   UNL     1     -11.032   8.185 125.543  0.00  0.00    +0.000 OA
ATOM     16  H   UNL     1     -12.660   6.008 127.143  0.00  0.00    +0.000 HD
ATOM     17  H   UNL     1     -12.555   6.352 125.451  0.00  0.00    +0.000 HD
BRANCH  12  18
ATOM     18  O   UNL     1     -10.244   9.093 127.897  0.00  0.00    +0.000 OA
ATOM     19  H   UNL     1     -10.460   9.571 128.714  0.00  0.00    +0.000 HD
ENDBRANCH  12  18
ENDBRANCH   2  12
TORSDOF 3
ENDMDL
MODEL 4
REMARK VINA RESULT:      -6.2     10.141     10.535
REMARK  Name = Zileuton
REMARK  4 active torsions:
REMARK  status: ('A' for Active; 'I' for Inactive)
REMARK    1  A    between atoms: C_1  and  C_2
REMARK    2  A    between atoms: C_2  and  N_3
REMARK    3  A    between atoms: C_2  and  C_8
REMARK    4  A    between atoms: N_3  and  O_4
REMARK                            x       y       z     vdW  Elec       q    Type
REMARK                         _______ _______ _______ _____ _____    ______ ____
ROOT
ATOM      1  C   UNL     1      -6.974   6.573 131.420  0.00  0.00    +0.000 C 
ATOM      2  C   UNL     1      -8.218   5.672 131.565  0.00  0.00    +0.000 C 
ENDROOT
BRANCH   2   3
ATOM      3  C   UNL     1      -9.393   6.224 130.751  0.00  0.00    +0.000 A 
ATOM      4  C   UNL     1      -9.518   7.418 130.064  0.00  0.00    +0.000 A 
ATOM      5  C   UNL     1     -10.708   7.517 129.281  0.00  0.00    +0.000 A 
ATOM      6  C   UNL     1     -11.096   8.501 128.350  0.00  0.00    +0.000 A 
ATOM      7  C   UNL     1     -12.355   8.440 127.752  0.00  0.00    +0.000 A 
ATOM      8  C   UNL     1     -13.227   7.404 128.061  0.00  0.00    +0.000 A 
ATOM      9  C   UNL     1     -12.853   6.395 128.952  0.00  0.00    +0.000 A 
ATOM     10  C   UNL     1     -11.581   6.466 129.549  0.00  0.00    +0.000 A 
ATOM     11  S   UNL     1     -10.890   5.366 130.664  0.00  0.00    +0.000 S 
ENDBRANCH   2   3
BRANCH   2  12
ATOM     12  N   UNL     1      -8.512   5.459 133.020  0.00  0.00    +0.000 N 
ATOM     13  C   UNL     1      -8.028   4.480 133.857  0.00  0.00    +0.000 C 
ATOM     14  N   UNL     1      -7.244   3.523 133.301  0.00  0.00    +0.000 N 
ATOM     15  O   UNL     1      -8.235   4.418 135.070  0.00  0.00    +0.000 OA
ATOM     16  H   UNL     1      -7.067   3.414 132.317  0.00  0.00    +0.000 HD
ATOM     17  H   UNL     1      -6.853   2.839 133.935  0.00  0.00    +0.000 HD
BRANCH  12  18
ATOM     18  O   UNL     1      -9.351   6.381 133.697  0.00  0.00    +0.000 OA
ATOM     19  H   UNL     1      -8.764   7.110 133.954  0.00  0.00    +0.000 HD
ENDBRANCH  12  18
ENDBRANCH   2  12
TORSDOF 3
ENDMDL
MODEL 5
REMARK VINA RESULT:      -6.2      3.384      6.353
REMARK  Name = Zileuton
REMARK  4 active torsions:
REMARK  status: ('A' for Active; 'I' for Inactive)
REMARK    1  A    between atoms: C_1  and  C_2
REMARK    2  A    between atoms: C_2  and  N_3
REMARK    3  A    between atoms: C_2  and  C_8
REMARK    4  A    between atoms: N_3  and  O_4
REMARK                            x       y       z     vdW  Elec       q    Type
REMARK                         _______ _______ _______ _____ _____    ______ ____
ROOT
ATOM      1  C   UNL     1      -8.642   3.008 122.088  0.00  0.00    +0.000 C 
ATOM      2  C   UNL     1      -7.695   2.579 123.227  0.00  0.00    +0.000 C 
ENDROOT
BRANCH   2   3
ATOM      3  C   UNL     1      -7.901   1.102 123.585  0.00  0.00    +0.000 A 
ATOM      4  C   UNL     1      -8.893   0.222 123.194  0.00  0.00    +0.000 A 
ATOM      5  C   UNL     1      -8.666  -1.128 123.601  0.00  0.00    +0.000 A 
ATOM      6  C   UNL     1      -9.368  -2.303 123.263  0.00  0.00    +0.000 A 
ATOM      7  C   UNL     1      -9.016  -3.519 123.847  0.00  0.00    +0.000 A 
ATOM      8  C   UNL     1      -7.966  -3.583 124.754  0.00  0.00    +0.000 A 
ATOM      9  C   UNL     1      -7.230  -2.441 125.078  0.00  0.00    +0.000 A 
ATOM     10  C   UNL     1      -7.592  -1.219 124.483  0.00  0.00    +0.000 A 
ATOM     11  S   UNL     1      -6.857   0.310 124.710  0.00  0.00    +0.000 S 
ENDBRANCH   2   3
BRANCH   2  12
ATOM     12  N   UNL     1      -7.840   3.526 124.380  0.00  0.00    +0.000 N 
ATOM     13  C   UNL     1      -6.911   4.403 124.889  0.00  0.00    +0.000 C 
ATOM     14  N   UNL     1      -5.667   4.370 124.348  0.00  0.00    +0.000 N 
ATOM     15  O   UNL     1      -7.126   5.226 125.781  0.00  0.00    +0.000 OA
ATOM     16  H   UNL     1      -5.342   3.696 123.678  0.00  0.00    +0.000 HD
ATOM     17  H   UNL     1      -5.008   5.054 124.696  0.00  0.00    +0.000 HD
BRANCH  12  18
ATOM     18  O   UNL     1      -9.090   3.617 125.045  0.00  0.00    +0.000 OA
ATOM     19  H   UNL     1      -8.926   3.259 125.932  0.00  0.00    +0.000 HD
ENDBRANCH  12  18
ENDBRANCH   2  12
TORSDOF 3
ENDMDL
MODEL 6
REMARK VINA RESULT:      -6.2      8.492     10.658
REMARK  Name = Zileuton
REMARK  4 active torsions:
REMARK  status: ('A' for Active; 'I' for Inactive)
REMARK    1  A    between atoms: C_1  and  C_2
REMARK    2  A    between atoms: C_2  and  N_3
REMARK    3  A    between atoms: C_2  and  C_8
REMARK    4  A    between atoms: N_3  and  O_4
REMARK                            x       y       z     vdW  Elec       q    Type
REMARK                         _______ _______ _______ _____ _____    ______ ____
ROOT
ATOM      1  C   UNL     1     -12.563   8.183 129.927  0.00  0.00    +0.000 C 
ATOM      2  C   UNL     1     -11.989   6.979 129.153  0.00  0.00    +0.000 C 
ENDROOT
BRANCH   2   3
ATOM      3  C   UNL     1     -11.356   5.963 130.110  0.00  0.00    +0.000 A 
ATOM      4  C   UNL     1     -11.254   4.587 130.007  0.00  0.00    +0.000 A 
ATOM      5  C   UNL     1     -10.448   3.986 131.022  0.00  0.00    +0.000 A 
ATOM      6  C   UNL     1     -10.002   2.655 131.149  0.00  0.00    +0.000 A 
ATOM      7  C   UNL     1      -9.283   2.265 132.278  0.00  0.00    +0.000 A 
ATOM      8  C   UNL     1      -8.990   3.187 133.276  0.00  0.00    +0.000 A 
ATOM      9  C   UNL     1      -9.388   4.521 133.156  0.00  0.00    +0.000 A 
ATOM     10  C   UNL     1     -10.113   4.904 132.014  0.00  0.00    +0.000 A 
ATOM     11  S   UNL     1     -10.710   6.462 131.632  0.00  0.00    +0.000 S 
ENDBRANCH   2   3
BRANCH   2  12
ATOM     12  N   UNL     1     -11.073   7.473 128.073  0.00  0.00    +0.000 N 
ATOM     13  C   UNL     1     -11.267   7.452 126.711  0.00  0.00    +0.000 C 
ATOM     14  N   UNL     1     -12.387   6.837 126.255  0.00  0.00    +0.000 N 
ATOM     15  O   UNL     1     -10.515   7.962 125.879  0.00  0.00    +0.000 OA
ATOM     16  H   UNL     1     -13.035   6.314 126.818  0.00  0.00    +0.000 HD
ATOM     17  H   UNL     1     -12.543   6.873 125.256  0.00  0.00    +0.000 HD
BRANCH  12  18
ATOM     18  O   UNL     1      -9.854   8.102 128.435  0.00  0.00    +0.000 OA
ATOM     19  H   UNL     1      -9.166   7.453 128.217  0.00  0.00    +0.000 HD
ENDBRANCH  12  18
ENDBRANCH   2  12
TORSDOF 3
ENDMDL
MODEL 7
REMARK VINA RESULT:      -6.1      4.543      7.750
REMARK  Name = Zileuton
REMARK  4 active torsions:
REMARK  status: ('A' for Active; 'I' for Inactive)
REMARK    1  A    between atoms: C_1  and  C_2
REMARK    2  A    between atoms: C_2  and  N_3
REMARK    3  A    between atoms: C_2  and  C_8
REMARK    4  A    between atoms: N_3  and  O_4
REMARK                            x       y       z     vdW  Elec       q    Type
REMARK                         _______ _______ _______ _____ _____    ______ ____
ROOT
ATOM      1  C   UNL     1      -6.836  -1.789 122.714  0.00  0.00    +0.000 C 
ATOM      2  C   UNL     1      -7.608  -0.907 123.716  0.00  0.00    +0.000 C 
ENDROOT
BRANCH   2   3
ATOM      3  C   UNL     1      -7.422  -1.413 125.151  0.00  0.00    +0.000 A 
ATOM      4  C   UNL     1      -8.349  -1.924 126.041  0.00  0.00    +0.000 A 
ATOM      5  C   UNL     1      -7.775  -2.448 127.240  0.00  0.00    +0.000 A 
ATOM      6  C   UNL     1      -8.380  -3.172 128.288  0.00  0.00    +0.000 A 
ATOM      7  C   UNL     1      -7.637  -3.519 129.416  0.00  0.00    +0.000 A 
ATOM      8  C   UNL     1      -6.296  -3.168 129.507  0.00  0.00    +0.000 A 
ATOM      9  C   UNL     1      -5.664  -2.484 128.466  0.00  0.00    +0.000 A 
ATOM     10  C   UNL     1      -6.422  -2.138 127.333  0.00  0.00    +0.000 A 
ATOM     11  S   UNL     1      -5.887  -1.307 125.935  0.00  0.00    +0.000 S 
ENDBRANCH   2   3
BRANCH   2  12
ATOM     12  N   UNL     1      -9.037  -0.789 123.276  0.00  0.00    +0.000 N 
ATOM     13  C   UNL     1      -9.747   0.350 122.972  0.00  0.00    +0.000 C 
ATOM     14  N   UNL     1      -9.121   1.539 123.162  0.00  0.00    +0.000 N 
ATOM     15  O   UNL     1     -10.894   0.372 122.523  0.00  0.00    +0.000 OA
ATOM     16  H   UNL     1      -8.224   1.661 123.597  0.00  0.00    +0.000 HD
ATOM     17  H   UNL     1      -9.635   2.365 122.887  0.00  0.00    +0.000 HD
BRANCH  12  18
ATOM     18  O   UNL     1      -9.799  -1.969 123.080  0.00  0.00    +0.000 OA
ATOM     19  H   UNL     1     -10.127  -2.203 123.963  0.00  0.00    +0.000 HD
ENDBRANCH  12  18
ENDBRANCH   2  12
TORSDOF 3
ENDMDL
MODEL 8
REMARK VINA RESULT:      -6.1      3.056      6.005
REMARK  Name = Zileuton
REMARK  4 active torsions:
REMARK  status: ('A' for Active; 'I' for Inactive)
REMARK    1  A    between atoms: C_1  and  C_2
REMARK    2  A    between atoms: C_2  and  N_3
REMARK    3  A    between atoms: C_2  and  C_8
REMARK    4  A    between atoms: N_3  and  O_4
REMARK                            x       y       z     vdW  Elec       q    Type
REMARK                         _______ _______ _______ _____ _____    ______ ____
ROOT
ATOM      1  C   UNL     1      -8.042   3.469 124.368  0.00  0.00    +0.000 C 
ATOM      2  C   UNL     1      -8.300   2.730 123.039  0.00  0.00    +0.000 C 
ENDROOT
BRANCH   2   3
ATOM      3  C   UNL     1      -8.234   1.211 123.235  0.00  0.00    +0.000 A 
ATOM      4  C   UNL     1      -7.183   0.412 123.651  0.00  0.00    +0.000 A 
ATOM      5  C   UNL     1      -7.544  -0.953 123.871  0.00  0.00    +0.000 A 
ATOM      6  C   UNL     1      -6.790  -2.005 124.432  0.00  0.00    +0.000 A 
ATOM      7  C   UNL     1      -7.320  -3.294 124.478  0.00  0.00    +0.000 A 
ATOM      8  C   UNL     1      -8.594  -3.547 123.985  0.00  0.00    +0.000 A 
ATOM      9  C   UNL     1      -9.375  -2.515 123.459  0.00  0.00    +0.000 A 
ATOM     10  C   UNL     1      -8.832  -1.218 123.417  0.00  0.00    +0.000 A 
ATOM     11  S   UNL     1      -9.578   0.206 122.827  0.00  0.00    +0.000 S 
ENDBRANCH   2   3
BRANCH   2  12
ATOM     12  N   UNL     1      -7.379   3.264 121.984  0.00  0.00    +0.000 N 
ATOM     13  C   UNL     1      -7.702   3.823 120.769  0.00  0.00    +0.000 C 
ATOM     14  N   UNL     1      -9.014   3.832 120.421  0.00  0.00    +0.000 N 
ATOM     15  O   UNL     1      -6.898   4.332 119.986  0.00  0.00    +0.000 OA
ATOM     16  H   UNL     1      -9.753   3.379 120.928  0.00  0.00    +0.000 HD
ATOM     17  H   UNL     1      -9.243   4.291 119.550  0.00  0.00    +0.000 HD
BRANCH  12  18
ATOM     18  O   UNL     1      -5.981   3.270 122.227  0.00  0.00    +0.000 OA
ATOM     19  H   UNL     1      -5.880   3.715 123.084  0.00  0.00    +0.000 HD
ENDBRANCH  12  18
ENDBRANCH   2  12
TORSDOF 3
ENDMDL
MODEL 9
REMARK VINA RESULT:      -5.9      7.289      8.547
REMARK  Name = Zileuton
REMARK  4 active torsions:
REMARK  status: ('A' for Active; 'I' for Inactive)
REMARK    1  A    between atoms: C_1  and  C_2
REMARK    2  A    between atoms: C_2  and  N_3
REMARK    3  A    between atoms: C_2  and  C_8
REMARK    4  A    between atoms: N_3  and  O_4
REMARK                            x       y       z     vdW  Elec       q    Type
REMARK                         _______ _______ _______ _____ _____    ______ ____
ROOT
ATOM      1  C   UNL     1      -7.710  -2.578 130.369  0.00  0.00    +0.000 C 
ATOM      2  C   UNL     1      -6.537  -2.338 129.398  0.00  0.00    +0.000 C 
ENDROOT
BRANCH   2   3
ATOM      3  C   UNL     1      -6.985  -2.515 127.942  0.00  0.00    +0.000 A 
ATOM      4  C   UNL     1      -8.138  -3.080 127.428  0.00  0.00    +0.000 A 
ATOM      5  C   UNL     1      -8.284  -2.919 126.016  0.00  0.00    +0.000 A 
ATOM      6  C   UNL     1      -9.379  -3.224 125.182  0.00  0.00    +0.000 A 
ATOM      7  C   UNL     1      -9.273  -3.057 123.802  0.00  0.00    +0.000 A 
ATOM      8  C   UNL     1      -8.094  -2.579 123.242  0.00  0.00    +0.000 A 
ATOM      9  C   UNL     1      -7.008  -2.235 124.049  0.00  0.00    +0.000 A 
ATOM     10  C   UNL     1      -7.125  -2.406 125.441  0.00  0.00    +0.000 A 
ATOM     11  S   UNL     1      -5.949  -2.061 126.636  0.00  0.00    +0.000 S 
ENDBRANCH   2   3
BRANCH   2  12
ATOM     12  N   UNL     1      -5.374  -3.195 129.800  0.00  0.00    +0.000 N 
ATOM     13  C   UNL     1      -4.045  -2.849 129.882  0.00  0.00    +0.000 C 
ATOM     14  N   UNL     1      -3.703  -1.602 129.474  0.00  0.00    +0.000 N 
ATOM     15  O   UNL     1      -3.148  -3.577 130.313  0.00  0.00    +0.000 OA
ATOM     16  H   UNL     1      -4.320  -0.946 129.029  0.00  0.00    +0.000 HD
ATOM     17  H   UNL     1      -2.732  -1.343 129.587  0.00  0.00    +0.000 HD
BRANCH  12  18
ATOM     18  O   UNL     1      -5.611  -4.532 130.212  0.00  0.00    +0.000 OA
ATOM     19  H   UNL     1      -4.926  -5.055 129.765  0.00  0.00    +0.000 HD
ENDBRANCH  12  18
ENDBRANCH   2  12
TORSDOF 3
ENDMDL
