MODEL 1
REMARK VINA RESULT:      -6.5      0.000      0.000
REMARK  Name = Zimelidine
REMARK  6 active torsions:
REMARK  status: ('A' for Active; 'I' for Inactive)
REMARK    1  A    between atoms: C_1  and  N_2
REMARK    2  A    between atoms: N_2  and  C_3
REMARK    3  A    between atoms: N_2  and  C_4
REMARK    4  A    between atoms: C_4  and  C_5
REMARK    5  A    between atoms: C_6  and  C_7
REMARK    6  A    between atoms: C_6  and  C_14
REMARK                            x       y       z     vdW  Elec       q    Type
REMARK                         _______ _______ _______ _____ _____    ______ ____
ROOT
ATOM      1  C   UNL     1      -6.243   2.793 124.606  0.00  0.00    +0.000 C 
ATOM      2  C   UNL     1      -6.857   2.145 123.583  0.00  0.00    +0.000 C 
ENDROOT
BRANCH   2   3
ATOM      3  C   UNL     1      -7.261   0.720 123.769  0.00  0.00    +0.000 A 
ATOM      4  C   UNL     1      -6.766  -0.328 122.975  0.00  0.00    +0.000 A 
ATOM      5  C   UNL     1      -7.058  -1.661 123.293  0.00  0.00    +0.000 A 
ATOM      6  C   UNL     1      -7.839  -1.953 124.409  0.00  0.00    +0.000 A 
ATOM      7 BR   UNL     1      -8.186  -3.751 124.879  0.00  0.00    +0.000 Br
ATOM      8  C   UNL     1      -8.355  -0.928 125.195  0.00  0.00    +0.000 A 
ATOM      9  C   UNL     1      -8.075   0.399 124.869  0.00  0.00    +0.000 A 
ENDBRANCH   2   3
BRANCH   2  10
ATOM     10  C   UNL     1      -7.119   2.868 122.308  0.00  0.00    +0.000 A 
ATOM     11  C   UNL     1      -6.101   3.211 121.410  0.00  0.00    +0.000 A 
ATOM     12  C   UNL     1      -6.390   3.907 120.245  0.00  0.00    +0.000 A 
ATOM     13  C   UNL     1      -7.717   4.162 119.956  0.00  0.00    +0.000 A 
ATOM     14  N   UNL     1      -8.742   3.800 120.757  0.00  0.00    +0.000 NA
ATOM     15  C   UNL     1      -8.420   3.174 121.914  0.00  0.00    +0.000 A 
ENDBRANCH   2  10
BRANCH   1  16
ATOM     16  C   UNL     1      -5.863   4.254 124.614  0.00  0.00    +0.000 C 
BRANCH  16  18
ATOM     17  C   UNL     1      -7.246   4.299 126.550  0.00  0.00    +0.000 C 
ATOM     18  N   UNL     1      -6.122   4.961 125.871  0.00  0.00    +0.000 NA
ATOM     19  C   UNL     1      -4.947   4.950 126.737  0.00  0.00    +0.000 C 
ENDBRANCH  16  18
ENDBRANCH   1  16
TORSDOF 4
ENDMDL
MODEL 2
REMARK VINA RESULT:      -6.4      8.640     10.339
REMARK  Name = Zimelidine
REMARK  6 active torsions:
REMARK  status: ('A' for Active; 'I' for Inactive)
REMARK    1  A    between atoms: C_1  and  N_2
REMARK    2  A    between atoms: N_2  and  C_3
REMARK    3  A    between atoms: N_2  and  C_4
REMARK    4  A    between atoms: C_4  and  C_5
REMARK    5  A    between atoms: C_6  and  C_7
REMARK    6  A    between atoms: C_6  and  C_14
REMARK                            x       y       z     vdW  Elec       q    Type
REMARK                         _______ _______ _______ _____ _____    ______ ____
ROOT
ATOM      1  C   UNL     1      -7.686   7.025 131.030  0.00  0.00    +0.000 C 
ATOM      2  C   UNL     1      -8.872   6.368 131.088  0.00  0.00    +0.000 C 
ENDROOT
BRANCH   2   3
ATOM      3  C   UNL     1     -10.067   6.970 130.426  0.00  0.00    +0.000 A 
ATOM      4  C   UNL     1     -11.357   6.925 130.982  0.00  0.00    +0.000 A 
ATOM      5  C   UNL     1     -12.409   7.640 130.396  0.00  0.00    +0.000 A 
ATOM      6  C   UNL     1     -12.177   8.409 129.257  0.00  0.00    +0.000 A 
ATOM      7 BR   UNL     1     -13.578   9.424 128.497  0.00  0.00    +0.000 Br
ATOM      8  C   UNL     1     -10.912   8.449 128.680  0.00  0.00    +0.000 A 
ATOM      9  C   UNL     1      -9.868   7.725 129.258  0.00  0.00    +0.000 A 
ENDBRANCH   2   3
BRANCH   2  10
ATOM     10  C   UNL     1      -8.953   5.062 131.800  0.00  0.00    +0.000 A 
ATOM     11  C   UNL     1      -9.141   4.966 133.184  0.00  0.00    +0.000 A 
ATOM     12  C   UNL     1      -9.186   3.727 133.807  0.00  0.00    +0.000 A 
ATOM     13  C   UNL     1      -9.136   2.600 133.010  0.00  0.00    +0.000 A 
ATOM     14  N   UNL     1      -9.016   2.635 131.667  0.00  0.00    +0.000 NA
ATOM     15  C   UNL     1      -8.917   3.860 131.095  0.00  0.00    +0.000 A 
ENDBRANCH   2  10
BRANCH   1  16
ATOM     16  C   UNL     1      -6.371   6.508 131.559  0.00  0.00    +0.000 C 
BRANCH  16  18
ATOM     17  C   UNL     1      -4.191   7.075 130.790  0.00  0.00    +0.000 C 
ATOM     18  N   UNL     1      -5.358   6.215 130.541  0.00  0.00    +0.000 NA
ATOM     19  C   UNL     1      -4.955   4.812 130.582  0.00  0.00    +0.000 C 
ENDBRANCH  16  18
ENDBRANCH   1  16
TORSDOF 4
ENDMDL
MODEL 3
REMARK VINA RESULT:      -6.4      3.326      5.259
REMARK  Name = Zimelidine
REMARK  6 active torsions:
REMARK  status: ('A' for Active; 'I' for Inactive)
REMARK    1  A    between atoms: C_1  and  N_2
REMARK    2  A    between atoms: N_2  and  C_3
REMARK    3  A    between atoms: N_2  and  C_4
REMARK    4  A    between atoms: C_4  and  C_5
REMARK    5  A    between atoms: C_6  and  C_7
REMARK    6  A    between atoms: C_6  and  C_14
REMARK                            x       y       z     vdW  Elec       q    Type
REMARK                         _______ _______ _______ _____ _____    ______ ____
ROOT
ATOM      1  C   UNL     1      -7.879   2.746 124.734  0.00  0.00    +0.000 C 
ATOM      2  C   UNL     1      -7.751   2.200 123.498  0.00  0.00    +0.000 C 
ENDROOT
BRANCH   2   3
ATOM      3  C   UNL     1      -7.334   3.073 122.362  0.00  0.00    +0.000 A 
ATOM      4  C   UNL     1      -6.008   3.496 122.165  0.00  0.00    +0.000 A 
ATOM      5  C   UNL     1      -5.646   4.183 121.000  0.00  0.00    +0.000 A 
ATOM      6  C   UNL     1      -6.604   4.445 120.022  0.00  0.00    +0.000 A 
ATOM      7 BR   UNL     1      -6.109   5.318 118.420  0.00  0.00    +0.000 Br
ATOM      8  C   UNL     1      -7.926   4.053 120.208  0.00  0.00    +0.000 A 
ATOM      9  C   UNL     1      -8.287   3.381 121.376  0.00  0.00    +0.000 A 
ENDBRANCH   2   3
BRANCH   2  10
ATOM     10  C   UNL     1      -8.019   0.747 123.305  0.00  0.00    +0.000 A 
ATOM     11  C   UNL     1      -7.009  -0.220 123.354  0.00  0.00    +0.000 A 
ATOM     12  C   UNL     1      -7.302  -1.560 123.144  0.00  0.00    +0.000 A 
ATOM     13  C   UNL     1      -8.628  -1.915 122.985  0.00  0.00    +0.000 A 
ATOM     14  N   UNL     1      -9.647  -1.030 122.991  0.00  0.00    +0.000 NA
ATOM     15  C   UNL     1      -9.320   0.277 123.139  0.00  0.00    +0.000 A 
ENDBRANCH   2  10
BRANCH   1  16
ATOM     16  C   UNL     1      -8.194   1.984 125.999  0.00  0.00    +0.000 C 
BRANCH  16  18
ATOM     17  C   UNL     1      -7.711   1.416 128.259  0.00  0.00    +0.000 C 
ATOM     18  N   UNL     1      -7.190   2.092 127.061  0.00  0.00    +0.000 NA
ATOM     19  C   UNL     1      -5.926   1.479 126.659  0.00  0.00    +0.000 C 
ENDBRANCH  16  18
ENDBRANCH   1  16
TORSDOF 4
ENDMDL
MODEL 4
REMARK VINA RESULT:      -6.2      3.737      5.730
REMARK  Name = Zimelidine
REMARK  6 active torsions:
REMARK  status: ('A' for Active; 'I' for Inactive)
REMARK    1  A    between atoms: C_1  and  N_2
REMARK    2  A    between atoms: N_2  and  C_3
REMARK    3  A    between atoms: N_2  and  C_4
REMARK    4  A    between atoms: C_4  and  C_5
REMARK    5  A    between atoms: C_6  and  C_7
REMARK    6  A    between atoms: C_6  and  C_14
REMARK                            x       y       z     vdW  Elec       q    Type
REMARK                         _______ _______ _______ _____ _____    ______ ____
ROOT
ATOM      1  C   UNL     1      -8.284  -0.106 127.024  0.00  0.00    +0.000 C 
ATOM      2  C   UNL     1      -7.892  -1.362 126.689  0.00  0.00    +0.000 C 
ENDROOT
BRANCH   2   3
ATOM      3  C   UNL     1      -7.175  -2.189 127.703  0.00  0.00    +0.000 A 
ATOM      4  C   UNL     1      -5.782  -2.147 127.882  0.00  0.00    +0.000 A 
ATOM      5  C   UNL     1      -5.181  -2.825 128.950  0.00  0.00    +0.000 A 
ATOM      6  C   UNL     1      -5.968  -3.543 129.848  0.00  0.00    +0.000 A 
ATOM      7 BR   UNL     1      -5.170  -4.410 131.325  0.00  0.00    +0.000 Br
ATOM      8  C   UNL     1      -7.347  -3.615 129.675  0.00  0.00    +0.000 A 
ATOM      9  C   UNL     1      -7.942  -2.950 128.603  0.00  0.00    +0.000 A 
ENDBRANCH   2   3
BRANCH   2  10
ATOM     10  C   UNL     1      -8.194  -1.887 125.329  0.00  0.00    +0.000 A 
ATOM     11  C   UNL     1      -9.219  -2.808 125.084  0.00  0.00    +0.000 A 
ATOM     12  C   UNL     1      -9.448  -3.288 123.802  0.00  0.00    +0.000 A 
ATOM     13  C   UNL     1      -8.699  -2.757 122.769  0.00  0.00    +0.000 A 
ATOM     14  N   UNL     1      -7.739  -1.823 122.941  0.00  0.00    +0.000 NA
ATOM     15  C   UNL     1      -7.502  -1.419 124.213  0.00  0.00    +0.000 A 
ENDBRANCH   2  10
BRANCH   1  16
ATOM     16  C   UNL     1      -9.101   0.817 126.153  0.00  0.00    +0.000 C 
BRANCH  16  18
ATOM     17  C   UNL     1      -7.261   2.254 126.617  0.00  0.00    +0.000 C 
ATOM     18  N   UNL     1      -8.642   2.209 126.112  0.00  0.00    +0.000 NA
ATOM     19  C   UNL     1      -8.689   2.743 124.754  0.00  0.00    +0.000 C 
ENDBRANCH  16  18
ENDBRANCH   1  16
TORSDOF 4
ENDMDL
MODEL 5
REMARK VINA RESULT:      -6.1      3.856      5.757
REMARK  Name = Zimelidine
REMARK  6 active torsions:
REMARK  status: ('A' for Active; 'I' for Inactive)
REMARK    1  A    between atoms: C_1  and  N_2
REMARK    2  A    between atoms: N_2  and  C_3
REMARK    3  A    between atoms: N_2  and  C_4
REMARK    4  A    between atoms: C_4  and  C_5
REMARK    5  A    between atoms: C_6  and  C_7
REMARK    6  A    between atoms: C_6  and  C_14
REMARK                            x       y       z     vdW  Elec       q    Type
REMARK                         _______ _______ _______ _____ _____    ______ ____
ROOT
ATOM      1  C   UNL     1      -8.248   0.220 127.158  0.00  0.00    +0.000 C 
ATOM      2  C   UNL     1      -7.942  -1.086 126.951  0.00  0.00    +0.000 C 
ENDROOT
BRANCH   2   3
ATOM      3  C   UNL     1      -7.348  -1.876 128.069  0.00  0.00    +0.000 A 
ATOM      4  C   UNL     1      -8.122  -2.543 129.033  0.00  0.00    +0.000 A 
ATOM      5  C   UNL     1      -7.517  -3.395 129.966  0.00  0.00    +0.000 A 
ATOM      6  C   UNL     1      -6.137  -3.591 129.936  0.00  0.00    +0.000 A 
ATOM      7 BR   UNL     1      -5.322  -4.786 131.152  0.00  0.00    +0.000 Br
ATOM      8  C   UNL     1      -5.352  -2.922 129.002  0.00  0.00    +0.000 A 
ATOM      9  C   UNL     1      -5.955  -2.063 128.083  0.00  0.00    +0.000 A 
ENDBRANCH   2   3
BRANCH   2  10
ATOM     10  C   UNL     1      -8.214  -1.702 125.622  0.00  0.00    +0.000 A 
ATOM     11  C   UNL     1      -7.331  -1.588 124.542  0.00  0.00    +0.000 A 
ATOM     12  C   UNL     1      -7.637  -2.158 123.314  0.00  0.00    +0.000 A 
ATOM     13  C   UNL     1      -8.788  -2.917 123.223  0.00  0.00    +0.000 A 
ATOM     14  N   UNL     1      -9.643  -3.110 124.249  0.00  0.00    +0.000 NA
ATOM     15  C   UNL     1      -9.344  -2.491 125.418  0.00  0.00    +0.000 A 
ENDBRANCH   2  10
BRANCH   1  16
ATOM     16  C   UNL     1      -8.941   1.124 126.169  0.00  0.00    +0.000 C 
BRANCH  16  18
ATOM     17  C   UNL     1      -8.786   2.395 124.162  0.00  0.00    +0.000 C 
ATOM     18  N   UNL     1      -8.054   1.971 125.366  0.00  0.00    +0.000 NA
ATOM     19  C   UNL     1      -7.618   3.145 126.117  0.00  0.00    +0.000 C 
ENDBRANCH  16  18
ENDBRANCH   1  16
TORSDOF 4
ENDMDL
MODEL 6
REMARK VINA RESULT:      -6.1      3.183      5.947
REMARK  Name = Zimelidine
REMARK  6 active torsions:
REMARK  status: ('A' for Active; 'I' for Inactive)
REMARK    1  A    between atoms: C_1  and  N_2
REMARK    2  A    between atoms: N_2  and  C_3
REMARK    3  A    between atoms: N_2  and  C_4
REMARK    4  A    between atoms: C_4  and  C_5
REMARK    5  A    between atoms: C_6  and  C_7
REMARK    6  A    between atoms: C_6  and  C_14
REMARK                            x       y       z     vdW  Elec       q    Type
REMARK                         _______ _______ _______ _____ _____    ______ ____
ROOT
ATOM      1  C   UNL     1      -7.725   1.541 123.687  0.00  0.00    +0.000 C 
ATOM      2  C   UNL     1      -6.970   2.664 123.574  0.00  0.00    +0.000 C 
ENDROOT
BRANCH   2   3
ATOM      3  C   UNL     1      -6.756   3.257 122.222  0.00  0.00    +0.000 A 
ATOM      4  C   UNL     1      -7.786   3.410 121.278  0.00  0.00    +0.000 A 
ATOM      5  C   UNL     1      -7.563   4.114 120.088  0.00  0.00    +0.000 A 
ATOM      6  C   UNL     1      -6.312   4.675 119.837  0.00  0.00    +0.000 A 
ATOM      7 BR   UNL     1      -6.021   5.677 118.262  0.00  0.00    +0.000 Br
ATOM      8  C   UNL     1      -5.273   4.516 120.749  0.00  0.00    +0.000 A 
ATOM      9  C   UNL     1      -5.494   3.803 121.927  0.00  0.00    +0.000 A 
ENDBRANCH   2   3
BRANCH   2  10
ATOM     10  C   UNL     1      -6.384   3.280 124.796  0.00  0.00    +0.000 A 
ATOM     11  C   UNL     1      -5.250   2.764 125.433  0.00  0.00    +0.000 A 
ATOM     12  C   UNL     1      -4.753   3.358 126.585  0.00  0.00    +0.000 A 
ATOM     13  C   UNL     1      -5.354   4.523 127.022  0.00  0.00    +0.000 A 
ATOM     14  N   UNL     1      -6.412   5.097 126.412  0.00  0.00    +0.000 NA
ATOM     15  C   UNL     1      -6.908   4.459 125.323  0.00  0.00    +0.000 A 
ENDBRANCH   2  10
BRANCH   1  16
ATOM     16  C   UNL     1      -8.116   0.876 124.984  0.00  0.00    +0.000 C 
BRANCH  16  18
ATOM     17  C   UNL     1      -8.724  -1.329 124.327  0.00  0.00    +0.000 C 
ATOM     18  N   UNL     1      -7.752  -0.539 125.098  0.00  0.00    +0.000 NA
ATOM     19  C   UNL     1      -6.405  -0.782 124.589  0.00  0.00    +0.000 C 
ENDBRANCH  16  18
ENDBRANCH   1  16
TORSDOF 4
ENDMDL
MODEL 7
REMARK VINA RESULT:      -6.0      6.091      8.566
REMARK  Name = Zimelidine
REMARK  6 active torsions:
REMARK  status: ('A' for Active; 'I' for Inactive)
REMARK    1  A    between atoms: C_1  and  N_2
REMARK    2  A    between atoms: N_2  and  C_3
REMARK    3  A    between atoms: N_2  and  C_4
REMARK    4  A    between atoms: C_4  and  C_5
REMARK    5  A    between atoms: C_6  and  C_7
REMARK    6  A    between atoms: C_6  and  C_14
REMARK                            x       y       z     vdW  Elec       q    Type
REMARK                         _______ _______ _______ _____ _____    ______ ____
ROOT
ATOM      1  C   UNL     1      -8.159  -1.259 130.783  0.00  0.00    +0.000 C 
ATOM      2  C   UNL     1      -7.455  -2.042 129.926  0.00  0.00    +0.000 C 
ENDROOT
BRANCH   2   3
ATOM      3  C   UNL     1      -7.962  -2.227 128.534  0.00  0.00    +0.000 A 
ATOM      4  C   UNL     1      -7.748  -1.290 127.509  0.00  0.00    +0.000 A 
ATOM      5  C   UNL     1      -8.109  -1.586 126.188  0.00  0.00    +0.000 A 
ATOM      6  C   UNL     1      -8.678  -2.821 125.884  0.00  0.00    +0.000 A 
ATOM      7 BR   UNL     1      -9.112  -3.249 124.095  0.00  0.00    +0.000 Br
ATOM      8  C   UNL     1      -8.917  -3.753 126.889  0.00  0.00    +0.000 A 
ATOM      9  C   UNL     1      -8.570  -3.451 128.205  0.00  0.00    +0.000 A 
ENDBRANCH   2   3
BRANCH   2  10
ATOM     10  C   UNL     1      -6.195  -2.688 130.388  0.00  0.00    +0.000 A 
ATOM     11  C   UNL     1      -6.164  -3.975 130.938  0.00  0.00    +0.000 A 
ATOM     12  C   UNL     1      -4.969  -4.527 131.377  0.00  0.00    +0.000 A 
ATOM     13  C   UNL     1      -3.807  -3.808 131.165  0.00  0.00    +0.000 A 
ATOM     14  N   UNL     1      -3.774  -2.590 130.585  0.00  0.00    +0.000 NA
ATOM     15  C   UNL     1      -4.965  -2.055 130.221  0.00  0.00    +0.000 A 
ENDBRANCH   2  10
BRANCH   1  16
ATOM     16  C   UNL     1      -7.733  -0.893 132.184  0.00  0.00    +0.000 C 
BRANCH  16  18
ATOM     17  C   UNL     1      -6.911   1.331 132.393  0.00  0.00    +0.000 C 
ATOM     18  N   UNL     1      -8.081   0.466 132.609  0.00  0.00    +0.000 NA
ATOM     19  C   UNL     1      -9.221   0.981 131.856  0.00  0.00    +0.000 C 
ENDBRANCH  16  18
ENDBRANCH   1  16
TORSDOF 4
ENDMDL
MODEL 8
REMARK VINA RESULT:      -6.0      3.080      5.210
REMARK  Name = Zimelidine
REMARK  6 active torsions:
REMARK  status: ('A' for Active; 'I' for Inactive)
REMARK    1  A    between atoms: C_1  and  N_2
REMARK    2  A    between atoms: N_2  and  C_3
REMARK    3  A    between atoms: N_2  and  C_4
REMARK    4  A    between atoms: C_4  and  C_5
REMARK    5  A    between atoms: C_6  and  C_7
REMARK    6  A    between atoms: C_6  and  C_14
REMARK                            x       y       z     vdW  Elec       q    Type
REMARK                         _______ _______ _______ _____ _____    ______ ____
ROOT
ATOM      1  C   UNL     1      -6.919   3.355 125.114  0.00  0.00    +0.000 C 
ATOM      2  C   UNL     1      -7.421   2.497 124.189  0.00  0.00    +0.000 C 
ENDROOT
BRANCH   2   3
ATOM      3  C   UNL     1      -7.436   2.909 122.755  0.00  0.00    +0.000 A 
ATOM      4  C   UNL     1      -8.620   3.121 122.029  0.00  0.00    +0.000 A 
ATOM      5  C   UNL     1      -8.575   3.656 120.735  0.00  0.00    +0.000 A 
ATOM      6  C   UNL     1      -7.349   3.988 120.163  0.00  0.00    +0.000 A 
ATOM      7 BR   UNL     1      -7.286   4.767 118.442  0.00  0.00    +0.000 Br
ATOM      8  C   UNL     1      -6.164   3.765 120.857  0.00  0.00    +0.000 A 
ATOM      9  C   UNL     1      -6.210   3.219 122.140  0.00  0.00    +0.000 A 
ENDBRANCH   2   3
BRANCH   2  10
ATOM     10  C   UNL     1      -7.936   1.169 124.623  0.00  0.00    +0.000 A 
ATOM     11  C   UNL     1      -7.126   0.029 124.687  0.00  0.00    +0.000 A 
ATOM     12  C   UNL     1      -7.655  -1.194 125.075  0.00  0.00    +0.000 A 
ATOM     13  C   UNL     1      -8.975  -1.227 125.484  0.00  0.00    +0.000 A 
ATOM     14  N   UNL     1      -9.783  -0.147 125.499  0.00  0.00    +0.000 NA
ATOM     15  C   UNL     1      -9.251   1.020 125.060  0.00  0.00    +0.000 A 
ENDBRANCH   2  10
BRANCH   1  16
ATOM     16  C   UNL     1      -6.742   3.053 126.582  0.00  0.00    +0.000 C 
BRANCH  16  18
ATOM     17  C   UNL     1      -4.704   1.891 126.983  0.00  0.00    +0.000 C 
ATOM     18  N   UNL     1      -5.375   3.196 127.091  0.00  0.00    +0.000 NA
ATOM     19  C   UNL     1      -4.630   4.198 126.334  0.00  0.00    +0.000 C 
ENDBRANCH  16  18
ENDBRANCH   1  16
TORSDOF 4
ENDMDL
MODEL 9
REMARK VINA RESULT:      -5.9      6.951      9.904
REMARK  Name = Zimelidine
REMARK  6 active torsions:
REMARK  status: ('A' for Active; 'I' for Inactive)
REMARK    1  A    between atoms: C_1  and  N_2
REMARK    2  A    between atoms: N_2  and  C_3
REMARK    3  A    between atoms: N_2  and  C_4
REMARK    4  A    between atoms: C_4  and  C_5
REMARK    5  A    between atoms: C_6  and  C_7
REMARK    6  A    between atoms: C_6  and  C_14
REMARK                            x       y       z     vdW  Elec       q    Type
REMARK                         _______ _______ _______ _____ _____    ______ ____
ROOT
ATOM      1  C   UNL     1      -8.904   6.160 132.213  0.00  0.00    +0.000 C 
ATOM      2  C   UNL     1      -9.413   5.857 130.992  0.00  0.00    +0.000 C 
ENDROOT
BRANCH   2   3
ATOM      3  C   UNL     1     -10.489   6.721 130.424  0.00  0.00    +0.000 A 
ATOM      4  C   UNL     1     -11.751   6.870 131.023  0.00  0.00    +0.000 A 
ATOM      5  C   UNL     1     -12.665   7.811 130.534  0.00  0.00    +0.000 A 
ATOM      6  C   UNL     1     -12.321   8.614 129.447  0.00  0.00    +0.000 A 
ATOM      7 BR   UNL     1     -13.526   9.927 128.820  0.00  0.00    +0.000 Br
ATOM      8  C   UNL     1     -11.085   8.466 128.827  0.00  0.00    +0.000 A 
ATOM      9  C   UNL     1     -10.181   7.518 129.308  0.00  0.00    +0.000 A 
ENDBRANCH   2   3
BRANCH   2  10
ATOM     10  C   UNL     1      -8.884   4.681 130.247  0.00  0.00    +0.000 A 
ATOM     11  C   UNL     1      -9.531   3.440 130.237  0.00  0.00    +0.000 A 
ATOM     12  C   UNL     1      -8.987   2.365 129.547  0.00  0.00    +0.000 A 
ATOM     13  C   UNL     1      -7.847   2.587 128.799  0.00  0.00    +0.000 A 
ATOM     14  N   UNL     1      -7.217   3.778 128.726  0.00  0.00    +0.000 NA
ATOM     15  C   UNL     1      -7.742   4.791 129.457  0.00  0.00    +0.000 A 
ENDBRANCH   2  10
BRANCH   1  16
ATOM     16  C   UNL     1      -7.751   5.451 132.881  0.00  0.00    +0.000 C 
BRANCH  16  18
ATOM     17  C   UNL     1      -9.034   3.750 133.942  0.00  0.00    +0.000 C 
ATOM     18  N   UNL     1      -8.061   4.829 134.172  0.00  0.00    +0.000 NA
ATOM     19  C   UNL     1      -6.861   4.285 134.800  0.00  0.00    +0.000 C 
ENDBRANCH  16  18
ENDBRANCH   1  16
TORSDOF 4
ENDMDL
