MODEL 1
REMARK VINA RESULT:      -2.2      0.000      0.000
REMARK  Name = Zinc oxide
REMARK  0 active torsions:
REMARK  status: ('A' for Active; 'I' for Inactive)
REMARK                            x       y       z     vdW  Elec       q    Type
REMARK                         _______ _______ _______ _____ _____    ______ ____
ROOT
ATOM      1  O   UNL     1      -4.824   6.171 120.215  0.00  0.00    +0.000 OA
ATOM      2 ZN   UNL     1      -3.625   6.669 121.285  0.00  0.00    +0.000 Zn
ENDROOT
TORSDOF 0
ENDMDL
MODEL 2
REMARK VINA RESULT:      -1.8      2.211      2.211
REMARK  Name = Zinc oxide
REMARK  0 active torsions:
REMARK  status: ('A' for Active; 'I' for Inactive)
REMARK                            x       y       z     vdW  Elec       q    Type
REMARK                         _______ _______ _______ _____ _____    ______ ____
ROOT
ATOM      1  O   UNL     1      -4.808   6.187 120.223  0.00  0.00    +0.000 OA
ATOM      2 ZN   UNL     1      -4.932   5.650 118.633  0.00  0.00    +0.000 Zn
ENDROOT
TORSDOF 0
ENDMDL
MODEL 3
REMARK VINA RESULT:      -1.7     15.009     15.009
REMARK  Name = Zinc oxide
REMARK  0 active torsions:
REMARK  status: ('A' for Active; 'I' for Inactive)
REMARK                            x       y       z     vdW  Elec       q    Type
REMARK                         _______ _______ _______ _____ _____    ______ ____
ROOT
ATOM      1  O   UNL     1     -13.508  12.489 130.484  0.00  0.00    +0.000 OA
ATOM      2 ZN   UNL     1     -12.765  12.307 131.981  0.00  0.00    +0.000 Zn
ENDROOT
TORSDOF 0
ENDMDL
MODEL 4
REMARK VINA RESULT:      -1.7     12.306     12.306
REMARK  Name = Zinc oxide
REMARK  0 active torsions:
REMARK  status: ('A' for Active; 'I' for Inactive)
REMARK                            x       y       z     vdW  Elec       q    Type
REMARK                         _______ _______ _______ _____ _____    ______ ____
ROOT
ATOM      1  O   UNL     1      -3.550  -4.799 123.435  0.00  0.00    +0.000 OA
ATOM      2 ZN   UNL     1      -4.134  -6.282 122.896  0.00  0.00    +0.000 Zn
ENDROOT
TORSDOF 0
ENDMDL
MODEL 5
REMARK VINA RESULT:      -1.6      6.554      6.554
REMARK  Name = Zinc oxide
REMARK  0 active torsions:
REMARK  status: ('A' for Active; 'I' for Inactive)
REMARK                            x       y       z     vdW  Elec       q    Type
REMARK                         _______ _______ _______ _____ _____    ______ ____
ROOT
ATOM      1  O   UNL     1      -9.153   5.831 126.097  0.00  0.00    +0.000 OA
ATOM      2 ZN   UNL     1      -7.920   6.075 124.980  0.00  0.00    +0.000 Zn
ENDROOT
TORSDOF 0
ENDMDL
MODEL 6
REMARK VINA RESULT:      -1.5     12.340     12.340
REMARK  Name = Zinc oxide
REMARK  0 active torsions:
REMARK  status: ('A' for Active; 'I' for Inactive)
REMARK                            x       y       z     vdW  Elec       q    Type
REMARK                         _______ _______ _______ _____ _____    ______ ____
ROOT
ATOM      1  O   UNL     1      -9.914  -3.168 123.383  0.00  0.00    +0.000 OA
ATOM      2 ZN   UNL     1     -11.045  -4.403 123.226  0.00  0.00    +0.000 Zn
ENDROOT
TORSDOF 0
ENDMDL
MODEL 7
REMARK VINA RESULT:      -1.5      9.007      9.007
REMARK  Name = Zinc oxide
REMARK  0 active torsions:
REMARK  status: ('A' for Active; 'I' for Inactive)
REMARK                            x       y       z     vdW  Elec       q    Type
REMARK                         _______ _______ _______ _____ _____    ______ ____
ROOT
ATOM      1  O   UNL     1     -12.492   5.601 118.354  0.00  0.00    +0.000 OA
ATOM      2 ZN   UNL     1     -12.523   4.128 117.543  0.00  0.00    +0.000 Zn
ENDROOT
TORSDOF 0
ENDMDL
MODEL 8
REMARK VINA RESULT:      -1.5      9.700      9.700
REMARK  Name = Zinc oxide
REMARK  0 active torsions:
REMARK  status: ('A' for Active; 'I' for Inactive)
REMARK                            x       y       z     vdW  Elec       q    Type
REMARK                         _______ _______ _______ _____ _____    ______ ____
ROOT
ATOM      1  O   UNL     1     -11.170   0.438 122.713  0.00  0.00    +0.000 OA
ATOM      2 ZN   UNL     1     -12.254   1.312 123.657  0.00  0.00    +0.000 Zn
ENDROOT
TORSDOF 0
ENDMDL
MODEL 9
REMARK VINA RESULT:      -1.5     18.571     18.571
REMARK  Name = Zinc oxide
REMARK  0 active torsions:
REMARK  status: ('A' for Active; 'I' for Inactive)
REMARK                            x       y       z     vdW  Elec       q    Type
REMARK                         _______ _______ _______ _____ _____    ______ ____
ROOT
ATOM      1  O   UNL     1     -11.488   8.803 137.644  0.00  0.00    +0.000 OA
ATOM      2 ZN   UNL     1     -12.782   9.538 136.860  0.00  0.00    +0.000 Zn
ENDROOT
TORSDOF 0
ENDMDL
