MODEL 1
REMARK VINA RESULT:     -10.3      0.000      0.000
REMARK  Name = Ziprasidone
REMARK  3 active torsions:
REMARK  status: ('A' for Active; 'I' for Inactive)
REMARK    1  A    between atoms: C_3  and  C_4
REMARK    2  A    between atoms: C_4  and  C_5
REMARK    3  A    between atoms: C_5  and  N_6
REMARK                            x       y       z     vdW  Elec       q    Type
REMARK                         _______ _______ _______ _____ _____    ______ ____
ROOT
ATOM      1  N   UNL     1      -6.822   5.013 129.271  0.00  0.00    +0.000 NA
ATOM      2  C   UNL     1      -5.692   4.119 129.263  0.00  0.00    +0.000 C 
ATOM      3  C   UNL     1      -6.020   2.772 130.483  0.00  0.00    +0.000 C 
ATOM      4  N   UNL     1      -7.203   1.583 130.040  0.00  0.00    +0.000 N 
ATOM      5  C   UNL     1      -8.181   2.615 129.424  0.00  0.00    +0.000 C 
ATOM      6  C   UNL     1      -7.708   3.998 128.673  0.00  0.00    +0.000 C 
ATOM      7  C   UNL     1      -7.198  -0.102 129.738  0.00  0.00    +0.000 A 
ATOM      8  N   UNL     1      -6.973   0.190 128.452  0.00  0.00    +0.000 NA
ATOM      9  S   UNL     1      -5.814  -0.992 128.218  0.00  0.00    +0.000 S 
ATOM     10  C   UNL     1      -7.222  -1.921 128.034  0.00  0.00    +0.000 A 
ATOM     11  C   UNL     1      -8.049  -2.050 126.835  0.00  0.00    +0.000 A 
ATOM     12  C   UNL     1      -8.996  -3.020 126.593  0.00  0.00    +0.000 A 
ATOM     13  C   UNL     1      -9.006  -3.920 127.586  0.00  0.00    +0.000 A 
ATOM     14  C   UNL     1      -8.385  -3.417 128.894  0.00  0.00    +0.000 A 
ATOM     15  C   UNL     1      -7.676  -1.938 129.412  0.00  0.00    +0.000 A 
ENDROOT
BRANCH   1  16
ATOM     16  C   UNL     1      -6.604   5.592 130.648  0.00  0.00    +0.000 C 
BRANCH  16  17
ATOM     17  C   UNL     1      -7.658   6.934 130.886  0.00  0.00    +0.000 C 
BRANCH  17  20
ATOM     18 CL   UNL     1      -8.662   5.778 133.565  0.00  0.00    +0.000 Cl
ATOM     19  C   UNL     1      -9.636   6.241 132.206  0.00  0.00    +0.000 A 
ATOM     20  C   UNL     1      -9.068   6.710 130.988  0.00  0.00    +0.000 A 
ATOM     21  C   UNL     1      -9.778   7.085 129.881  0.00  0.00    +0.000 A 
ATOM     22  C   UNL     1     -11.123   7.238 130.133  0.00  0.00    +0.000 A 
ATOM     23  C   UNL     1     -12.778   7.952 129.343  0.00  0.00    +0.000 C 
ATOM     24  C   UNL     1     -11.562   8.058 128.948  0.00  0.00    +0.000 C 
ATOM     25  O   UNL     1     -11.614   8.596 127.807  0.00  0.00    +0.000 OA
ATOM     26  N   UNL     1     -12.463   7.396 130.470  0.00  0.00    +0.000 N 
ATOM     27  C   UNL     1     -11.585   6.825 131.278  0.00  0.00    +0.000 A 
ATOM     28  C   UNL     1     -10.999   6.182 132.301  0.00  0.00    +0.000 A 
ATOM     29  H   UNL     1     -13.441   7.348 130.862  0.00  0.00    +0.000 HD
ENDBRANCH  17  20
ENDBRANCH  16  17
ENDBRANCH   1  16
TORSDOF 3
ENDMDL
MODEL 2
REMARK VINA RESULT:      -9.7      3.601      9.147
REMARK  Name = Ziprasidone
REMARK  3 active torsions:
REMARK  status: ('A' for Active; 'I' for Inactive)
REMARK    1  A    between atoms: C_3  and  C_4
REMARK    2  A    between atoms: C_4  and  C_5
REMARK    3  A    between atoms: C_5  and  N_6
REMARK                            x       y       z     vdW  Elec       q    Type
REMARK                         _______ _______ _______ _____ _____    ______ ____
ROOT
ATOM      1  N   UNL     1      -6.940   0.609 129.934  0.00  0.00    +0.000 NA
ATOM      2  C   UNL     1      -6.281   1.834 130.305  0.00  0.00    +0.000 C 
ATOM      3  C   UNL     1      -6.640   3.095 129.004  0.00  0.00    +0.000 C 
ATOM      4  N   UNL     1      -8.246   3.750 128.968  0.00  0.00    +0.000 N 
ATOM      5  C   UNL     1      -8.934   2.388 129.238  0.00  0.00    +0.000 C 
ATOM      6  C   UNL     1      -8.278   1.190 130.152  0.00  0.00    +0.000 C 
ATOM      7  C   UNL     1      -8.949   5.294 129.197  0.00  0.00    +0.000 A 
ATOM      8  N   UNL     1      -9.081   4.975 130.489  0.00  0.00    +0.000 NA
ATOM      9  S   UNL     1      -8.575   6.458 131.074  0.00  0.00    +0.000 S 
ATOM     10  C   UNL     1     -10.196   6.817 130.725  0.00  0.00    +0.000 A 
ATOM     11  C   UNL     1     -11.366   6.535 131.556  0.00  0.00    +0.000 A 
ATOM     12  C   UNL     1     -12.620   7.087 131.422  0.00  0.00    +0.000 A 
ATOM     13  C   UNL     1     -12.619   8.018 130.458  0.00  0.00    +0.000 A 
ATOM     14  C   UNL     1     -11.457   7.891 129.466  0.00  0.00    +0.000 A 
ATOM     15  C   UNL     1     -10.134   6.809 129.276  0.00  0.00    +0.000 A 
ENDROOT
BRANCH   1  16
ATOM     16  C   UNL     1      -6.079   0.278 128.739  0.00  0.00    +0.000 C 
BRANCH  16  17
ATOM     17  C   UNL     1      -5.805  -1.421 128.676  0.00  0.00    +0.000 C 
BRANCH  17  20
ATOM     18 CL   UNL     1      -7.588  -2.955 130.673  0.00  0.00    +0.000 Cl
ATOM     19  C   UNL     1      -7.717  -2.972 128.943  0.00  0.00    +0.000 A 
ATOM     20  C   UNL     1      -6.803  -2.274 128.105  0.00  0.00    +0.000 A 
ATOM     21  C   UNL     1      -6.847  -2.250 126.738  0.00  0.00    +0.000 A 
ATOM     22  C   UNL     1      -8.029  -2.741 126.231  0.00  0.00    +0.000 A 
ATOM     23  C   UNL     1      -9.073  -2.861 124.567  0.00  0.00    +0.000 C 
ATOM     24  C   UNL     1      -8.005  -2.198 124.827  0.00  0.00    +0.000 C 
ATOM     25  O   UNL     1      -7.613  -1.726 123.723  0.00  0.00    +0.000 OA
ATOM     26  N   UNL     1      -9.257  -3.227 125.796  0.00  0.00    +0.000 N 
ATOM     27  C   UNL     1      -8.847  -3.341 127.048  0.00  0.00    +0.000 A 
ATOM     28  C   UNL     1      -8.742  -3.656 128.349  0.00  0.00    +0.000 A 
ATOM     29  H   UNL     1     -10.173  -3.728 125.639  0.00  0.00    +0.000 HD
ENDBRANCH  17  20
ENDBRANCH  16  17
ENDBRANCH   1  16
TORSDOF 3
ENDMDL
MODEL 3
REMARK VINA RESULT:      -9.6      4.334      8.487
REMARK  Name = Ziprasidone
REMARK  3 active torsions:
REMARK  status: ('A' for Active; 'I' for Inactive)
REMARK    1  A    between atoms: C_3  and  C_4
REMARK    2  A    between atoms: C_4  and  C_5
REMARK    3  A    between atoms: C_5  and  N_6
REMARK                            x       y       z     vdW  Elec       q    Type
REMARK                         _______ _______ _______ _____ _____    ______ ____
ROOT
ATOM      1  N   UNL     1      -7.181   1.933 130.087  0.00  0.00    +0.000 NA
ATOM      2  C   UNL     1      -7.842   2.492 131.238  0.00  0.00    +0.000 C 
ATOM      3  C   UNL     1      -7.588   4.322 131.213  0.00  0.00    +0.000 C 
ATOM      4  N   UNL     1      -8.480   5.222 130.028  0.00  0.00    +0.000 N 
ATOM      5  C   UNL     1      -8.262   4.180 128.902  0.00  0.00    +0.000 C 
ATOM      6  C   UNL     1      -8.135   2.561 129.156  0.00  0.00    +0.000 C 
ATOM      7  C   UNL     1      -9.691   6.431 130.060  0.00  0.00    +0.000 A 
ATOM      8  N   UNL     1     -10.592   5.442 130.024  0.00  0.00    +0.000 NA
ATOM      9  S   UNL     1     -11.606   6.106 131.177  0.00  0.00    +0.000 S 
ATOM     10  C   UNL     1     -12.111   6.972 129.807  0.00  0.00    +0.000 A 
ATOM     11  C   UNL     1     -13.051   6.532 128.777  0.00  0.00    +0.000 A 
ATOM     12  C   UNL     1     -13.685   7.330 127.851  0.00  0.00    +0.000 A 
ATOM     13  C   UNL     1     -13.397   8.621 128.072  0.00  0.00    +0.000 A 
ATOM     14  C   UNL     1     -12.128   8.845 128.902  0.00  0.00    +0.000 A 
ATOM     15  C   UNL     1     -10.949   7.820 129.621  0.00  0.00    +0.000 A 
ENDROOT
BRANCH   1  16
ATOM     16  C   UNL     1      -5.762   2.195 130.531  0.00  0.00    +0.000 C 
BRANCH  16  17
ATOM     17  C   UNL     1      -4.665   1.621 129.333  0.00  0.00    +0.000 C 
BRANCH  17  20
ATOM     18 CL   UNL     1      -4.823   1.307 126.267  0.00  0.00    +0.000 Cl
ATOM     19  C   UNL     1      -3.972   2.542 127.140  0.00  0.00    +0.000 A 
ATOM     20  C   UNL     1      -3.911   2.563 128.562  0.00  0.00    +0.000 A 
ATOM     21  C   UNL     1      -3.256   3.503 129.308  0.00  0.00    +0.000 A 
ATOM     22  C   UNL     1      -2.879   4.605 128.573  0.00  0.00    +0.000 A 
ATOM     23  C   UNL     1      -2.196   6.440 128.766  0.00  0.00    +0.000 C 
ATOM     24  C   UNL     1      -2.620   5.618 129.656  0.00  0.00    +0.000 C 
ATOM     25  O   UNL     1      -2.363   6.152 130.771  0.00  0.00    +0.000 OA
ATOM     26  N   UNL     1      -2.553   5.692 127.770  0.00  0.00    +0.000 N 
ATOM     27  C   UNL     1      -2.988   4.545 127.276  0.00  0.00    +0.000 A 
ATOM     28  C   UNL     1      -3.353   3.549 126.453  0.00  0.00    +0.000 A 
ATOM     29  H   UNL     1      -2.279   6.367 127.006  0.00  0.00    +0.000 HD
ENDBRANCH  17  20
ENDBRANCH  16  17
ENDBRANCH   1  16
TORSDOF 3
ENDMDL
MODEL 4
REMARK VINA RESULT:      -9.6      4.247      7.999
REMARK  Name = Ziprasidone
REMARK  3 active torsions:
REMARK  status: ('A' for Active; 'I' for Inactive)
REMARK    1  A    between atoms: C_3  and  C_4
REMARK    2  A    between atoms: C_4  and  C_5
REMARK    3  A    between atoms: C_5  and  N_6
REMARK                            x       y       z     vdW  Elec       q    Type
REMARK                         _______ _______ _______ _____ _____    ______ ____
ROOT
ATOM      1  N   UNL     1      -7.287   2.163 131.863  0.00  0.00    +0.000 NA
ATOM      2  C   UNL     1      -8.060   2.940 132.798  0.00  0.00    +0.000 C 
ATOM      3  C   UNL     1      -7.769   4.728 132.435  0.00  0.00    +0.000 C 
ATOM      4  N   UNL     1      -8.507   5.368 131.002  0.00  0.00    +0.000 N 
ATOM      5  C   UNL     1      -8.187   4.122 130.139  0.00  0.00    +0.000 C 
ATOM      6  C   UNL     1      -8.121   2.588 130.724  0.00  0.00    +0.000 C 
ATOM      7  C   UNL     1      -9.691   6.554 130.655  0.00  0.00    +0.000 A 
ATOM      8  N   UNL     1     -10.602   5.576 130.717  0.00  0.00    +0.000 NA
ATOM      9  S   UNL     1     -11.724   6.455 131.592  0.00  0.00    +0.000 S 
ATOM     10  C   UNL     1     -12.057   7.026 130.029  0.00  0.00    +0.000 A 
ATOM     11  C   UNL     1     -12.887   6.385 129.009  0.00  0.00    +0.000 A 
ATOM     12  C   UNL     1     -13.399   6.978 127.877  0.00  0.00    +0.000 A 
ATOM     13  C   UNL     1     -13.112   8.287 127.866  0.00  0.00    +0.000 A 
ATOM     14  C   UNL     1     -11.938   8.679 128.771  0.00  0.00    +0.000 A 
ATOM     15  C   UNL     1     -10.866   7.823 129.808  0.00  0.00    +0.000 A 
ENDROOT
BRANCH   1  16
ATOM     16  C   UNL     1      -5.920   2.513 132.402  0.00  0.00    +0.000 C 
BRANCH  16  17
ATOM     17  C   UNL     1      -4.807   2.673 131.097  0.00  0.00    +0.000 C 
BRANCH  17  20
ATOM     18 CL   UNL     1      -2.556   3.024 133.179  0.00  0.00    +0.000 Cl
ATOM     19  C   UNL     1      -2.921   4.087 131.857  0.00  0.00    +0.000 A 
ATOM     20  C   UNL     1      -4.023   3.866 130.985  0.00  0.00    +0.000 A 
ATOM     21  C   UNL     1      -4.367   4.666 129.930  0.00  0.00    +0.000 A 
ATOM     22  C   UNL     1      -3.383   5.572 129.602  0.00  0.00    +0.000 A 
ATOM     23  C   UNL     1      -2.852   6.848 128.200  0.00  0.00    +0.000 C 
ATOM     24  C   UNL     1      -3.793   5.974 128.210  0.00  0.00    +0.000 C 
ATOM     25  O   UNL     1      -4.473   6.186 127.167  0.00  0.00    +0.000 OA
ATOM     26  N   UNL     1      -2.334   6.440 129.316  0.00  0.00    +0.000 N 
ATOM     27  C   UNL     1      -2.377   5.710 130.418  0.00  0.00    +0.000 A 
ATOM     28  C   UNL     1      -2.115   5.166 131.617  0.00  0.00    +0.000 A 
ATOM     29  H   UNL     1      -1.508   7.096 129.315  0.00  0.00    +0.000 HD
ENDBRANCH  17  20
ENDBRANCH  16  17
ENDBRANCH   1  16
TORSDOF 3
ENDMDL
MODEL 5
REMARK VINA RESULT:      -9.5      4.069      4.991
REMARK  Name = Ziprasidone
REMARK  3 active torsions:
REMARK  status: ('A' for Active; 'I' for Inactive)
REMARK    1  A    between atoms: C_3  and  C_4
REMARK    2  A    between atoms: C_4  and  C_5
REMARK    3  A    between atoms: C_5  and  N_6
REMARK                            x       y       z     vdW  Elec       q    Type
REMARK                         _______ _______ _______ _____ _____    ______ ____
ROOT
ATOM      1  N   UNL     1      -6.125   3.176 129.256  0.00  0.00    +0.000 NA
ATOM      2  C   UNL     1      -6.586   1.977 128.604  0.00  0.00    +0.000 C 
ATOM      3  C   UNL     1      -8.108   2.396 127.645  0.00  0.00    +0.000 C 
ATOM      4  N   UNL     1      -7.893   3.327 126.198  0.00  0.00    +0.000 N 
ATOM      5  C   UNL     1      -6.831   4.267 126.820  0.00  0.00    +0.000 C 
ATOM      6  C   UNL     1      -5.757   3.806 127.976  0.00  0.00    +0.000 C 
ATOM      7  C   UNL     1      -8.159   3.078 124.525  0.00  0.00    +0.000 A 
ATOM      8  N   UNL     1      -6.900   2.630 124.455  0.00  0.00    +0.000 NA
ATOM      9  S   UNL     1      -7.248   1.325 123.468  0.00  0.00    +0.000 S 
ATOM     10  C   UNL     1      -7.155   2.557 122.305  0.00  0.00    +0.000 A 
ATOM     11  C   UNL     1      -5.947   3.104 121.687  0.00  0.00    +0.000 A 
ATOM     12  C   UNL     1      -5.886   3.870 120.544  0.00  0.00    +0.000 A 
ATOM     13  C   UNL     1      -7.103   3.983 119.993  0.00  0.00    +0.000 A 
ATOM     14  C   UNL     1      -8.258   3.699 120.960  0.00  0.00    +0.000 A 
ATOM     15  C   UNL     1      -8.374   3.275 122.623  0.00  0.00    +0.000 A 
ENDROOT
BRANCH   1  16
ATOM     16  C   UNL     1      -7.257   3.306 130.247  0.00  0.00    +0.000 C 
BRANCH  16  17
ATOM     17  C   UNL     1      -7.540   4.971 130.588  0.00  0.00    +0.000 C 
BRANCH  17  20
ATOM     18 CL   UNL     1      -8.869   5.662 133.285  0.00  0.00    +0.000 Cl
ATOM     19  C   UNL     1      -9.548   5.894 131.706  0.00  0.00    +0.000 A 
ATOM     20  C   UNL     1      -8.875   5.485 130.521  0.00  0.00    +0.000 A 
ATOM     21  C   UNL     1      -9.355   5.634 129.249  0.00  0.00    +0.000 A 
ATOM     22  C   UNL     1     -10.443   6.476 129.183  0.00  0.00    +0.000 A 
ATOM     23  C   UNL     1     -11.571   7.457 127.903  0.00  0.00    +0.000 C 
ATOM     24  C   UNL     1     -10.474   6.816 127.717  0.00  0.00    +0.000 C 
ATOM     25  O   UNL     1     -10.305   6.777 126.466  0.00  0.00    +0.000 OA
ATOM     26  N   UNL     1     -11.520   7.356 129.194  0.00  0.00    +0.000 N 
ATOM     27  C   UNL     1     -11.000   6.850 130.300  0.00  0.00    +0.000 A 
ATOM     28  C   UNL     1     -10.761   6.513 131.577  0.00  0.00    +0.000 A 
ATOM     29  H   UNL     1     -12.380   7.933 129.396  0.00  0.00    +0.000 HD
ENDBRANCH  17  20
ENDBRANCH  16  17
ENDBRANCH   1  16
TORSDOF 3
ENDMDL
MODEL 6
REMARK VINA RESULT:      -9.1      6.342      9.796
REMARK  Name = Ziprasidone
REMARK  3 active torsions:
REMARK  status: ('A' for Active; 'I' for Inactive)
REMARK    1  A    between atoms: C_3  and  C_4
REMARK    2  A    between atoms: C_4  and  C_5
REMARK    3  A    between atoms: C_5  and  N_6
REMARK                            x       y       z     vdW  Elec       q    Type
REMARK                         _______ _______ _______ _____ _____    ______ ____
ROOT
ATOM      1  N   UNL     1      -4.576   3.577 127.607  0.00  0.00    +0.000 NA
ATOM      2  C   UNL     1      -3.245   3.416 128.135  0.00  0.00    +0.000 C 
ATOM      3  C   UNL     1      -2.494   5.094 128.315  0.00  0.00    +0.000 C 
ATOM      4  N   UNL     1      -3.090   6.087 129.606  0.00  0.00    +0.000 N 
ATOM      5  C   UNL     1      -4.571   5.688 129.386  0.00  0.00    +0.000 C 
ATOM      6  C   UNL     1      -5.058   4.215 128.845  0.00  0.00    +0.000 C 
ATOM      7  C   UNL     1      -2.435   6.775 131.030  0.00  0.00    +0.000 A 
ATOM      8  N   UNL     1      -2.821   5.666 131.671  0.00  0.00    +0.000 NA
ATOM      9  S   UNL     1      -1.415   5.493 132.559  0.00  0.00    +0.000 S 
ATOM     10  C   UNL     1      -2.225   6.642 133.510  0.00  0.00    +0.000 A 
ATOM     11  C   UNL     1      -3.261   6.393 134.511  0.00  0.00    +0.000 A 
ATOM     12  C   UNL     1      -3.691   7.270 135.482  0.00  0.00    +0.000 A 
ATOM     13  C   UNL     1      -2.956   8.390 135.457  0.00  0.00    +0.000 A 
ATOM     14  C   UNL     1      -2.219   8.627 134.133  0.00  0.00    +0.000 A 
ATOM     15  C   UNL     1      -2.119   7.792 132.633  0.00  0.00    +0.000 A 
ENDROOT
BRANCH   1  16
ATOM     16  C   UNL     1      -4.182   4.042 126.225  0.00  0.00    +0.000 C 
BRANCH  16  17
ATOM     17  C   UNL     1      -5.596   4.412 125.314  0.00  0.00    +0.000 C 
BRANCH  17  20
ATOM     18 CL   UNL     1      -7.409   1.915 125.302  0.00  0.00    +0.000 Cl
ATOM     19  C   UNL     1      -6.669   2.666 123.924  0.00  0.00    +0.000 A 
ATOM     20  C   UNL     1      -5.798   3.784 124.043  0.00  0.00    +0.000 A 
ATOM     21  C   UNL     1      -5.181   4.418 123.000  0.00  0.00    +0.000 A 
ATOM     22  C   UNL     1      -5.692   4.055 121.774  0.00  0.00    +0.000 A 
ATOM     23  C   UNL     1      -5.673   4.561 119.873  0.00  0.00    +0.000 C 
ATOM     24  C   UNL     1      -5.197   5.173 120.896  0.00  0.00    +0.000 C 
ATOM     25  O   UNL     1      -4.527   6.141 120.439  0.00  0.00    +0.000 OA
ATOM     26  N   UNL     1      -6.278   3.657 120.577  0.00  0.00    +0.000 N 
ATOM     27  C   UNL     1      -6.515   3.046 121.725  0.00  0.00    +0.000 A 
ATOM     28  C   UNL     1      -6.943   2.193 122.670  0.00  0.00    +0.000 A 
ATOM     29  H   UNL     1      -6.743   3.163 119.769  0.00  0.00    +0.000 HD
ENDBRANCH  17  20
ENDBRANCH  16  17
ENDBRANCH   1  16
TORSDOF 3
ENDMDL
MODEL 7
REMARK VINA RESULT:      -8.9      3.439      8.356
REMARK  Name = Ziprasidone
REMARK  3 active torsions:
REMARK  status: ('A' for Active; 'I' for Inactive)
REMARK    1  A    between atoms: C_3  and  C_4
REMARK    2  A    between atoms: C_4  and  C_5
REMARK    3  A    between atoms: C_5  and  N_6
REMARK                            x       y       z     vdW  Elec       q    Type
REMARK                         _______ _______ _______ _____ _____    ______ ____
ROOT
ATOM      1  N   UNL     1      -8.167   1.102 132.373  0.00  0.00    +0.000 NA
ATOM      2  C   UNL     1      -7.392   2.315 132.429  0.00  0.00    +0.000 C 
ATOM      3  C   UNL     1      -7.205   2.956 130.707  0.00  0.00    +0.000 C 
ATOM      4  N   UNL     1      -8.609   3.664 129.975  0.00  0.00    +0.000 N 
ATOM      5  C   UNL     1      -9.582   2.592 130.528  0.00  0.00    +0.000 C 
ATOM      6  C   UNL     1      -9.387   1.826 131.969  0.00  0.00    +0.000 C 
ATOM      7  C   UNL     1      -9.044   5.216 129.400  0.00  0.00    +0.000 A 
ATOM      8  N   UNL     1      -9.524   5.468 130.623  0.00  0.00    +0.000 NA
ATOM      9  S   UNL     1      -8.897   7.014 130.728  0.00  0.00    +0.000 S 
ATOM     10  C   UNL     1     -10.300   7.327 129.826  0.00  0.00    +0.000 A 
ATOM     11  C   UNL     1     -11.660   7.504 130.335  0.00  0.00    +0.000 A 
ATOM     12  C   UNL     1     -12.724   8.051 129.654  0.00  0.00    +0.000 A 
ATOM     13  C   UNL     1     -12.330   8.501 128.454  0.00  0.00    +0.000 A 
ATOM     14  C   UNL     1     -11.018   7.886 127.955  0.00  0.00    +0.000 A 
ATOM     15  C   UNL     1      -9.912   6.719 128.568  0.00  0.00    +0.000 A 
ENDROOT
BRANCH   1  16
ATOM     16  C   UNL     1      -7.134   0.243 131.685  0.00  0.00    +0.000 C 
BRANCH  16  17
ATOM     17  C   UNL     1      -7.921  -0.944 130.716  0.00  0.00    +0.000 C 
BRANCH  17  20
ATOM     18 CL   UNL     1      -7.065  -3.731 129.705  0.00  0.00    +0.000 Cl
ATOM     19  C   UNL     1      -7.258  -2.296 128.749  0.00  0.00    +0.000 A 
ATOM     20  C   UNL     1      -7.601  -1.040 129.324  0.00  0.00    +0.000 A 
ATOM     21  C   UNL     1      -7.763   0.126 128.629  0.00  0.00    +0.000 A 
ATOM     22  C   UNL     1      -7.841  -0.067 127.267  0.00  0.00    +0.000 A 
ATOM     23  C   UNL     1      -8.304   0.856 125.593  0.00  0.00    +0.000 C 
ATOM     24  C   UNL     1      -8.453   1.231 126.811  0.00  0.00    +0.000 C 
ATOM     25  O   UNL     1      -8.825   2.437 126.760  0.00  0.00    +0.000 OA
ATOM     26  N   UNL     1      -7.934  -0.345 125.908  0.00  0.00    +0.000 N 
ATOM     27  C   UNL     1      -7.552  -1.246 126.797  0.00  0.00    +0.000 A 
ATOM     28  C   UNL     1      -7.104  -2.364 127.392  0.00  0.00    +0.000 A 
ATOM     29  H   UNL     1      -7.863  -0.714 124.922  0.00  0.00    +0.000 HD
ENDBRANCH  17  20
ENDBRANCH  16  17
ENDBRANCH   1  16
TORSDOF 3
ENDMDL
MODEL 8
REMARK VINA RESULT:      -8.7      1.951      2.383
REMARK  Name = Ziprasidone
REMARK  3 active torsions:
REMARK  status: ('A' for Active; 'I' for Inactive)
REMARK    1  A    between atoms: C_3  and  C_4
REMARK    2  A    between atoms: C_4  and  C_5
REMARK    3  A    between atoms: C_5  and  N_6
REMARK                            x       y       z     vdW  Elec       q    Type
REMARK                         _______ _______ _______ _____ _____    ______ ____
ROOT
ATOM      1  N   UNL     1      -6.355   3.843 128.850  0.00  0.00    +0.000 NA
ATOM      2  C   UNL     1      -5.473   2.705 128.803  0.00  0.00    +0.000 C 
ATOM      3  C   UNL     1      -6.438   1.211 129.302  0.00  0.00    +0.000 C 
ATOM      4  N   UNL     1      -7.591   0.603 128.158  0.00  0.00    +0.000 N 
ATOM      5  C   UNL     1      -8.094   2.008 127.741  0.00  0.00    +0.000 C 
ATOM      6  C   UNL     1      -7.150   3.353 127.710  0.00  0.00    +0.000 C 
ATOM      7  C   UNL     1      -7.789  -0.842 127.262  0.00  0.00    +0.000 A 
ATOM      8  N   UNL     1      -7.087  -0.259 126.283  0.00  0.00    +0.000 NA
ATOM      9  S   UNL     1      -6.152  -1.601 125.934  0.00  0.00    +0.000 S 
ATOM     10  C   UNL     1      -7.555  -1.984 125.059  0.00  0.00    +0.000 A 
ATOM     11  C   UNL     1      -7.929  -1.507 123.728  0.00  0.00    +0.000 A 
ATOM     12  C   UNL     1      -8.894  -2.044 122.906  0.00  0.00    +0.000 A 
ATOM     13  C   UNL     1      -9.408  -3.154 123.453  0.00  0.00    +0.000 A 
ATOM     14  C   UNL     1      -9.193  -3.264 124.966  0.00  0.00    +0.000 A 
ATOM     15  C   UNL     1      -8.449  -2.277 126.163  0.00  0.00    +0.000 A 
ENDROOT
BRANCH   1  16
ATOM     16  C   UNL     1      -6.522   3.898 130.350  0.00  0.00    +0.000 C 
BRANCH  16  17
ATOM     17  C   UNL     1      -7.588   5.185 130.767  0.00  0.00    +0.000 C 
BRANCH  17  20
ATOM     18 CL   UNL     1      -9.318   2.942 131.992  0.00  0.00    +0.000 Cl
ATOM     19  C   UNL     1      -9.847   4.177 130.894  0.00  0.00    +0.000 A 
ATOM     20  C   UNL     1      -8.953   5.134 130.337  0.00  0.00    +0.000 A 
ATOM     21  C   UNL     1      -9.305   6.127 129.466  0.00  0.00    +0.000 A 
ATOM     22  C   UNL     1     -10.667   6.305 129.377  0.00  0.00    +0.000 A 
ATOM     23  C   UNL     1     -12.029   7.543 128.679  0.00  0.00    +0.000 C 
ATOM     24  C   UNL     1     -10.755   7.675 128.759  0.00  0.00    +0.000 C 
ATOM     25  O   UNL     1     -10.476   8.734 128.129  0.00  0.00    +0.000 OA
ATOM     26  N   UNL     1     -12.051   6.441 129.360  0.00  0.00    +0.000 N 
ATOM     27  C   UNL     1     -11.441   5.418 129.935  0.00  0.00    +0.000 A 
ATOM     28  C   UNL     1     -11.171   4.261 130.562  0.00  0.00    +0.000 A 
ATOM     29  H   UNL     1     -13.100   6.327 129.376  0.00  0.00    +0.000 HD
ENDBRANCH  17  20
ENDBRANCH  16  17
ENDBRANCH   1  16
TORSDOF 3
ENDMDL
MODEL 9
REMARK VINA RESULT:      -8.7      2.456      3.202
REMARK  Name = Ziprasidone
REMARK  3 active torsions:
REMARK  status: ('A' for Active; 'I' for Inactive)
REMARK    1  A    between atoms: C_3  and  C_4
REMARK    2  A    between atoms: C_4  and  C_5
REMARK    3  A    between atoms: C_5  and  N_6
REMARK                            x       y       z     vdW  Elec       q    Type
REMARK                         _______ _______ _______ _____ _____    ______ ____
ROOT
ATOM      1  N   UNL     1      -8.380   3.280 131.045  0.00  0.00    +0.000 NA
ATOM      2  C   UNL     1      -8.809   2.267 130.115  0.00  0.00    +0.000 C 
ATOM      3  C   UNL     1      -7.303   1.485 129.385  0.00  0.00    +0.000 C 
ATOM      4  N   UNL     1      -6.393   0.424 130.412  0.00  0.00    +0.000 N 
ATOM      5  C   UNL     1      -6.527   1.329 131.663  0.00  0.00    +0.000 C 
ATOM      6  C   UNL     1      -7.830   2.279 131.978  0.00  0.00    +0.000 C 
ATOM      7  C   UNL     1      -5.994  -1.240 130.413  0.00  0.00    +0.000 A 
ATOM      8  N   UNL     1      -7.098  -1.443 131.140  0.00  0.00    +0.000 NA
ATOM      9  S   UNL     1      -7.594  -2.804 130.306  0.00  0.00    +0.000 S 
ATOM     10  C   UNL     1      -6.457  -3.501 131.356  0.00  0.00    +0.000 A 
ATOM     11  C   UNL     1      -6.661  -3.894 132.750  0.00  0.00    +0.000 A 
ATOM     12  C   UNL     1      -5.852  -4.723 133.494  0.00  0.00    +0.000 A 
ATOM     13  C   UNL     1      -4.865  -5.218 132.734  0.00  0.00    +0.000 A 
ATOM     14  C   UNL     1      -4.587  -4.407 131.463  0.00  0.00    +0.000 A 
ATOM     15  C   UNL     1      -5.239  -2.975 130.768  0.00  0.00    +0.000 A 
ENDROOT
BRANCH   1  16
ATOM     16  C   UNL     1      -7.818   4.249 130.033  0.00  0.00    +0.000 C 
BRANCH  16  17
ATOM     17  C   UNL     1      -8.255   5.858 130.467  0.00  0.00    +0.000 C 
BRANCH  17  20
ATOM     18 CL   UNL     1      -9.804   5.731 133.132  0.00  0.00    +0.000 Cl
ATOM     19  C   UNL     1     -10.412   6.288 131.606  0.00  0.00    +0.000 A 
ATOM     20  C   UNL     1      -9.631   6.250 130.417  0.00  0.00    +0.000 A 
ATOM     21  C   UNL     1     -10.051   6.668 129.184  0.00  0.00    +0.000 A 
ATOM     22  C   UNL     1     -11.217   7.399 129.234  0.00  0.00    +0.000 A 
ATOM     23  C   UNL     1     -12.368   8.562 128.142  0.00  0.00    +0.000 C 
ATOM     24  C   UNL     1     -11.200   8.090 127.897  0.00  0.00    +0.000 C 
ATOM     25  O   UNL     1     -10.955   8.379 126.692  0.00  0.00    +0.000 OA
ATOM     26  N   UNL     1     -12.382   8.147 129.369  0.00  0.00    +0.000 N 
ATOM     27  C   UNL     1     -11.875   7.430 130.358  0.00  0.00    +0.000 A 
ATOM     28  C   UNL     1     -11.675   6.807 131.531  0.00  0.00    +0.000 A 
ATOM     29  H   UNL     1     -13.309   8.575 129.633  0.00  0.00    +0.000 HD
ENDBRANCH  17  20
ENDBRANCH  16  17
ENDBRANCH   1  16
TORSDOF 3
ENDMDL
