MODEL 1
REMARK VINA RESULT:      -8.2      0.000      0.000
REMARK  Name = Zofenopril
REMARK  10 active torsions:
REMARK  status: ('A' for Active; 'I' for Inactive)
REMARK    1  A    between atoms: C_1  and  C_2
REMARK    2  A    between atoms: C_2  and  C_3
REMARK    3  A    between atoms: C_2  and  C_13
REMARK    4  A    between atoms: C_3  and  S_4
REMARK    5  A    between atoms: S_4  and  C_5
REMARK    6  A    between atoms: C_5  and  C_7
REMARK    7  A    between atoms: C_17  and  S_23
REMARK    8  A    between atoms: C_19  and  C_20
REMARK    9  A    between atoms: C_20  and  O_21
REMARK   10  A    between atoms: S_23  and  C_24
REMARK                            x       y       z     vdW  Elec       q    Type
REMARK                         _______ _______ _______ _____ _____    ______ ____
ROOT
ATOM      1  C   UNL     1      -8.347   3.755 128.364  0.00  0.00    +0.000 C 
ATOM      2  O   UNL     1      -8.544   4.927 128.037  0.00  0.00    +0.000 OA
ATOM      3  N   UNL     1      -7.981   2.883 127.363  0.00  0.00    +0.000 N 
ATOM      4  C   UNL     1      -8.453   1.542 127.108  0.00  0.00    +0.000 C 
ATOM      5  C   UNL     1      -7.251   0.829 126.536  0.00  0.00    +0.000 C 
ATOM      6  C   UNL     1      -6.702   1.915 125.594  0.00  0.00    +0.000 C 
ATOM      7  C   UNL     1      -7.075   3.270 126.265  0.00  0.00    +0.000 C 
ENDROOT
BRANCH   1   9
ATOM      8  C   UNL     1      -9.835   3.203 130.399  0.00  0.00    +0.000 C 
ATOM      9  C   UNL     1      -8.416   3.291 129.842  0.00  0.00    +0.000 C 
BRANCH   9  10
ATOM     10  C   UNL     1      -7.598   4.224 130.791  0.00  0.00    +0.000 C 
BRANCH  10  11
ATOM     11  S   UNL     1      -8.678   5.305 131.795  0.00  0.00    +0.000 S 
BRANCH  11  12
ATOM     12  C   UNL     1      -8.802   6.772 130.828  0.00  0.00    +0.000 C 
ATOM     13  O   UNL     1      -7.821   7.450 130.523  0.00  0.00    +0.000 OA
BRANCH  12  14
ATOM     14  C   UNL     1     -10.166   7.124 130.336  0.00  0.00    +0.000 A 
ATOM     15  C   UNL     1     -10.308   7.927 129.195  0.00  0.00    +0.000 A 
ATOM     16  C   UNL     1     -11.577   8.359 128.788  0.00  0.00    +0.000 A 
ATOM     17  C   UNL     1     -12.713   7.943 129.480  0.00  0.00    +0.000 A 
ATOM     18  C   UNL     1     -12.583   7.128 130.603  0.00  0.00    +0.000 A 
ATOM     19  C   UNL     1     -11.315   6.726 131.037  0.00  0.00    +0.000 A 
ENDBRANCH  12  14
ENDBRANCH  11  12
ENDBRANCH  10  11
ENDBRANCH   9  10
ENDBRANCH   1   9
BRANCH   7  20
ATOM     20  C   UNL     1      -7.659   4.202 125.187  0.00  0.00    +0.000 C 
ATOM     21  O   UNL     1      -8.414   3.805 124.305  0.00  0.00    +0.000 OA
BRANCH  20  22
ATOM     22  O   UNL     1      -7.339   5.509 125.310  0.00  0.00    +0.000 OA
ATOM     23  H   UNL     1      -8.119   6.041 125.579  0.00  0.00    +0.000 HD
ENDBRANCH  20  22
ENDBRANCH   7  20
BRANCH   5  24
ATOM     24  S   UNL     1      -7.638  -0.733 125.664  0.00  0.00    +0.000 S 
BRANCH  24  25
ATOM     25  C   UNL     1      -7.856  -1.941 126.974  0.00  0.00    +0.000 A 
ATOM     26  C   UNL     1      -8.651  -3.066 126.719  0.00  0.00    +0.000 A 
ATOM     27  C   UNL     1      -9.049  -3.912 127.762  0.00  0.00    +0.000 A 
ATOM     28  C   UNL     1      -8.587  -3.697 129.058  0.00  0.00    +0.000 A 
ATOM     29  C   UNL     1      -7.776  -2.599 129.322  0.00  0.00    +0.000 A 
ATOM     30  C   UNL     1      -7.445  -1.711 128.293  0.00  0.00    +0.000 A 
ENDBRANCH  24  25
ENDBRANCH   5  24
TORSDOF 9
ENDMDL
MODEL 2
REMARK VINA RESULT:      -8.0      1.791      2.332
REMARK  Name = Zofenopril
REMARK  10 active torsions:
REMARK  status: ('A' for Active; 'I' for Inactive)
REMARK    1  A    between atoms: C_1  and  C_2
REMARK    2  A    between atoms: C_2  and  C_3
REMARK    3  A    between atoms: C_2  and  C_13
REMARK    4  A    between atoms: C_3  and  S_4
REMARK    5  A    between atoms: S_4  and  C_5
REMARK    6  A    between atoms: C_5  and  C_7
REMARK    7  A    between atoms: C_17  and  S_23
REMARK    8  A    between atoms: C_19  and  C_20
REMARK    9  A    between atoms: C_20  and  O_21
REMARK   10  A    between atoms: S_23  and  C_24
REMARK                            x       y       z     vdW  Elec       q    Type
REMARK                         _______ _______ _______ _____ _____    ______ ____
ROOT
ATOM      1  C   UNL     1      -8.201   3.636 128.230  0.00  0.00    +0.000 C 
ATOM      2  O   UNL     1      -8.354   4.805 127.868  0.00  0.00    +0.000 OA
ATOM      3  N   UNL     1      -8.077   2.688 127.240  0.00  0.00    +0.000 N 
ATOM      4  C   UNL     1      -8.693   1.384 127.148  0.00  0.00    +0.000 C 
ATOM      5  C   UNL     1      -7.663   0.538 126.435  0.00  0.00    +0.000 C 
ATOM      6  C   UNL     1      -7.191   1.525 125.352  0.00  0.00    +0.000 C 
ATOM      7  C   UNL     1      -7.337   2.939 125.989  0.00  0.00    +0.000 C 
ENDROOT
BRANCH   1   9
ATOM      8  C   UNL     1      -9.370   2.812 130.378  0.00  0.00    +0.000 C 
ATOM      9  C   UNL     1      -8.061   3.252 129.727  0.00  0.00    +0.000 C 
BRANCH   9  10
ATOM     10  C   UNL     1      -7.482   4.422 130.583  0.00  0.00    +0.000 C 
BRANCH  10  11
ATOM     11  S   UNL     1      -8.788   5.327 131.489  0.00  0.00    +0.000 S 
BRANCH  11  12
ATOM     12  C   UNL     1      -8.896   6.860 130.627  0.00  0.00    +0.000 C 
ATOM     13  O   UNL     1      -7.911   7.564 130.402  0.00  0.00    +0.000 OA
BRANCH  12  14
ATOM     14  C   UNL     1     -10.248   7.238 130.122  0.00  0.00    +0.000 A 
ATOM     15  C   UNL     1     -10.363   8.026 128.968  0.00  0.00    +0.000 A 
ATOM     16  C   UNL     1     -11.618   8.485 128.547  0.00  0.00    +0.000 A 
ATOM     17  C   UNL     1     -12.768   8.108 129.239  0.00  0.00    +0.000 A 
ATOM     18  C   UNL     1     -12.665   7.308 130.375  0.00  0.00    +0.000 A 
ATOM     19  C   UNL     1     -11.410   6.880 130.822  0.00  0.00    +0.000 A 
ENDBRANCH  12  14
ENDBRANCH  11  12
ENDBRANCH  10  11
ENDBRANCH   9  10
ENDBRANCH   1   9
BRANCH   7  20
ATOM     20  C   UNL     1      -8.015   3.866 124.963  0.00  0.00    +0.000 C 
ATOM     21  O   UNL     1      -8.750   3.448 124.074  0.00  0.00    +0.000 OA
BRANCH  20  22
ATOM     22  O   UNL     1      -7.801   5.188 125.142  0.00  0.00    +0.000 OA
ATOM     23  H   UNL     1      -8.139   5.708 124.381  0.00  0.00    +0.000 HD
ENDBRANCH  20  22
ENDBRANCH   7  20
BRANCH   5  24
ATOM     24  S   UNL     1      -8.315  -1.022 125.736  0.00  0.00    +0.000 S 
BRANCH  24  25
ATOM     25  C   UNL     1      -6.961  -1.678 124.754  0.00  0.00    +0.000 A 
ATOM     26  C   UNL     1      -6.967  -1.449 123.372  0.00  0.00    +0.000 A 
ATOM     27  C   UNL     1      -6.078  -2.129 122.530  0.00  0.00    +0.000 A 
ATOM     28  C   UNL     1      -5.113  -2.978 123.066  0.00  0.00    +0.000 A 
ATOM     29  C   UNL     1      -5.078  -3.196 124.439  0.00  0.00    +0.000 A 
ATOM     30  C   UNL     1      -6.018  -2.576 125.269  0.00  0.00    +0.000 A 
ENDBRANCH  24  25
ENDBRANCH   5  24
TORSDOF 9
ENDMDL
MODEL 3
REMARK VINA RESULT:      -7.8      3.186      5.852
REMARK  Name = Zofenopril
REMARK  10 active torsions:
REMARK  status: ('A' for Active; 'I' for Inactive)
REMARK    1  A    between atoms: C_1  and  C_2
REMARK    2  A    between atoms: C_2  and  C_3
REMARK    3  A    between atoms: C_2  and  C_13
REMARK    4  A    between atoms: C_3  and  S_4
REMARK    5  A    between atoms: S_4  and  C_5
REMARK    6  A    between atoms: C_5  and  C_7
REMARK    7  A    between atoms: C_17  and  S_23
REMARK    8  A    between atoms: C_19  and  C_20
REMARK    9  A    between atoms: C_20  and  O_21
REMARK   10  A    between atoms: S_23  and  C_24
REMARK                            x       y       z     vdW  Elec       q    Type
REMARK                         _______ _______ _______ _____ _____    ______ ____
ROOT
ATOM      1  C   UNL     1      -7.657   3.399 128.050  0.00  0.00    +0.000 C 
ATOM      2  O   UNL     1      -7.575   4.594 128.343  0.00  0.00    +0.000 OA
ATOM      3  N   UNL     1      -7.521   3.072 126.719  0.00  0.00    +0.000 N 
ATOM      4  C   UNL     1      -8.301   2.153 125.924  0.00  0.00    +0.000 C 
ATOM      5  C   UNL     1      -7.309   1.584 124.936  0.00  0.00    +0.000 C 
ATOM      6  C   UNL     1      -6.530   2.857 124.557  0.00  0.00    +0.000 C 
ATOM      7  C   UNL     1      -6.563   3.755 125.829  0.00  0.00    +0.000 C 
ENDROOT
BRANCH   1   9
ATOM      8  C   UNL     1      -9.021   2.495 130.046  0.00  0.00    +0.000 C 
ATOM      9  C   UNL     1      -7.815   2.297 129.130  0.00  0.00    +0.000 C 
BRANCH   9  10
ATOM     10  C   UNL     1      -6.551   2.179 130.040  0.00  0.00    +0.000 C 
BRANCH  10  11
ATOM     11  S   UNL     1      -5.710   0.566 129.848  0.00  0.00    +0.000 S 
BRANCH  11  12
ATOM     12  C   UNL     1      -6.913  -0.591 130.412  0.00  0.00    +0.000 C 
ATOM     13  O   UNL     1      -7.325  -0.607 131.572  0.00  0.00    +0.000 OA
BRANCH  12  14
ATOM     14  C   UNL     1      -7.462  -1.523 129.385  0.00  0.00    +0.000 A 
ATOM     15  C   UNL     1      -7.589  -1.095 128.055  0.00  0.00    +0.000 A 
ATOM     16  C   UNL     1      -8.208  -1.917 127.104  0.00  0.00    +0.000 A 
ATOM     17  C   UNL     1      -8.647  -3.191 127.459  0.00  0.00    +0.000 A 
ATOM     18  C   UNL     1      -8.506  -3.632 128.774  0.00  0.00    +0.000 A 
ATOM     19  C   UNL     1      -7.924  -2.800 129.737  0.00  0.00    +0.000 A 
ENDBRANCH  12  14
ENDBRANCH  11  12
ENDBRANCH  10  11
ENDBRANCH   9  10
ENDBRANCH   1   9
BRANCH   7  20
ATOM     20  C   UNL     1      -6.923   5.190 125.400  0.00  0.00    +0.000 C 
ATOM     21  O   UNL     1      -6.088   5.990 124.991  0.00  0.00    +0.000 OA
BRANCH  20  22
ATOM     22  O   UNL     1      -8.238   5.497 125.441  0.00  0.00    +0.000 OA
ATOM     23  H   UNL     1      -8.414   6.361 125.010  0.00  0.00    +0.000 HD
ENDBRANCH  20  22
ENDBRANCH   7  20
BRANCH   5  24
ATOM     24  S   UNL     1      -8.067   0.762 123.488  0.00  0.00    +0.000 S 
BRANCH  24  25
ATOM     25  C   UNL     1      -7.523  -0.946 123.603  0.00  0.00    +0.000 A 
ATOM     26  C   UNL     1      -8.478  -1.961 123.454  0.00  0.00    +0.000 A 
ATOM     27  C   UNL     1      -8.163  -3.291 123.767  0.00  0.00    +0.000 A 
ATOM     28  C   UNL     1      -6.869  -3.636 124.147  0.00  0.00    +0.000 A 
ATOM     29  C   UNL     1      -5.904  -2.643 124.273  0.00  0.00    +0.000 A 
ATOM     30  C   UNL     1      -6.241  -1.307 124.037  0.00  0.00    +0.000 A 
ENDBRANCH  24  25
ENDBRANCH   5  24
TORSDOF 9
ENDMDL
MODEL 4
REMARK VINA RESULT:      -7.6      3.953      7.000
REMARK  Name = Zofenopril
REMARK  10 active torsions:
REMARK  status: ('A' for Active; 'I' for Inactive)
REMARK    1  A    between atoms: C_1  and  C_2
REMARK    2  A    between atoms: C_2  and  C_3
REMARK    3  A    between atoms: C_2  and  C_13
REMARK    4  A    between atoms: C_3  and  S_4
REMARK    5  A    between atoms: S_4  and  C_5
REMARK    6  A    between atoms: C_5  and  C_7
REMARK    7  A    between atoms: C_17  and  S_23
REMARK    8  A    between atoms: C_19  and  C_20
REMARK    9  A    between atoms: C_20  and  O_21
REMARK   10  A    between atoms: S_23  and  C_24
REMARK                            x       y       z     vdW  Elec       q    Type
REMARK                         _______ _______ _______ _____ _____    ______ ____
ROOT
ATOM      1  C   UNL     1      -5.786   3.793 125.871  0.00  0.00    +0.000 C 
ATOM      2  O   UNL     1      -5.266   4.902 126.002  0.00  0.00    +0.000 OA
ATOM      3  N   UNL     1      -5.913   3.026 127.007  0.00  0.00    +0.000 N 
ATOM      4  C   UNL     1      -5.640   1.619 127.190  0.00  0.00    +0.000 C 
ATOM      5  C   UNL     1      -6.657   1.175 128.216  0.00  0.00    +0.000 C 
ATOM      6  C   UNL     1      -6.603   2.362 129.195  0.00  0.00    +0.000 C 
ATOM      7  C   UNL     1      -6.258   3.603 128.320  0.00  0.00    +0.000 C 
ENDROOT
BRANCH   1   9
ATOM      8  C   UNL     1      -5.866   4.111 123.311  0.00  0.00    +0.000 C 
ATOM      9  C   UNL     1      -6.358   3.308 124.513  0.00  0.00    +0.000 C 
BRANCH   9  10
ATOM     10  C   UNL     1      -7.920   3.338 124.488  0.00  0.00    +0.000 C 
BRANCH  10  11
ATOM     11  S   UNL     1      -8.599   2.659 122.931  0.00  0.00    +0.000 S 
BRANCH  11  12
ATOM     12  C   UNL     1      -9.430   1.196 123.451  0.00  0.00    +0.000 C 
ATOM     13  O   UNL     1     -10.606   1.196 123.816  0.00  0.00    +0.000 OA
BRANCH  12  14
ATOM     14  C   UNL     1      -8.648  -0.072 123.368  0.00  0.00    +0.000 A 
ATOM     15  C   UNL     1      -7.264  -0.051 123.598  0.00  0.00    +0.000 A 
ATOM     16  C   UNL     1      -6.499  -1.209 123.411  0.00  0.00    +0.000 A 
ATOM     17  C   UNL     1      -7.117  -2.407 123.054  0.00  0.00    +0.000 A 
ATOM     18  C   UNL     1      -8.495  -2.441 122.843  0.00  0.00    +0.000 A 
ATOM     19  C   UNL     1      -9.258  -1.277 122.990  0.00  0.00    +0.000 A 
ENDBRANCH  12  14
ENDBRANCH  11  12
ENDBRANCH  10  11
ENDBRANCH   9  10
ENDBRANCH   1   9
BRANCH   7  20
ATOM     20  C   UNL     1      -5.152   4.406 129.031  0.00  0.00    +0.000 C 
ATOM     21  O   UNL     1      -4.251   3.872 129.670  0.00  0.00    +0.000 OA
BRANCH  20  22
ATOM     22  O   UNL     1      -5.197   5.744 128.853  0.00  0.00    +0.000 OA
ATOM     23  H   UNL     1      -5.465   6.203 129.679  0.00  0.00    +0.000 HD
ENDBRANCH  20  22
ENDBRANCH   7  20
BRANCH   5  24
ATOM     24  S   UNL     1      -6.274  -0.423 129.021  0.00  0.00    +0.000 S 
BRANCH  24  25
ATOM     25  C   UNL     1      -7.477  -1.571 128.342  0.00  0.00    +0.000 A 
ATOM     26  C   UNL     1      -7.926  -2.623 129.150  0.00  0.00    +0.000 A 
ATOM     27  C   UNL     1      -8.672  -3.676 128.606  0.00  0.00    +0.000 A 
ATOM     28  C   UNL     1      -9.055  -3.648 127.267  0.00  0.00    +0.000 A 
ATOM     29  C   UNL     1      -8.639  -2.597 126.458  0.00  0.00    +0.000 A 
ATOM     30  C   UNL     1      -7.827  -1.587 126.986  0.00  0.00    +0.000 A 
ENDBRANCH  24  25
ENDBRANCH   5  24
TORSDOF 9
ENDMDL
MODEL 5
REMARK VINA RESULT:      -7.5      2.476      8.929
REMARK  Name = Zofenopril
REMARK  10 active torsions:
REMARK  status: ('A' for Active; 'I' for Inactive)
REMARK    1  A    between atoms: C_1  and  C_2
REMARK    2  A    between atoms: C_2  and  C_3
REMARK    3  A    between atoms: C_2  and  C_13
REMARK    4  A    between atoms: C_3  and  S_4
REMARK    5  A    between atoms: S_4  and  C_5
REMARK    6  A    between atoms: C_5  and  C_7
REMARK    7  A    between atoms: C_17  and  S_23
REMARK    8  A    between atoms: C_19  and  C_20
REMARK    9  A    between atoms: C_20  and  O_21
REMARK   10  A    between atoms: S_23  and  C_24
REMARK                            x       y       z     vdW  Elec       q    Type
REMARK                         _______ _______ _______ _____ _____    ______ ____
ROOT
ATOM      1  C   UNL     1      -7.779   3.231 130.400  0.00  0.00    +0.000 C 
ATOM      2  O   UNL     1      -6.590   3.210 130.722  0.00  0.00    +0.000 OA
ATOM      3  N   UNL     1      -8.477   4.388 130.668  0.00  0.00    +0.000 N 
ATOM      4  C   UNL     1      -9.799   4.543 131.230  0.00  0.00    +0.000 C 
ATOM      5  C   UNL     1     -10.341   5.785 130.562  0.00  0.00    +0.000 C 
ATOM      6  C   UNL     1      -9.098   6.693 130.607  0.00  0.00    +0.000 C 
ATOM      7  C   UNL     1      -7.879   5.728 130.517  0.00  0.00    +0.000 C 
ENDROOT
BRANCH   1   9
ATOM      8  C   UNL     1      -8.059   0.676 130.177  0.00  0.00    +0.000 C 
ATOM      9  C   UNL     1      -8.448   2.053 129.645  0.00  0.00    +0.000 C 
BRANCH   9  10
ATOM     10  C   UNL     1      -8.125   2.073 128.117  0.00  0.00    +0.000 C 
BRANCH  10  11
ATOM     11  S   UNL     1      -7.946   0.389 127.427  0.00  0.00    +0.000 S 
BRANCH  11  12
ATOM     12  C   UNL     1      -8.963   0.426 125.989  0.00  0.00    +0.000 C 
ATOM     13  O   UNL     1      -9.593   1.428 125.648  0.00  0.00    +0.000 OA
BRANCH  12  14
ATOM     14  C   UNL     1      -8.975  -0.813 125.158  0.00  0.00    +0.000 A 
ATOM     15  C   UNL     1      -8.842  -0.716 123.765  0.00  0.00    +0.000 A 
ATOM     16  C   UNL     1      -8.966  -1.858 122.962  0.00  0.00    +0.000 A 
ATOM     17  C   UNL     1      -9.161  -3.108 123.548  0.00  0.00    +0.000 A 
ATOM     18  C   UNL     1      -9.273  -3.215 124.934  0.00  0.00    +0.000 A 
ATOM     19  C   UNL     1      -9.189  -2.072 125.737  0.00  0.00    +0.000 A 
ENDBRANCH  12  14
ENDBRANCH  11  12
ENDBRANCH  10  11
ENDBRANCH   9  10
ENDBRANCH   1   9
BRANCH   7  20
ATOM     20  C   UNL     1      -6.849   6.147 131.584  0.00  0.00    +0.000 C 
ATOM     21  O   UNL     1      -6.029   7.040 131.400  0.00  0.00    +0.000 OA
BRANCH  20  22
ATOM     22  O   UNL     1      -6.947   5.508 132.770  0.00  0.00    +0.000 OA
ATOM     23  H   UNL     1      -7.380   6.076 133.444  0.00  0.00    +0.000 HD
ENDBRANCH  20  22
ENDBRANCH   7  20
BRANCH   5  24
ATOM     24  S   UNL     1     -11.788   6.527 131.400  0.00  0.00    +0.000 S 
BRANCH  24  25
ATOM     25  C   UNL     1     -12.661   7.408 130.101  0.00  0.00    +0.000 A 
ATOM     26  C   UNL     1     -13.160   6.674 129.017  0.00  0.00    +0.000 A 
ATOM     27  C   UNL     1     -13.634   7.325 127.870  0.00  0.00    +0.000 A 
ATOM     28  C   UNL     1     -13.697   8.715 127.826  0.00  0.00    +0.000 A 
ATOM     29  C   UNL     1     -13.229   9.457 128.905  0.00  0.00    +0.000 A 
ATOM     30  C   UNL     1     -12.684   8.806 130.016  0.00  0.00    +0.000 A 
ENDBRANCH  24  25
ENDBRANCH   5  24
TORSDOF 9
ENDMDL
MODEL 6
REMARK VINA RESULT:      -7.3      1.803      2.408
REMARK  Name = Zofenopril
REMARK  10 active torsions:
REMARK  status: ('A' for Active; 'I' for Inactive)
REMARK    1  A    between atoms: C_1  and  C_2
REMARK    2  A    between atoms: C_2  and  C_3
REMARK    3  A    between atoms: C_2  and  C_13
REMARK    4  A    between atoms: C_3  and  S_4
REMARK    5  A    between atoms: S_4  and  C_5
REMARK    6  A    between atoms: C_5  and  C_7
REMARK    7  A    between atoms: C_17  and  S_23
REMARK    8  A    between atoms: C_19  and  C_20
REMARK    9  A    between atoms: C_20  and  O_21
REMARK   10  A    between atoms: S_23  and  C_24
REMARK                            x       y       z     vdW  Elec       q    Type
REMARK                         _______ _______ _______ _____ _____    ______ ____
ROOT
ATOM      1  C   UNL     1      -8.099   2.583 128.473  0.00  0.00    +0.000 C 
ATOM      2  O   UNL     1      -8.953   3.401 128.125  0.00  0.00    +0.000 OA
ATOM      3  N   UNL     1      -7.568   1.779 127.489  0.00  0.00    +0.000 N 
ATOM      4  C   UNL     1      -7.307   0.359 127.518  0.00  0.00    +0.000 C 
ATOM      5  C   UNL     1      -6.077   0.192 126.656  0.00  0.00    +0.000 C 
ATOM      6  C   UNL     1      -6.415   1.146 125.496  0.00  0.00    +0.000 C 
ATOM      7  C   UNL     1      -7.282   2.275 126.130  0.00  0.00    +0.000 C 
ENDROOT
BRANCH   1   9
ATOM      8  C   UNL     1      -8.262   1.455 130.788  0.00  0.00    +0.000 C 
ATOM      9  C   UNL     1      -7.573   2.514 129.931  0.00  0.00    +0.000 C 
BRANCH   9  10
ATOM     10  C   UNL     1      -7.714   3.881 130.673  0.00  0.00    +0.000 C 
BRANCH  10  11
ATOM     11  S   UNL     1      -9.214   3.948 131.718  0.00  0.00    +0.000 S 
BRANCH  11  12
ATOM     12  C   UNL     1      -9.377   5.662 132.090  0.00  0.00    +0.000 C 
ATOM     13  O   UNL     1      -8.664   6.231 132.917  0.00  0.00    +0.000 OA
BRANCH  12  14
ATOM     14  C   UNL     1     -10.393   6.414 131.298  0.00  0.00    +0.000 A 
ATOM     15  C   UNL     1     -10.009   7.067 130.118  0.00  0.00    +0.000 A 
ATOM     16  C   UNL     1     -10.924   7.872 129.425  0.00  0.00    +0.000 A 
ATOM     17  C   UNL     1     -12.240   7.978 129.872  0.00  0.00    +0.000 A 
ATOM     18  C   UNL     1     -12.636   7.315 131.033  0.00  0.00    +0.000 A 
ATOM     19  C   UNL     1     -11.715   6.543 131.749  0.00  0.00    +0.000 A 
ENDBRANCH  12  14
ENDBRANCH  11  12
ENDBRANCH  10  11
ENDBRANCH   9  10
ENDBRANCH   1   9
BRANCH   7  20
ATOM     20  C   UNL     1      -8.497   2.523 125.217  0.00  0.00    +0.000 C 
ATOM     21  O   UNL     1      -9.078   1.620 124.624  0.00  0.00    +0.000 OA
BRANCH  20  22
ATOM     22  O   UNL     1      -8.930   3.802 125.159  0.00  0.00    +0.000 OA
ATOM     23  H   UNL     1      -8.200   4.413 124.921  0.00  0.00    +0.000 HD
ENDBRANCH  20  22
ENDBRANCH   7  20
BRANCH   5  24
ATOM     24  S   UNL     1      -5.771  -1.523 126.095  0.00  0.00    +0.000 S 
BRANCH  24  25
ATOM     25  C   UNL     1      -7.176  -1.913 125.047  0.00  0.00    +0.000 A 
ATOM     26  C   UNL     1      -8.253  -2.611 125.608  0.00  0.00    +0.000 A 
ATOM     27  C   UNL     1      -9.260  -3.148 124.794  0.00  0.00    +0.000 A 
ATOM     28  C   UNL     1      -9.250  -2.919 123.420  0.00  0.00    +0.000 A 
ATOM     29  C   UNL     1      -8.201  -2.206 122.852  0.00  0.00    +0.000 A 
ATOM     30  C   UNL     1      -7.156  -1.740 123.657  0.00  0.00    +0.000 A 
ENDBRANCH  24  25
ENDBRANCH   5  24
TORSDOF 9
ENDMDL
MODEL 7
REMARK VINA RESULT:      -7.3      3.467      6.061
REMARK  Name = Zofenopril
REMARK  10 active torsions:
REMARK  status: ('A' for Active; 'I' for Inactive)
REMARK    1  A    between atoms: C_1  and  C_2
REMARK    2  A    between atoms: C_2  and  C_3
REMARK    3  A    between atoms: C_2  and  C_13
REMARK    4  A    between atoms: C_3  and  S_4
REMARK    5  A    between atoms: S_4  and  C_5
REMARK    6  A    between atoms: C_5  and  C_7
REMARK    7  A    between atoms: C_17  and  S_23
REMARK    8  A    between atoms: C_19  and  C_20
REMARK    9  A    between atoms: C_20  and  O_21
REMARK   10  A    between atoms: S_23  and  C_24
REMARK                            x       y       z     vdW  Elec       q    Type
REMARK                         _______ _______ _______ _____ _____    ______ ____
ROOT
ATOM      1  C   UNL     1      -8.718   3.280 129.597  0.00  0.00    +0.000 C 
ATOM      2  O   UNL     1      -9.505   2.606 128.930  0.00  0.00    +0.000 OA
ATOM      3  N   UNL     1      -7.472   3.503 129.054  0.00  0.00    +0.000 N 
ATOM      4  C   UNL     1      -6.177   3.431 129.689  0.00  0.00    +0.000 C 
ATOM      5  C   UNL     1      -5.360   4.489 128.986  0.00  0.00    +0.000 C 
ATOM      6  C   UNL     1      -5.798   4.260 127.528  0.00  0.00    +0.000 C 
ATOM      7  C   UNL     1      -7.268   3.750 127.614  0.00  0.00    +0.000 C 
ENDROOT
BRANCH   1   9
ATOM      8  C   UNL     1      -9.053   2.977 132.138  0.00  0.00    +0.000 C 
ATOM      9  C   UNL     1      -9.128   3.928 130.946  0.00  0.00    +0.000 C 
BRANCH   9  10
ATOM     10  C   UNL     1     -10.576   4.511 130.902  0.00  0.00    +0.000 C 
BRANCH  10  11
ATOM     11  S   UNL     1     -10.700   6.118 131.767  0.00  0.00    +0.000 S 
BRANCH  11  12
ATOM     12  C   UNL     1     -12.091   6.885 131.006  0.00  0.00    +0.000 C 
ATOM     13  O   UNL     1     -13.120   7.155 131.625  0.00  0.00    +0.000 OA
BRANCH  12  14
ATOM     14  C   UNL     1     -11.935   7.255 129.569  0.00  0.00    +0.000 A 
ATOM     15  C   UNL     1     -12.883   6.818 128.632  0.00  0.00    +0.000 A 
ATOM     16  C   UNL     1     -12.690   7.060 127.266  0.00  0.00    +0.000 A 
ATOM     17  C   UNL     1     -11.584   7.790 126.833  0.00  0.00    +0.000 A 
ATOM     18  C   UNL     1     -10.647   8.245 127.760  0.00  0.00    +0.000 A 
ATOM     19  C   UNL     1     -10.816   7.973 129.122  0.00  0.00    +0.000 A 
ENDBRANCH  12  14
ENDBRANCH  11  12
ENDBRANCH  10  11
ENDBRANCH   9  10
ENDBRANCH   1   9
BRANCH   7  20
ATOM     20  C   UNL     1      -7.416   2.535 126.679  0.00  0.00    +0.000 C 
ATOM     21  O   UNL     1      -6.505   1.739 126.476  0.00  0.00    +0.000 OA
BRANCH  20  22
ATOM     22  O   UNL     1      -8.643   2.360 126.141  0.00  0.00    +0.000 OA
ATOM     23  H   UNL     1      -9.200   3.159 126.261  0.00  0.00    +0.000 HD
ENDBRANCH  20  22
ENDBRANCH   7  20
BRANCH   5  24
ATOM     24  S   UNL     1      -3.552   4.329 129.214  0.00  0.00    +0.000 S 
BRANCH  24  25
ATOM     25  C   UNL     1      -3.093   5.754 130.207  0.00  0.00    +0.000 A 
ATOM     26  C   UNL     1      -2.160   5.577 131.236  0.00  0.00    +0.000 A 
ATOM     27  C   UNL     1      -1.943   6.583 132.187  0.00  0.00    +0.000 A 
ATOM     28  C   UNL     1      -2.590   7.811 132.071  0.00  0.00    +0.000 A 
ATOM     29  C   UNL     1      -3.500   8.011 131.039  0.00  0.00    +0.000 A 
ATOM     30  C   UNL     1      -3.773   6.977 130.138  0.00  0.00    +0.000 A 
ENDBRANCH  24  25
ENDBRANCH   5  24
TORSDOF 9
ENDMDL
MODEL 8
REMARK VINA RESULT:      -7.3      1.888      2.518
REMARK  Name = Zofenopril
REMARK  10 active torsions:
REMARK  status: ('A' for Active; 'I' for Inactive)
REMARK    1  A    between atoms: C_1  and  C_2
REMARK    2  A    between atoms: C_2  and  C_3
REMARK    3  A    between atoms: C_2  and  C_13
REMARK    4  A    between atoms: C_3  and  S_4
REMARK    5  A    between atoms: S_4  and  C_5
REMARK    6  A    between atoms: C_5  and  C_7
REMARK    7  A    between atoms: C_17  and  S_23
REMARK    8  A    between atoms: C_19  and  C_20
REMARK    9  A    between atoms: C_20  and  O_21
REMARK   10  A    between atoms: S_23  and  C_24
REMARK                            x       y       z     vdW  Elec       q    Type
REMARK                         _______ _______ _______ _____ _____    ______ ____
ROOT
ATOM      1  C   UNL     1      -6.844   3.585 128.872  0.00  0.00    +0.000 C 
ATOM      2  O   UNL     1      -5.995   4.433 129.156  0.00  0.00    +0.000 OA
ATOM      3  N   UNL     1      -6.818   3.081 127.592  0.00  0.00    +0.000 N 
ATOM      4  C   UNL     1      -7.918   2.838 126.687  0.00  0.00    +0.000 C 
ATOM      5  C   UNL     1      -7.486   1.625 125.897  0.00  0.00    +0.000 C 
ATOM      6  C   UNL     1      -6.008   1.968 125.640  0.00  0.00    +0.000 C 
ATOM      7  C   UNL     1      -5.559   2.809 126.872  0.00  0.00    +0.000 C 
ENDROOT
BRANCH   1   9
ATOM      8  C   UNL     1      -8.228   1.576 129.712  0.00  0.00    +0.000 C 
ATOM      9  C   UNL     1      -7.842   3.037 129.926  0.00  0.00    +0.000 C 
BRANCH   9  10
ATOM     10  C   UNL     1      -9.164   3.869 129.972  0.00  0.00    +0.000 C 
BRANCH  10  11
ATOM     11  S   UNL     1      -9.203   5.023 131.390  0.00  0.00    +0.000 S 
BRANCH  11  12
ATOM     12  C   UNL     1      -9.073   6.608 130.631  0.00  0.00    +0.000 C 
ATOM     13  O   UNL     1      -7.993   7.175 130.463  0.00  0.00    +0.000 OA
BRANCH  12  14
ATOM     14  C   UNL     1     -10.346   7.208 130.137  0.00  0.00    +0.000 A 
ATOM     15  C   UNL     1     -10.347   7.954 128.949  0.00  0.00    +0.000 A 
ATOM     16  C   UNL     1     -11.508   8.619 128.534  0.00  0.00    +0.000 A 
ATOM     17  C   UNL     1     -12.687   8.494 129.267  0.00  0.00    +0.000 A 
ATOM     18  C   UNL     1     -12.700   7.737 130.438  0.00  0.00    +0.000 A 
ATOM     19  C   UNL     1     -11.533   7.103 130.878  0.00  0.00    +0.000 A 
ENDBRANCH  12  14
ENDBRANCH  11  12
ENDBRANCH  10  11
ENDBRANCH   9  10
ENDBRANCH   1   9
BRANCH   7  20
ATOM     20  C   UNL     1      -4.778   4.035 126.364  0.00  0.00    +0.000 C 
ATOM     21  O   UNL     1      -3.602   3.977 126.020  0.00  0.00    +0.000 OA
BRANCH  20  22
ATOM     22  O   UNL     1      -5.491   5.177 126.256  0.00  0.00    +0.000 OA
ATOM     23  H   UNL     1      -6.389   5.003 125.900  0.00  0.00    +0.000 HD
ENDBRANCH  20  22
ENDBRANCH   7  20
BRANCH   5  24
ATOM     24  S   UNL     1      -8.427   1.350 124.352  0.00  0.00    +0.000 S 
BRANCH  24  25
ATOM     25  C   UNL     1      -8.891  -0.384 124.407  0.00  0.00    +0.000 A 
ATOM     26  C   UNL     1      -9.064  -0.989 125.658  0.00  0.00    +0.000 A 
ATOM     27  C   UNL     1      -9.190  -2.380 125.770  0.00  0.00    +0.000 A 
ATOM     28  C   UNL     1      -9.233  -3.176 124.627  0.00  0.00    +0.000 A 
ATOM     29  C   UNL     1      -9.088  -2.587 123.377  0.00  0.00    +0.000 A 
ATOM     30  C   UNL     1      -8.884  -1.207 123.273  0.00  0.00    +0.000 A 
ENDBRANCH  24  25
ENDBRANCH   5  24
TORSDOF 9
ENDMDL
MODEL 9
REMARK VINA RESULT:      -7.2      2.897      6.699
REMARK  Name = Zofenopril
REMARK  10 active torsions:
REMARK  status: ('A' for Active; 'I' for Inactive)
REMARK    1  A    between atoms: C_1  and  C_2
REMARK    2  A    between atoms: C_2  and  C_3
REMARK    3  A    between atoms: C_2  and  C_13
REMARK    4  A    between atoms: C_3  and  S_4
REMARK    5  A    between atoms: S_4  and  C_5
REMARK    6  A    between atoms: C_5  and  C_7
REMARK    7  A    between atoms: C_17  and  S_23
REMARK    8  A    between atoms: C_19  and  C_20
REMARK    9  A    between atoms: C_20  and  O_21
REMARK   10  A    between atoms: S_23  and  C_24
REMARK                            x       y       z     vdW  Elec       q    Type
REMARK                         _______ _______ _______ _____ _____    ______ ____
ROOT
ATOM      1  C   UNL     1      -6.601   3.901 125.876  0.00  0.00    +0.000 C 
ATOM      2  O   UNL     1      -7.072   5.037 125.790  0.00  0.00    +0.000 OA
ATOM      3  N   UNL     1      -6.727   3.265 127.091  0.00  0.00    +0.000 N 
ATOM      4  C   UNL     1      -5.744   2.499 127.822  0.00  0.00    +0.000 C 
ATOM      5  C   UNL     1      -6.554   1.436 128.528  0.00  0.00    +0.000 C 
ATOM      6  C   UNL     1      -7.759   2.270 129.001  0.00  0.00    +0.000 C 
ATOM      7  C   UNL     1      -7.935   3.385 127.928  0.00  0.00    +0.000 C 
ENDROOT
BRANCH   1   9
ATOM      8  C   UNL     1      -6.067   3.965 123.352  0.00  0.00    +0.000 C 
ATOM      9  C   UNL     1      -5.976   3.176 124.656  0.00  0.00    +0.000 C 
BRANCH   9  10
ATOM     10  C   UNL     1      -6.629   1.779 124.403  0.00  0.00    +0.000 C 
BRANCH  10  11
ATOM     11  S   UNL     1      -8.426   1.905 124.087  0.00  0.00    +0.000 S 
BRANCH  11  12
ATOM     12  C   UNL     1      -9.124   0.766 125.236  0.00  0.00    +0.000 C 
ATOM     13  O   UNL     1      -9.715   1.128 126.253  0.00  0.00    +0.000 OA
BRANCH  12  14
ATOM     14  C   UNL     1      -9.017  -0.679 124.879  0.00  0.00    +0.000 A 
ATOM     15  C   UNL     1      -8.941  -1.058 123.531  0.00  0.00    +0.000 A 
ATOM     16  C   UNL     1      -8.956  -2.413 123.175  0.00  0.00    +0.000 A 
ATOM     17  C   UNL     1      -8.984  -3.396 124.163  0.00  0.00    +0.000 A 
ATOM     18  C   UNL     1      -9.038  -3.028 125.507  0.00  0.00    +0.000 A 
ATOM     19  C   UNL     1      -9.063  -1.675 125.865  0.00  0.00    +0.000 A 
ENDBRANCH  12  14
ENDBRANCH  11  12
ENDBRANCH  10  11
ENDBRANCH   9  10
ENDBRANCH   1   9
BRANCH   7  20
ATOM     20  C   UNL     1      -8.138   4.728 128.654  0.00  0.00    +0.000 C 
ATOM     21  O   UNL     1      -7.432   5.091 129.590  0.00  0.00    +0.000 OA
BRANCH  20  22
ATOM     22  O   UNL     1      -9.110   5.521 128.152  0.00  0.00    +0.000 OA
ATOM     23  H   UNL     1      -9.662   5.037 127.501  0.00  0.00    +0.000 HD
ENDBRANCH  20  22
ENDBRANCH   7  20
BRANCH   5  24
ATOM     24  S   UNL     1      -5.682   0.609 129.907  0.00  0.00    +0.000 S 
BRANCH  24  25
ATOM     25  C   UNL     1      -6.347  -1.059 129.927  0.00  0.00    +0.000 A 
ATOM     26  C   UNL     1      -5.475  -2.122 130.195  0.00  0.00    +0.000 A 
ATOM     27  C   UNL     1      -5.878  -3.448 129.991  0.00  0.00    +0.000 A 
ATOM     28  C   UNL     1      -7.185  -3.734 129.604  0.00  0.00    +0.000 A 
ATOM     29  C   UNL     1      -8.070  -2.690 129.359  0.00  0.00    +0.000 A 
ATOM     30  C   UNL     1      -7.641  -1.365 129.486  0.00  0.00    +0.000 A 
ENDBRANCH  24  25
ENDBRANCH   5  24
TORSDOF 9
ENDMDL
