MODEL 1
REMARK VINA RESULT:      -5.8      0.000      0.000
REMARK  Name = Zoledronic acid
REMARK  9 active torsions:
REMARK  status: ('A' for Active; 'I' for Inactive)
REMARK    1  A    between atoms: O_1  and  C_2
REMARK    2  A    between atoms: C_2  and  C_3
REMARK    3  A    between atoms: C_2  and  P_9
REMARK    4  A    between atoms: C_2  and  P_13
REMARK    5  A    between atoms: C_3  and  N_4
REMARK    6  A    between atoms: P_9  and  O_10
REMARK    7  A    between atoms: P_9  and  O_11
REMARK    8  A    between atoms: P_13  and  O_14
REMARK    9  A    between atoms: P_13  and  O_15
REMARK                            x       y       z     vdW  Elec       q    Type
REMARK                         _______ _______ _______ _____ _____    ______ ____
ROOT
ATOM      1  C   UNL     1     -11.242   7.128 128.708  0.00  0.00    +0.000 C 
ENDROOT
BRANCH   1   2
ATOM      2  O   UNL     1     -11.534   5.726 128.914  0.00  0.00    +0.000 OA
ATOM      3  H   UNL     1     -11.217   5.265 128.107  0.00  0.00    +0.000 HD
ENDBRANCH   1   2
BRANCH   1   4
ATOM      4  P   UNL     1     -10.956   7.611 126.965  0.00  0.00    +0.000 P 
ATOM      5  O   UNL     1     -10.714   8.021 125.491  0.00  0.00    +0.000 OA
BRANCH   4   6
ATOM      6  O   UNL     1      -9.758   6.453 127.027  0.00  0.00    +0.000 OA
ATOM      7  H   UNL     1      -8.915   6.708 127.447  0.00  0.00    +0.000 HD
ENDBRANCH   4   6
BRANCH   4   8
ATOM      8  O   UNL     1     -12.128   6.550 126.511  0.00  0.00    +0.000 OA
ATOM      9  H   UNL     1     -11.985   5.779 125.924  0.00  0.00    +0.000 HD
ENDBRANCH   4   8
ENDBRANCH   1   4
BRANCH   1  10
ATOM     10  P   UNL     1     -12.710   8.089 129.313  0.00  0.00    +0.000 P 
ATOM     11  O   UNL     1     -12.874   8.272 130.785  0.00  0.00    +0.000 OA
BRANCH  10  12
ATOM     12  O   UNL     1     -12.600   9.481 128.545  0.00  0.00    +0.000 OA
ATOM     13  H   UNL     1     -13.342  10.108 128.716  0.00  0.00    +0.000 HD
ENDBRANCH  10  12
BRANCH  10  14
ATOM     14  O   UNL     1     -13.887   7.239 128.631  0.00  0.00    +0.000 OA
ATOM     15  H   UNL     1     -13.654   6.946 127.722  0.00  0.00    +0.000 HD
ENDBRANCH  10  14
ENDBRANCH   1  10
BRANCH   1  16
ATOM     16  C   UNL     1      -9.996   7.568 129.585  0.00  0.00    +0.000 C 
BRANCH  16  17
ATOM     17  N   UNL     1      -9.528   6.654 130.624  0.00  0.00    +0.000 N 
ATOM     18  C   UNL     1     -10.172   6.366 131.799  0.00  0.00    +0.000 A 
ATOM     19  C   UNL     1      -9.281   5.610 132.528  0.00  0.00    +0.000 A 
ATOM     20  N   UNL     1      -8.176   5.326 131.782  0.00  0.00    +0.000 NA
ATOM     21  C   UNL     1      -8.397   5.878 130.610  0.00  0.00    +0.000 A 
ENDBRANCH  16  17
ENDBRANCH   1  16
TORSDOF 9
ENDMDL
MODEL 2
REMARK VINA RESULT:      -5.4      1.150      3.134
REMARK  Name = Zoledronic acid
REMARK  9 active torsions:
REMARK  status: ('A' for Active; 'I' for Inactive)
REMARK    1  A    between atoms: O_1  and  C_2
REMARK    2  A    between atoms: C_2  and  C_3
REMARK    3  A    between atoms: C_2  and  P_9
REMARK    4  A    between atoms: C_2  and  P_13
REMARK    5  A    between atoms: C_3  and  N_4
REMARK    6  A    between atoms: P_9  and  O_10
REMARK    7  A    between atoms: P_9  and  O_11
REMARK    8  A    between atoms: P_13  and  O_14
REMARK    9  A    between atoms: P_13  and  O_15
REMARK                            x       y       z     vdW  Elec       q    Type
REMARK                         _______ _______ _______ _____ _____    ______ ____
ROOT
ATOM      1  C   UNL     1     -11.232   7.702 128.324  0.00  0.00    +0.000 C 
ENDROOT
BRANCH   1   2
ATOM      2  O   UNL     1      -9.972   8.272 128.750  0.00  0.00    +0.000 OA
ATOM      3  H   UNL     1      -9.858   9.093 128.223  0.00  0.00    +0.000 HD
ENDBRANCH   1   2
BRANCH   1   4
ATOM      4  P   UNL     1     -12.669   8.830 128.437  0.00  0.00    +0.000 P 
ATOM      5  O   UNL     1     -13.885   9.785 128.534  0.00  0.00    +0.000 OA
BRANCH   4   6
ATOM      6  O   UNL     1     -13.545   7.415 128.543  0.00  0.00    +0.000 OA
ATOM      7  H   UNL     1     -14.253   7.381 129.213  0.00  0.00    +0.000 HD
ENDBRANCH   4   6
BRANCH   4   8
ATOM      8  O   UNL     1     -12.417   8.938 130.059  0.00  0.00    +0.000 OA
ATOM      9  H   UNL     1     -12.228   8.175 130.646  0.00  0.00    +0.000 HD
ENDBRANCH   4   8
ENDBRANCH   1   4
BRANCH   1  10
ATOM     10  P   UNL     1     -11.043   7.227 126.540  0.00  0.00    +0.000 P 
ATOM     11  O   UNL     1     -10.862   8.315 125.535  0.00  0.00    +0.000 OA
BRANCH  10  12
ATOM     12  O   UNL     1      -9.820   6.205 126.543  0.00  0.00    +0.000 OA
ATOM     13  H   UNL     1      -9.391   6.070 125.665  0.00  0.00    +0.000 HD
ENDBRANCH  10  12
BRANCH  10  14
ATOM     14  O   UNL     1     -12.393   6.382 126.342  0.00  0.00    +0.000 OA
ATOM     15  H   UNL     1     -12.229   5.519 125.900  0.00  0.00    +0.000 HD
ENDBRANCH  10  14
ENDBRANCH   1  10
BRANCH   1  16
ATOM     16  C   UNL     1     -11.541   6.375 129.135  0.00  0.00    +0.000 C 
BRANCH  16  17
ATOM     17  N   UNL     1     -10.600   5.969 130.176  0.00  0.00    +0.000 N 
ATOM     18  C   UNL     1     -10.705   6.246 131.514  0.00  0.00    +0.000 A 
ATOM     19  C   UNL     1      -9.516   5.826 132.068  0.00  0.00    +0.000 A 
ATOM     20  N   UNL     1      -8.754   5.191 131.133  0.00  0.00    +0.000 NA
ATOM     21  C   UNL     1      -9.473   5.201 130.033  0.00  0.00    +0.000 A 
ENDBRANCH  16  17
ENDBRANCH   1  16
TORSDOF 9
ENDMDL
MODEL 3
REMARK VINA RESULT:      -5.3      3.272      5.386
REMARK  Name = Zoledronic acid
REMARK  9 active torsions:
REMARK  status: ('A' for Active; 'I' for Inactive)
REMARK    1  A    between atoms: O_1  and  C_2
REMARK    2  A    between atoms: C_2  and  C_3
REMARK    3  A    between atoms: C_2  and  P_9
REMARK    4  A    between atoms: C_2  and  P_13
REMARK    5  A    between atoms: C_3  and  N_4
REMARK    6  A    between atoms: P_9  and  O_10
REMARK    7  A    between atoms: P_9  and  O_11
REMARK    8  A    between atoms: P_13  and  O_14
REMARK    9  A    between atoms: P_13  and  O_15
REMARK                            x       y       z     vdW  Elec       q    Type
REMARK                         _______ _______ _______ _____ _____    ______ ____
ROOT
ATOM      1  C   UNL     1     -10.369   5.614 130.079  0.00  0.00    +0.000 C 
ENDROOT
BRANCH   1   2
ATOM      2  O   UNL     1     -11.571   4.865 129.785  0.00  0.00    +0.000 OA
ATOM      3  H   UNL     1     -11.357   3.927 129.982  0.00  0.00    +0.000 HD
ENDBRANCH   1   2
BRANCH   1   4
ATOM      4  P   UNL     1     -10.129   6.030 131.845  0.00  0.00    +0.000 P 
ATOM      5  O   UNL     1      -9.925   6.382 133.340  0.00  0.00    +0.000 OA
BRANCH   4   6
ATOM      6  O   UNL     1     -11.795   5.998 131.896  0.00  0.00    +0.000 OA
ATOM      7  H   UNL     1     -12.209   5.668 132.715  0.00  0.00    +0.000 HD
ENDBRANCH   4   6
BRANCH   4   8
ATOM      8  O   UNL     1      -9.968   4.425 132.169  0.00  0.00    +0.000 OA
ATOM      9  H   UNL     1     -10.713   3.815 132.353  0.00  0.00    +0.000 HD
ENDBRANCH   4   8
ENDBRANCH   1   4
BRANCH   1  10
ATOM     10  P   UNL     1      -8.929   4.565 129.559  0.00  0.00    +0.000 P 
ATOM     11  O   UNL     1      -7.689   4.606 130.390  0.00  0.00    +0.000 OA
BRANCH  10  12
ATOM     12  O   UNL     1      -9.538   3.096 129.465  0.00  0.00    +0.000 OA
ATOM     13  H   UNL     1      -9.226   2.473 130.163  0.00  0.00    +0.000 HD
ENDBRANCH  10  12
BRANCH  10  14
ATOM     14  O   UNL     1      -8.723   5.113 128.064  0.00  0.00    +0.000 OA
ATOM     15  H   UNL     1      -9.215   5.950 127.906  0.00  0.00    +0.000 HD
ENDBRANCH  10  14
ENDBRANCH   1  10
BRANCH   1  16
ATOM     16  C   UNL     1     -10.320   6.943 129.216  0.00  0.00    +0.000 C 
BRANCH  16  17
ATOM     17  N   UNL     1     -11.546   7.379 128.551  0.00  0.00    +0.000 N 
ATOM     18  C   UNL     1     -12.524   8.171 129.095  0.00  0.00    +0.000 A 
ATOM     19  C   UNL     1     -13.551   8.163 128.178  0.00  0.00    +0.000 A 
ATOM     20  N   UNL     1     -13.175   7.500 127.047  0.00  0.00    +0.000 NA
ATOM     21  C   UNL     1     -11.932   7.130 127.259  0.00  0.00    +0.000 A 
ENDBRANCH  16  17
ENDBRANCH   1  16
TORSDOF 9
ENDMDL
MODEL 4
REMARK VINA RESULT:      -5.3      3.452      5.030
REMARK  Name = Zoledronic acid
REMARK  9 active torsions:
REMARK  status: ('A' for Active; 'I' for Inactive)
REMARK    1  A    between atoms: O_1  and  C_2
REMARK    2  A    between atoms: C_2  and  C_3
REMARK    3  A    between atoms: C_2  and  P_9
REMARK    4  A    between atoms: C_2  and  P_13
REMARK    5  A    between atoms: C_3  and  N_4
REMARK    6  A    between atoms: P_9  and  O_10
REMARK    7  A    between atoms: P_9  and  O_11
REMARK    8  A    between atoms: P_13  and  O_14
REMARK    9  A    between atoms: P_13  and  O_15
REMARK                            x       y       z     vdW  Elec       q    Type
REMARK                         _______ _______ _______ _____ _____    ______ ____
ROOT
ATOM      1  C   UNL     1     -10.095   5.344 130.109  0.00  0.00    +0.000 C 
ENDROOT
BRANCH   1   2
ATOM      2  O   UNL     1      -9.842   5.667 128.722  0.00  0.00    +0.000 OA
ATOM      3  H   UNL     1      -8.877   5.536 128.588  0.00  0.00    +0.000 HD
ENDBRANCH   1   2
BRANCH   1   4
ATOM      4  P   UNL     1      -9.903   3.575 130.540  0.00  0.00    +0.000 P 
ATOM      5  O   UNL     1      -9.741   2.078 130.903  0.00  0.00    +0.000 OA
BRANCH   4   6
ATOM      6  O   UNL     1     -10.089   4.119 132.105  0.00  0.00    +0.000 OA
ATOM      7  H   UNL     1      -9.946   5.071 132.264  0.00  0.00    +0.000 HD
ENDBRANCH   4   6
BRANCH   4   8
ATOM      8  O   UNL     1     -11.516   3.372 130.289  0.00  0.00    +0.000 OA
ATOM      9  H   UNL     1     -12.169   3.172 130.992  0.00  0.00    +0.000 HD
ENDBRANCH   4   8
ENDBRANCH   1   4
BRANCH   1  10
ATOM     10  P   UNL     1      -8.868   6.296 131.126  0.00  0.00    +0.000 P 
ATOM     11  O   UNL     1      -7.644   5.585 131.601  0.00  0.00    +0.000 OA
BRANCH  10  12
ATOM     12  O   UNL     1      -8.513   7.557 130.219  0.00  0.00    +0.000 OA
ATOM     13  H   UNL     1      -9.147   7.729 129.483  0.00  0.00    +0.000 HD
ENDBRANCH  10  12
BRANCH  10  14
ATOM     14  O   UNL     1      -9.828   6.793 132.312  0.00  0.00    +0.000 OA
ATOM     15  H   UNL     1     -10.184   6.042 132.839  0.00  0.00    +0.000 HD
ENDBRANCH  10  14
ENDBRANCH   1  10
BRANCH   1  16
ATOM     16  C   UNL     1     -11.541   5.834 130.537  0.00  0.00    +0.000 C 
BRANCH  16  17
ATOM     17  N   UNL     1     -12.198   6.846 129.712  0.00  0.00    +0.000 N 
ATOM     18  C   UNL     1     -13.132   6.614 128.737  0.00  0.00    +0.000 A 
ATOM     19  C   UNL     1     -13.324   7.829 128.118  0.00  0.00    +0.000 A 
ATOM     20  N   UNL     1     -12.635   8.809 128.769  0.00  0.00    +0.000 NA
ATOM     21  C   UNL     1     -12.050   8.208 129.782  0.00  0.00    +0.000 A 
ENDBRANCH  16  17
ENDBRANCH   1  16
TORSDOF 9
ENDMDL
MODEL 5
REMARK VINA RESULT:      -5.2      3.432      4.782
REMARK  Name = Zoledronic acid
REMARK  9 active torsions:
REMARK  status: ('A' for Active; 'I' for Inactive)
REMARK    1  A    between atoms: O_1  and  C_2
REMARK    2  A    between atoms: C_2  and  C_3
REMARK    3  A    between atoms: C_2  and  P_9
REMARK    4  A    between atoms: C_2  and  P_13
REMARK    5  A    between atoms: C_3  and  N_4
REMARK    6  A    between atoms: P_9  and  O_10
REMARK    7  A    between atoms: P_9  and  O_11
REMARK    8  A    between atoms: P_13  and  O_14
REMARK    9  A    between atoms: P_13  and  O_15
REMARK                            x       y       z     vdW  Elec       q    Type
REMARK                         _______ _______ _______ _____ _____    ______ ____
ROOT
ATOM      1  C   UNL     1      -9.535   5.922 130.476  0.00  0.00    +0.000 C 
ENDROOT
BRANCH   1   2
ATOM      2  O   UNL     1      -9.038   7.247 130.179  0.00  0.00    +0.000 OA
ATOM      3  H   UNL     1      -9.717   7.666 129.605  0.00  0.00    +0.000 HD
ENDBRANCH   1   2
BRANCH   1   4
ATOM      4  P   UNL     1      -8.648   4.557 129.639  0.00  0.00    +0.000 P 
ATOM      5  O   UNL     1      -7.896   3.403 128.931  0.00  0.00    +0.000 OA
BRANCH   4   6
ATOM      6  O   UNL     1     -10.143   3.819 129.644  0.00  0.00    +0.000 OA
ATOM      7  H   UNL     1     -10.156   2.845 129.602  0.00  0.00    +0.000 HD
ENDBRANCH   4   6
BRANCH   4   8
ATOM      8  O   UNL     1      -8.893   5.320 128.202  0.00  0.00    +0.000 OA
ATOM      9  H   UNL     1      -9.621   5.113 127.579  0.00  0.00    +0.000 HD
ENDBRANCH   4   8
ENDBRANCH   1   4
BRANCH   1  10
ATOM     10  P   UNL     1      -9.349   5.663 132.304  0.00  0.00    +0.000 P 
ATOM     11  O   UNL     1      -8.021   5.946 132.924  0.00  0.00    +0.000 OA
BRANCH  10  12
ATOM     12  O   UNL     1     -10.508   6.554 132.938  0.00  0.00    +0.000 OA
ATOM     13  H   UNL     1     -11.284   6.705 132.348  0.00  0.00    +0.000 HD
ENDBRANCH  10  12
BRANCH  10  14
ATOM     14  O   UNL     1      -9.795   4.125 132.405  0.00  0.00    +0.000 OA
ATOM     15  H   UNL     1     -10.698   4.026 132.782  0.00  0.00    +0.000 HD
ENDBRANCH  10  14
ENDBRANCH   1  10
BRANCH   1  16
ATOM     16  C   UNL     1     -11.082   5.823 130.142  0.00  0.00    +0.000 C 
BRANCH  16  17
ATOM     17  N   UNL     1     -11.746   7.005 129.595  0.00  0.00    +0.000 N 
ATOM     18  C   UNL     1     -11.839   7.341 128.270  0.00  0.00    +0.000 A 
ATOM     19  C   UNL     1     -12.383   8.606 128.251  0.00  0.00    +0.000 A 
ATOM     20  N   UNL     1     -12.738   8.990 129.510  0.00  0.00    +0.000 NA
ATOM     21  C   UNL     1     -12.439   7.970 130.282  0.00  0.00    +0.000 A 
ENDBRANCH  16  17
ENDBRANCH   1  16
TORSDOF 9
ENDMDL
MODEL 6
REMARK VINA RESULT:      -5.1      7.982      9.142
REMARK  Name = Zoledronic acid
REMARK  9 active torsions:
REMARK  status: ('A' for Active; 'I' for Inactive)
REMARK    1  A    between atoms: O_1  and  C_2
REMARK    2  A    between atoms: C_2  and  C_3
REMARK    3  A    between atoms: C_2  and  P_9
REMARK    4  A    between atoms: C_2  and  P_13
REMARK    5  A    between atoms: C_3  and  N_4
REMARK    6  A    between atoms: P_9  and  O_10
REMARK    7  A    between atoms: P_9  and  O_11
REMARK    8  A    between atoms: P_13  and  O_14
REMARK    9  A    between atoms: P_13  and  O_15
REMARK                            x       y       z     vdW  Elec       q    Type
REMARK                         _______ _______ _______ _____ _____    ______ ____
ROOT
ATOM      1  C   UNL     1      -8.149   1.305 124.265  0.00  0.00    +0.000 C 
ENDROOT
BRANCH   1   2
ATOM      2  O   UNL     1      -8.198   0.945 125.665  0.00  0.00    +0.000 OA
ATOM      3  H   UNL     1      -8.962   1.435 126.040  0.00  0.00    +0.000 HD
ENDBRANCH   1   2
BRANCH   1   4
ATOM      4  P   UNL     1      -9.632   0.848 123.294  0.00  0.00    +0.000 P 
ATOM      5  O   UNL     1     -10.887   0.462 122.473  0.00  0.00    +0.000 OA
BRANCH   4   6
ATOM      6  O   UNL     1      -9.763  -0.385 124.409  0.00  0.00    +0.000 OA
ATOM      7  H   UNL     1      -9.043  -1.044 124.428  0.00  0.00    +0.000 HD
ENDBRANCH   4   6
BRANCH   4   8
ATOM      8  O   UNL     1     -10.507   1.914 124.190  0.00  0.00    +0.000 OA
ATOM      9  H   UNL     1     -10.840   1.741 125.096  0.00  0.00    +0.000 HD
ENDBRANCH   4   8
ENDBRANCH   1   4
BRANCH   1  10
ATOM     10  P   UNL     1      -7.980   3.151 124.179  0.00  0.00    +0.000 P 
ATOM     11  O   UNL     1      -8.638   3.969 125.240  0.00  0.00    +0.000 OA
BRANCH  10  12
ATOM     12  O   UNL     1      -6.405   3.390 124.130  0.00  0.00    +0.000 OA
ATOM     13  H   UNL     1      -5.972   3.480 125.012  0.00  0.00    +0.000 HD
ENDBRANCH  10  12
BRANCH  10  14
ATOM     14  O   UNL     1      -8.566   3.407 122.708  0.00  0.00    +0.000 OA
ATOM     15  H   UNL     1      -8.771   4.356 122.551  0.00  0.00    +0.000 HD
ENDBRANCH  10  14
ENDBRANCH   1  10
BRANCH   1  16
ATOM     16  C   UNL     1      -6.861   0.682 123.579  0.00  0.00    +0.000 C 
BRANCH  16  17
ATOM     17  N   UNL     1      -6.497  -0.692 123.916  0.00  0.00    +0.000 N 
ATOM     18  C   UNL     1      -6.796  -1.812 123.185  0.00  0.00    +0.000 A 
ATOM     19  C   UNL     1      -6.416  -2.875 123.972  0.00  0.00    +0.000 A 
ATOM     20  N   UNL     1      -5.782  -2.433 125.095  0.00  0.00    +0.000 NA
ATOM     21  C   UNL     1      -5.754  -1.123 124.985  0.00  0.00    +0.000 A 
ENDBRANCH  16  17
ENDBRANCH   1  16
TORSDOF 9
ENDMDL
MODEL 7
REMARK VINA RESULT:      -4.9      3.277      4.592
REMARK  Name = Zoledronic acid
REMARK  9 active torsions:
REMARK  status: ('A' for Active; 'I' for Inactive)
REMARK    1  A    between atoms: O_1  and  C_2
REMARK    2  A    between atoms: C_2  and  C_3
REMARK    3  A    between atoms: C_2  and  P_9
REMARK    4  A    between atoms: C_2  and  P_13
REMARK    5  A    between atoms: C_3  and  N_4
REMARK    6  A    between atoms: P_9  and  O_10
REMARK    7  A    between atoms: P_9  and  O_11
REMARK    8  A    between atoms: P_13  and  O_14
REMARK    9  A    between atoms: P_13  and  O_15
REMARK                            x       y       z     vdW  Elec       q    Type
REMARK                         _______ _______ _______ _____ _____    ______ ____
ROOT
ATOM      1  C   UNL     1      -9.711   6.457 130.628  0.00  0.00    +0.000 C 
ENDROOT
BRANCH   1   2
ATOM      2  O   UNL     1      -8.734   6.927 131.585  0.00  0.00    +0.000 OA
ATOM      3  H   UNL     1      -8.654   7.894 131.434  0.00  0.00    +0.000 HD
ENDBRANCH   1   2
BRANCH   1   4
ATOM      4  P   UNL     1      -9.144   5.092 129.550  0.00  0.00    +0.000 P 
ATOM      5  O   UNL     1      -8.664   3.935 128.637  0.00  0.00    +0.000 OA
BRANCH   4   6
ATOM      6  O   UNL     1      -7.670   5.865 129.646  0.00  0.00    +0.000 OA
ATOM      7  H   UNL     1      -7.665   6.767 130.019  0.00  0.00    +0.000 HD
ENDBRANCH   4   6
BRANCH   4   8
ATOM      8  O   UNL     1      -8.889   4.178 130.893  0.00  0.00    +0.000 OA
ATOM      9  H   UNL     1      -8.072   3.665 131.073  0.00  0.00    +0.000 HD
ENDBRANCH   4   8
ENDBRANCH   1   4
BRANCH   1  10
ATOM     10  P   UNL     1     -11.166   5.829 131.594  0.00  0.00    +0.000 P 
ATOM     11  O   UNL     1     -12.333   6.740 131.784  0.00  0.00    +0.000 OA
BRANCH  10  12
ATOM     12  O   UNL     1     -11.573   4.484 130.843  0.00  0.00    +0.000 OA
ATOM     13  H   UNL     1     -11.886   3.758 131.434  0.00  0.00    +0.000 HD
ENDBRANCH  10  12
BRANCH  10  14
ATOM     14  O   UNL     1     -10.429   5.429 132.962  0.00  0.00    +0.000 OA
ATOM     15  H   UNL     1     -11.048   5.415 133.726  0.00  0.00    +0.000 HD
ENDBRANCH  10  14
ENDBRANCH   1  10
BRANCH   1  16
ATOM     16  C   UNL     1     -10.226   7.657 129.728  0.00  0.00    +0.000 C 
BRANCH  16  17
ATOM     17  N   UNL     1     -10.971   7.336 128.513  0.00  0.00    +0.000 N 
ATOM     18  C   UNL     1     -10.496   7.412 127.229  0.00  0.00    +0.000 A 
ATOM     19  C   UNL     1     -11.590   7.194 126.422  0.00  0.00    +0.000 A 
ATOM     20  N   UNL     1     -12.678   6.864 127.174  0.00  0.00    +0.000 NA
ATOM     21  C   UNL     1     -12.252   6.857 128.417  0.00  0.00    +0.000 A 
ENDBRANCH  16  17
ENDBRANCH   1  16
TORSDOF 9
ENDMDL
MODEL 8
REMARK VINA RESULT:      -4.8      3.702      5.150
REMARK  Name = Zoledronic acid
REMARK  9 active torsions:
REMARK  status: ('A' for Active; 'I' for Inactive)
REMARK    1  A    between atoms: O_1  and  C_2
REMARK    2  A    between atoms: C_2  and  C_3
REMARK    3  A    between atoms: C_2  and  P_9
REMARK    4  A    between atoms: C_2  and  P_13
REMARK    5  A    between atoms: C_3  and  N_4
REMARK    6  A    between atoms: P_9  and  O_10
REMARK    7  A    between atoms: P_9  and  O_11
REMARK    8  A    between atoms: P_13  and  O_14
REMARK    9  A    between atoms: P_13  and  O_15
REMARK                            x       y       z     vdW  Elec       q    Type
REMARK                         _______ _______ _______ _____ _____    ______ ____
ROOT
ATOM      1  C   UNL     1     -10.265   5.533 131.390  0.00  0.00    +0.000 C 
ENDROOT
BRANCH   1   2
ATOM      2  O   UNL     1     -10.891   5.870 132.650  0.00  0.00    +0.000 OA
ATOM      3  H   UNL     1     -11.239   6.782 132.541  0.00  0.00    +0.000 HD
ENDBRANCH   1   2
BRANCH   1   4
ATOM      4  P   UNL     1      -8.830   6.574 130.936  0.00  0.00    +0.000 P 
ATOM      5  O   UNL     1      -7.616   7.456 130.550  0.00  0.00    +0.000 OA
BRANCH   4   6
ATOM      6  O   UNL     1      -7.999   5.572 131.977  0.00  0.00    +0.000 OA
ATOM      7  H   UNL     1      -7.138   5.229 131.670  0.00  0.00    +0.000 HD
ENDBRANCH   4   6
BRANCH   4   8
ATOM      8  O   UNL     1      -8.589   5.614 129.623  0.00  0.00    +0.000 OA
ATOM      9  H   UNL     1      -9.091   5.680 128.783  0.00  0.00    +0.000 HD
ENDBRANCH   4   8
ENDBRANCH   1   4
BRANCH   1  10
ATOM     10  P   UNL     1      -9.657   3.786 131.531  0.00  0.00    +0.000 P 
ATOM     11  O   UNL     1      -8.399   3.417 130.817  0.00  0.00    +0.000 OA
BRANCH  10  12
ATOM     12  O   UNL     1      -9.546   3.543 133.102  0.00  0.00    +0.000 OA
ATOM     13  H   UNL     1     -10.356   3.168 133.522  0.00  0.00    +0.000 HD
ENDBRANCH  10  12
BRANCH  10  14
ATOM     14  O   UNL     1     -10.955   3.005 131.000  0.00  0.00    +0.000 OA
ATOM     15  H   UNL     1     -11.114   2.171 131.496  0.00  0.00    +0.000 HD
ENDBRANCH  10  14
ENDBRANCH   1  10
BRANCH   1  16
ATOM     16  C   UNL     1     -11.331   5.568 130.217  0.00  0.00    +0.000 C 
BRANCH  16  17
ATOM     17  N   UNL     1     -11.814   6.870 129.763  0.00  0.00    +0.000 N 
ATOM     18  C   UNL     1     -11.620   7.418 128.522  0.00  0.00    +0.000 A 
ATOM     19  C   UNL     1     -12.089   8.709 128.614  0.00  0.00    +0.000 A 
ATOM     20  N   UNL     1     -12.675   8.916 129.828  0.00  0.00    +0.000 NA
ATOM     21  C   UNL     1     -12.587   7.766 130.457  0.00  0.00    +0.000 A 
ENDBRANCH  16  17
ENDBRANCH   1  16
TORSDOF 9
ENDMDL
MODEL 9
REMARK VINA RESULT:      -4.8      4.144      5.312
REMARK  Name = Zoledronic acid
REMARK  9 active torsions:
REMARK  status: ('A' for Active; 'I' for Inactive)
REMARK    1  A    between atoms: O_1  and  C_2
REMARK    2  A    between atoms: C_2  and  C_3
REMARK    3  A    between atoms: C_2  and  P_9
REMARK    4  A    between atoms: C_2  and  P_13
REMARK    5  A    between atoms: C_3  and  N_4
REMARK    6  A    between atoms: P_9  and  O_10
REMARK    7  A    between atoms: P_9  and  O_11
REMARK    8  A    between atoms: P_13  and  O_14
REMARK    9  A    between atoms: P_13  and  O_15
REMARK                            x       y       z     vdW  Elec       q    Type
REMARK                         _______ _______ _______ _____ _____    ______ ____
ROOT
ATOM      1  C   UNL     1      -9.410   4.386 131.891  0.00  0.00    +0.000 C 
ENDROOT
BRANCH   1   2
ATOM      2  O   UNL     1     -10.003   3.822 133.084  0.00  0.00    +0.000 OA
ATOM      3  H   UNL     1     -10.407   4.578 133.565  0.00  0.00    +0.000 HD
ENDBRANCH   1   2
BRANCH   1   4
ATOM      4  P   UNL     1     -10.599   4.840 130.575  0.00  0.00    +0.000 P 
ATOM      5  O   UNL     1     -11.604   5.225 129.461  0.00  0.00    +0.000 OA
BRANCH   4   6
ATOM      6  O   UNL     1     -11.220   3.319 130.858  0.00  0.00    +0.000 OA
ATOM      7  H   UNL     1     -11.389   2.757 130.079  0.00  0.00    +0.000 HD
ENDBRANCH   4   6
BRANCH   4   8
ATOM      8  O   UNL     1     -11.534   5.568 131.715  0.00  0.00    +0.000 OA
ATOM      9  H   UNL     1     -11.262   5.724 132.644  0.00  0.00    +0.000 HD
ENDBRANCH   4   8
ENDBRANCH   1   4
BRANCH   1  10
ATOM     10  P   UNL     1      -8.529   5.938 132.398  0.00  0.00    +0.000 P 
ATOM     11  O   UNL     1      -7.050   5.878 132.596  0.00  0.00    +0.000 OA
BRANCH  10  12
ATOM     12  O   UNL     1      -8.940   6.996 131.279  0.00  0.00    +0.000 OA
ATOM     13  H   UNL     1      -8.205   7.274 130.682  0.00  0.00    +0.000 HD
ENDBRANCH  10  12
BRANCH  10  14
ATOM     14  O   UNL     1      -9.346   6.288 133.734  0.00  0.00    +0.000 OA
ATOM     15  H   UNL     1      -8.885   6.959 134.285  0.00  0.00    +0.000 HD
ENDBRANCH  10  14
ENDBRANCH   1  10
BRANCH   1  16
ATOM     16  C   UNL     1      -8.321   3.399 131.296  0.00  0.00    +0.000 C 
BRANCH  16  17
ATOM     17  N   UNL     1      -7.837   2.313 132.145  0.00  0.00    +0.000 N 
ATOM     18  C   UNL     1      -6.807   2.388 133.046  0.00  0.00    +0.000 A 
ATOM     19  C   UNL     1      -6.599   1.094 133.471  0.00  0.00    +0.000 A 
ATOM     20  N   UNL     1      -7.549   0.265 132.954  0.00  0.00    +0.000 NA
ATOM     21  C   UNL     1      -8.339   1.040 132.245  0.00  0.00    +0.000 A 
ENDBRANCH  16  17
ENDBRANCH   1  16
TORSDOF 9
ENDMDL
