MODEL 1
REMARK VINA RESULT:      -7.1      0.000      0.000
REMARK  Name = Zolmitriptan
REMARK  7 active torsions:
REMARK  status: ('A' for Active; 'I' for Inactive)
REMARK    1  A    between atoms: C_1  and  N_2
REMARK    2  A    between atoms: N_2  and  C_3
REMARK    3  A    between atoms: N_2  and  C_4
REMARK    4  A    between atoms: C_4  and  C_5
REMARK    5  A    between atoms: C_5  and  C_6
REMARK    6  A    between atoms: C_12  and  C_13
REMARK    7  A    between atoms: C_13  and  C_14
REMARK                            x       y       z     vdW  Elec       q    Type
REMARK                         _______ _______ _______ _____ _____    ______ ____
ROOT
ATOM      1  C   UNL     1     -10.299   6.900 130.741  0.00  0.00    +0.000 A 
ATOM      2  C   UNL     1     -11.326   6.478 131.556  0.00  0.00    +0.000 A 
ATOM      3  N   UNL     1     -10.772   5.890 132.655  0.00  0.00    +0.000 N 
ATOM      4  C   UNL     1      -9.409   5.947 132.566  0.00  0.00    +0.000 A 
ATOM      5  C   UNL     1      -8.467   5.534 133.471  0.00  0.00    +0.000 A 
ATOM      6  C   UNL     1      -7.157   5.750 133.092  0.00  0.00    +0.000 A 
ATOM      7  C   UNL     1      -6.734   6.351 131.897  0.00  0.00    +0.000 A 
ATOM      8  C   UNL     1      -7.722   6.721 130.994  0.00  0.00    +0.000 A 
ATOM      9  C   UNL     1      -9.075   6.534 131.352  0.00  0.00    +0.000 A 
ATOM     10  H   UNL     1     -11.269   5.507 133.447  0.00  0.00    +0.000 HD
ENDROOT
BRANCH   1  11
ATOM     11  C   UNL     1     -10.390   7.672 129.483  0.00  0.00    +0.000 C 
BRANCH  11  12
ATOM     12  C   UNL     1     -11.781   8.317 129.349  0.00  0.00    +0.000 C 
BRANCH  12  14
ATOM     13  C   UNL     1     -11.327   7.801 127.060  0.00  0.00    +0.000 C 
ATOM     14  N   UNL     1     -12.386   8.097 128.027  0.00  0.00    +0.000 NA
ATOM     15  C   UNL     1     -13.340   6.987 128.065  0.00  0.00    +0.000 C 
ENDBRANCH  12  14
ENDBRANCH  11  12
ENDBRANCH   1  11
BRANCH   7  16
ATOM     16  C   UNL     1      -5.281   6.641 131.574  0.00  0.00    +0.000 C 
BRANCH  16  17
ATOM     17  C   UNL     1      -4.980   6.973 130.104  0.00  0.00    +0.000 C 
ATOM     18  C   UNL     1      -4.107   8.204 129.878  0.00  0.00    +0.000 C 
ATOM     19  O   UNL     1      -3.083   7.767 128.957  0.00  0.00    +0.000 OA
ATOM     20  C   UNL     1      -3.135   6.407 128.840  0.00  0.00    +0.000 C 
ATOM     21  O   UNL     1      -2.248   5.712 128.359  0.00  0.00    +0.000 OA
ATOM     22  N   UNL     1      -4.260   5.927 129.440  0.00  0.00    +0.000 N 
ATOM     23  H   UNL     1      -4.295   4.945 129.696  0.00  0.00    +0.000 HD
ENDBRANCH  16  17
ENDBRANCH   7  16
TORSDOF 5
ENDMDL
MODEL 2
REMARK VINA RESULT:      -6.9      1.269      1.539
REMARK  Name = Zolmitriptan
REMARK  7 active torsions:
REMARK  status: ('A' for Active; 'I' for Inactive)
REMARK    1  A    between atoms: C_1  and  N_2
REMARK    2  A    between atoms: N_2  and  C_3
REMARK    3  A    between atoms: N_2  and  C_4
REMARK    4  A    between atoms: C_4  and  C_5
REMARK    5  A    between atoms: C_5  and  C_6
REMARK    6  A    between atoms: C_12  and  C_13
REMARK    7  A    between atoms: C_13  and  C_14
REMARK                            x       y       z     vdW  Elec       q    Type
REMARK                         _______ _______ _______ _____ _____    ______ ____
ROOT
ATOM      1  C   UNL     1     -10.500   6.840 130.945  0.00  0.00    +0.000 A 
ATOM      2  C   UNL     1     -11.286   6.224 131.893  0.00  0.00    +0.000 A 
ATOM      3  N   UNL     1     -10.457   5.644 132.809  0.00  0.00    +0.000 N 
ATOM      4  C   UNL     1      -9.156   5.896 132.472  0.00  0.00    +0.000 A 
ATOM      5  C   UNL     1      -8.011   5.557 133.142  0.00  0.00    +0.000 A 
ATOM      6  C   UNL     1      -6.838   5.978 132.547  0.00  0.00    +0.000 A 
ATOM      7  C   UNL     1      -6.737   6.714 131.357  0.00  0.00    +0.000 A 
ATOM      8  C   UNL     1      -7.922   7.004 130.692  0.00  0.00    +0.000 A 
ATOM      9  C   UNL     1      -9.144   6.606 131.279  0.00  0.00    +0.000 A 
ATOM     10  H   UNL     1     -10.737   5.142 133.639  0.00  0.00    +0.000 HD
ENDROOT
BRANCH   1  11
ATOM     11  C   UNL     1     -10.932   7.677 129.805  0.00  0.00    +0.000 C 
BRANCH  11  12
ATOM     12  C   UNL     1     -10.909   6.859 128.500  0.00  0.00    +0.000 C 
BRANCH  12  14
ATOM     13  C   UNL     1     -13.225   7.408 128.724  0.00  0.00    +0.000 C 
ATOM     14  N   UNL     1     -12.250   6.652 127.935  0.00  0.00    +0.000 NA
ATOM     15  C   UNL     1     -12.304   7.091 126.539  0.00  0.00    +0.000 C 
ENDBRANCH  12  14
ENDBRANCH  11  12
ENDBRANCH   1  11
BRANCH   7  16
ATOM     16  C   UNL     1      -5.423   7.224 130.796  0.00  0.00    +0.000 C 
BRANCH  16  17
ATOM     17  C   UNL     1      -4.345   6.156 130.552  0.00  0.00    +0.000 C 
ATOM     18  C   UNL     1      -3.681   6.201 129.178  0.00  0.00    +0.000 C 
ATOM     19  O   UNL     1      -2.263   6.149 129.452  0.00  0.00    +0.000 OA
ATOM     20  C   UNL     1      -2.057   6.326 130.791  0.00  0.00    +0.000 C 
ATOM     21  O   UNL     1      -0.978   6.603 131.301  0.00  0.00    +0.000 OA
ATOM     22  N   UNL     1      -3.242   6.269 131.460  0.00  0.00    +0.000 N 
ATOM     23  H   UNL     1      -3.296   6.669 132.391  0.00  0.00    +0.000 HD
ENDBRANCH  16  17
ENDBRANCH   7  16
TORSDOF 5
ENDMDL
MODEL 3
REMARK VINA RESULT:      -6.8      1.375      1.799
REMARK  Name = Zolmitriptan
REMARK  7 active torsions:
REMARK  status: ('A' for Active; 'I' for Inactive)
REMARK    1  A    between atoms: C_1  and  N_2
REMARK    2  A    between atoms: N_2  and  C_3
REMARK    3  A    between atoms: N_2  and  C_4
REMARK    4  A    between atoms: C_4  and  C_5
REMARK    5  A    between atoms: C_5  and  C_6
REMARK    6  A    between atoms: C_12  and  C_13
REMARK    7  A    between atoms: C_13  and  C_14
REMARK                            x       y       z     vdW  Elec       q    Type
REMARK                         _______ _______ _______ _____ _____    ______ ____
ROOT
ATOM      1  C   UNL     1     -10.077   6.834 130.778  0.00  0.00    +0.000 A 
ATOM      2  C   UNL     1     -11.134   6.427 131.561  0.00  0.00    +0.000 A 
ATOM      3  N   UNL     1     -10.622   5.852 132.686  0.00  0.00    +0.000 N 
ATOM      4  C   UNL     1      -9.256   5.901 132.645  0.00  0.00    +0.000 A 
ATOM      5  C   UNL     1      -8.349   5.496 133.588  0.00  0.00    +0.000 A 
ATOM      6  C   UNL     1      -7.025   5.701 133.253  0.00  0.00    +0.000 A 
ATOM      7  C   UNL     1      -6.557   6.285 132.067  0.00  0.00    +0.000 A 
ATOM      8  C   UNL     1      -7.511   6.647 131.123  0.00  0.00    +0.000 A 
ATOM      9  C   UNL     1      -8.877   6.471 131.436  0.00  0.00    +0.000 A 
ATOM     10  H   UNL     1     -11.149   5.480 133.464  0.00  0.00    +0.000 HD
ENDROOT
BRANCH   1  11
ATOM     11  C   UNL     1     -10.119   7.590 129.507  0.00  0.00    +0.000 C 
BRANCH  11  12
ATOM     12  C   UNL     1     -11.577   7.850 129.086  0.00  0.00    +0.000 C 
BRANCH  12  14
ATOM     13  C   UNL     1     -13.507   6.867 128.074  0.00  0.00    +0.000 C 
ATOM     14  N   UNL     1     -12.044   6.920 128.047  0.00  0.00    +0.000 NA
ATOM     15  C   UNL     1     -11.592   7.347 126.721  0.00  0.00    +0.000 C 
ENDBRANCH  12  14
ENDBRANCH  11  12
ENDBRANCH   1  11
BRANCH   7  16
ATOM     16  C   UNL     1      -5.093   6.564 131.791  0.00  0.00    +0.000 C 
BRANCH  16  17
ATOM     17  C   UNL     1      -4.387   5.560 130.866  0.00  0.00    +0.000 C 
ATOM     18  C   UNL     1      -5.040   4.183 130.776  0.00  0.00    +0.000 C 
ATOM     19  O   UNL     1      -5.133   3.912 129.359  0.00  0.00    +0.000 OA
ATOM     20  C   UNL     1      -4.844   5.051 128.663  0.00  0.00    +0.000 C 
ATOM     21  O   UNL     1      -5.095   5.228 127.477  0.00  0.00    +0.000 OA
ATOM     22  N   UNL     1      -4.347   6.001 129.503  0.00  0.00    +0.000 N 
ATOM     23  H   UNL     1      -4.366   6.972 129.207  0.00  0.00    +0.000 HD
ENDBRANCH  16  17
ENDBRANCH   7  16
TORSDOF 5
ENDMDL
MODEL 4
REMARK VINA RESULT:      -6.3      8.934     10.300
REMARK  Name = Zolmitriptan
REMARK  7 active torsions:
REMARK  status: ('A' for Active; 'I' for Inactive)
REMARK    1  A    between atoms: C_1  and  N_2
REMARK    2  A    between atoms: N_2  and  C_3
REMARK    3  A    between atoms: N_2  and  C_4
REMARK    4  A    between atoms: C_4  and  C_5
REMARK    5  A    between atoms: C_5  and  C_6
REMARK    6  A    between atoms: C_12  and  C_13
REMARK    7  A    between atoms: C_13  and  C_14
REMARK                            x       y       z     vdW  Elec       q    Type
REMARK                         _______ _______ _______ _____ _____    ______ ____
ROOT
ATOM      1  C   UNL     1      -6.172  -1.468 125.058  0.00  0.00    +0.000 A 
ATOM      2  C   UNL     1      -5.578  -1.912 126.219  0.00  0.00    +0.000 A 
ATOM      3  N   UNL     1      -5.222  -0.818 126.950  0.00  0.00    +0.000 N 
ATOM      4  C   UNL     1      -5.594   0.318 126.286  0.00  0.00    +0.000 A 
ATOM      5  C   UNL     1      -5.485   1.624 126.682  0.00  0.00    +0.000 A 
ATOM      6  C   UNL     1      -5.978   2.551 125.785  0.00  0.00    +0.000 A 
ATOM      7  C   UNL     1      -6.574   2.264 124.548  0.00  0.00    +0.000 A 
ATOM      8  C   UNL     1      -6.631   0.928 124.171  0.00  0.00    +0.000 A 
ATOM      9  C   UNL     1      -6.154  -0.052 125.070  0.00  0.00    +0.000 A 
ATOM     10  H   UNL     1      -4.790  -0.820 127.864  0.00  0.00    +0.000 HD
ENDROOT
BRANCH   1  11
ATOM     11  C   UNL     1      -6.806  -2.272 123.991  0.00  0.00    +0.000 C 
BRANCH  11  12
ATOM     12  C   UNL     1      -7.379  -3.578 124.573  0.00  0.00    +0.000 C 
BRANCH  12  14
ATOM     13  C   UNL     1      -9.406  -3.012 125.706  0.00  0.00    +0.000 C 
ATOM     14  N   UNL     1      -8.847  -3.635 124.505  0.00  0.00    +0.000 NA
ATOM     15  C   UNL     1      -9.344  -2.940 123.315  0.00  0.00    +0.000 C 
ENDBRANCH  12  14
ENDBRANCH  11  12
ENDBRANCH   1  11
BRANCH   7  16
ATOM     16  C   UNL     1      -7.176   3.320 123.643  0.00  0.00    +0.000 C 
BRANCH  16  17
ATOM     17  C   UNL     1      -7.354   2.913 122.171  0.00  0.00    +0.000 C 
ATOM     18  C   UNL     1      -8.638   3.405 121.508  0.00  0.00    +0.000 C 
ATOM     19  O   UNL     1      -8.207   3.995 120.262  0.00  0.00    +0.000 OA
ATOM     20  C   UNL     1      -6.845   4.109 120.266  0.00  0.00    +0.000 C 
ATOM     21  O   UNL     1      -6.200   4.805 119.490  0.00  0.00    +0.000 OA
ATOM     22  N   UNL     1      -6.321   3.436 121.327  0.00  0.00    +0.000 N 
ATOM     23  H   UNL     1      -5.381   3.666 121.634  0.00  0.00    +0.000 HD
ENDBRANCH  16  17
ENDBRANCH   7  16
TORSDOF 5
ENDMDL
MODEL 5
REMARK VINA RESULT:      -6.2      9.363     10.165
REMARK  Name = Zolmitriptan
REMARK  7 active torsions:
REMARK  status: ('A' for Active; 'I' for Inactive)
REMARK    1  A    between atoms: C_1  and  N_2
REMARK    2  A    between atoms: N_2  and  C_3
REMARK    3  A    between atoms: N_2  and  C_4
REMARK    4  A    between atoms: C_4  and  C_5
REMARK    5  A    between atoms: C_5  and  C_6
REMARK    6  A    between atoms: C_12  and  C_13
REMARK    7  A    between atoms: C_13  and  C_14
REMARK                            x       y       z     vdW  Elec       q    Type
REMARK                         _______ _______ _______ _____ _____    ______ ____
ROOT
ATOM      1  C   UNL     1      -9.270  -0.005 124.415  0.00  0.00    +0.000 A 
ATOM      2  C   UNL     1      -9.269  -0.171 123.048  0.00  0.00    +0.000 A 
ATOM      3  N   UNL     1      -8.938  -1.468 122.785  0.00  0.00    +0.000 N 
ATOM      4  C   UNL     1      -8.746  -2.138 123.961  0.00  0.00    +0.000 A 
ATOM      5  C   UNL     1      -8.462  -3.463 124.162  0.00  0.00    +0.000 A 
ATOM      6  C   UNL     1      -8.346  -3.842 125.485  0.00  0.00    +0.000 A 
ATOM      7  C   UNL     1      -8.505  -3.005 126.599  0.00  0.00    +0.000 A 
ATOM      8  C   UNL     1      -8.756  -1.662 126.346  0.00  0.00    +0.000 A 
ATOM      9  C   UNL     1      -8.900  -1.238 125.007  0.00  0.00    +0.000 A 
ATOM     10  H   UNL     1      -8.882  -1.901 121.874  0.00  0.00    +0.000 HD
ENDROOT
BRANCH   1  11
ATOM     11  C   UNL     1      -9.654   1.194 125.190  0.00  0.00    +0.000 C 
BRANCH  11  12
ATOM     12  C   UNL     1      -8.437   2.116 125.390  0.00  0.00    +0.000 C 
BRANCH  12  14
ATOM     13  C   UNL     1      -8.004   4.466 125.452  0.00  0.00    +0.000 C 
ATOM     14  N   UNL     1      -8.547   3.375 124.640  0.00  0.00    +0.000 NA
ATOM     15  C   UNL     1      -7.815   3.296 123.374  0.00  0.00    +0.000 C 
ENDBRANCH  12  14
ENDBRANCH  11  12
ENDBRANCH   1  11
BRANCH   7  16
ATOM     16  C   UNL     1      -8.452  -3.497 128.032  0.00  0.00    +0.000 C 
BRANCH  16  17
ATOM     17  C   UNL     1      -7.491  -2.738 128.961  0.00  0.00    +0.000 C 
ATOM     18  C   UNL     1      -7.333  -3.328 130.360  0.00  0.00    +0.000 C 
ATOM     19  O   UNL     1      -5.906  -3.396 130.573  0.00  0.00    +0.000 OA
ATOM     20  C   UNL     1      -5.263  -3.153 129.392  0.00  0.00    +0.000 C 
ATOM     21  O   UNL     1      -4.083  -3.401 129.174  0.00  0.00    +0.000 OA
ATOM     22  N   UNL     1      -6.149  -2.707 128.458  0.00  0.00    +0.000 N 
ATOM     23  H   UNL     1      -5.895  -2.767 127.478  0.00  0.00    +0.000 HD
ENDBRANCH  16  17
ENDBRANCH   7  16
TORSDOF 5
ENDMDL
MODEL 6
REMARK VINA RESULT:      -6.1      3.403      6.647
REMARK  Name = Zolmitriptan
REMARK  7 active torsions:
REMARK  status: ('A' for Active; 'I' for Inactive)
REMARK    1  A    between atoms: C_1  and  N_2
REMARK    2  A    between atoms: N_2  and  C_3
REMARK    3  A    between atoms: N_2  and  C_4
REMARK    4  A    between atoms: C_4  and  C_5
REMARK    5  A    between atoms: C_5  and  C_6
REMARK    6  A    between atoms: C_12  and  C_13
REMARK    7  A    between atoms: C_13  and  C_14
REMARK                            x       y       z     vdW  Elec       q    Type
REMARK                         _______ _______ _______ _____ _____    ______ ____
ROOT
ATOM      1  C   UNL     1      -4.981   6.469 131.824  0.00  0.00    +0.000 A 
ATOM      2  C   UNL     1      -3.949   6.154 132.680  0.00  0.00    +0.000 A 
ATOM      3  N   UNL     1      -4.495   5.682 133.836  0.00  0.00    +0.000 N 
ATOM      4  C   UNL     1      -5.858   5.671 133.728  0.00  0.00    +0.000 A 
ATOM      5  C   UNL     1      -6.791   5.221 134.624  0.00  0.00    +0.000 A 
ATOM      6  C   UNL     1      -8.103   5.329 134.206  0.00  0.00    +0.000 A 
ATOM      7  C   UNL     1      -8.535   5.836 132.971  0.00  0.00    +0.000 A 
ATOM      8  C   UNL     1      -7.556   6.314 132.109  0.00  0.00    +0.000 A 
ATOM      9  C   UNL     1      -6.202   6.204 132.492  0.00  0.00    +0.000 A 
ATOM     10  H   UNL     1      -3.992   5.343 134.645  0.00  0.00    +0.000 HD
ENDROOT
BRANCH   1  11
ATOM     11  C   UNL     1      -4.897   6.929 130.421  0.00  0.00    +0.000 C 
BRANCH  11  12
ATOM     12  C   UNL     1      -4.815   5.724 129.466  0.00  0.00    +0.000 C 
BRANCH  12  14
ATOM     13  C   UNL     1      -3.240   7.002 128.201  0.00  0.00    +0.000 C 
ATOM     14  N   UNL     1      -4.390   6.101 128.110  0.00  0.00    +0.000 NA
ATOM     15  C   UNL     1      -4.025   4.917 127.328  0.00  0.00    +0.000 C 
ENDBRANCH  12  14
ENDBRANCH  11  12
ENDBRANCH   1  11
BRANCH   7  16
ATOM     16  C   UNL     1      -9.987   5.849 132.534  0.00  0.00    +0.000 C 
BRANCH  16  17
ATOM     17  C   UNL     1     -10.224   5.938 131.017  0.00  0.00    +0.000 C 
ATOM     18  C   UNL     1     -10.806   4.683 130.373  0.00  0.00    +0.000 C 
ATOM     19  O   UNL     1     -11.911   5.159 129.572  0.00  0.00    +0.000 OA
ATOM     20  C   UNL     1     -12.161   6.466 129.882  0.00  0.00    +0.000 C 
ATOM     21  O   UNL     1     -13.185   7.070 129.588  0.00  0.00    +0.000 OA
ATOM     22  N   UNL     1     -11.164   6.961 130.666  0.00  0.00    +0.000 N 
ATOM     23  H   UNL     1     -11.343   7.797 131.213  0.00  0.00    +0.000 HD
ENDBRANCH  16  17
ENDBRANCH   7  16
TORSDOF 5
ENDMDL
MODEL 7
REMARK VINA RESULT:      -6.1      4.707      5.707
REMARK  Name = Zolmitriptan
REMARK  7 active torsions:
REMARK  status: ('A' for Active; 'I' for Inactive)
REMARK    1  A    between atoms: C_1  and  N_2
REMARK    2  A    between atoms: N_2  and  C_3
REMARK    3  A    between atoms: N_2  and  C_4
REMARK    4  A    between atoms: C_4  and  C_5
REMARK    5  A    between atoms: C_5  and  C_6
REMARK    6  A    between atoms: C_12  and  C_13
REMARK    7  A    between atoms: C_13  and  C_14
REMARK                            x       y       z     vdW  Elec       q    Type
REMARK                         _______ _______ _______ _____ _____    ______ ____
ROOT
ATOM      1  C   UNL     1     -10.077   5.459 131.215  0.00  0.00    +0.000 A 
ATOM      2  C   UNL     1     -10.576   4.297 130.668  0.00  0.00    +0.000 A 
ATOM      3  N   UNL     1     -10.136   3.255 131.430  0.00  0.00    +0.000 N 
ATOM      4  C   UNL     1      -9.380   3.731 132.465  0.00  0.00    +0.000 A 
ATOM      5  C   UNL     1      -8.798   3.043 133.496  0.00  0.00    +0.000 A 
ATOM      6  C   UNL     1      -8.108   3.823 134.404  0.00  0.00    +0.000 A 
ATOM      7  C   UNL     1      -7.976   5.218 134.358  0.00  0.00    +0.000 A 
ATOM      8  C   UNL     1      -8.553   5.871 133.275  0.00  0.00    +0.000 A 
ATOM      9  C   UNL     1      -9.282   5.111 132.335  0.00  0.00    +0.000 A 
ATOM     10  H   UNL     1     -10.358   2.278 131.297  0.00  0.00    +0.000 HD
ENDROOT
BRANCH   1  11
ATOM     11  C   UNL     1     -10.348   6.852 130.802  0.00  0.00    +0.000 C 
BRANCH  11  12
ATOM     12  C   UNL     1     -11.862   7.075 130.628  0.00  0.00    +0.000 C 
BRANCH  12  14
ATOM     13  C   UNL     1     -12.679   9.030 129.524  0.00  0.00    +0.000 C 
ATOM     14  N   UNL     1     -12.205   7.660 129.323  0.00  0.00    +0.000 NA
ATOM     15  C   UNL     1     -11.043   7.669 128.431  0.00  0.00    +0.000 C 
ENDBRANCH  12  14
ENDBRANCH  11  12
ENDBRANCH   1  11
BRANCH   7  16
ATOM     16  C   UNL     1      -7.279   6.030 135.432  0.00  0.00    +0.000 C 
BRANCH  16  17
ATOM     17  C   UNL     1      -8.081   6.249 136.726  0.00  0.00    +0.000 C 
ATOM     18  C   UNL     1      -7.245   6.411 137.993  0.00  0.00    +0.000 C 
ATOM     19  O   UNL     1      -7.776   7.590 138.637  0.00  0.00    +0.000 OA
ATOM     20  C   UNL     1      -8.622   8.231 137.775  0.00  0.00    +0.000 C 
ATOM     21  O   UNL     1      -9.016   9.383 137.910  0.00  0.00    +0.000 OA
ATOM     22  N   UNL     1      -8.867   7.447 136.689  0.00  0.00    +0.000 N 
ATOM     23  H   UNL     1      -9.222   7.882 135.844  0.00  0.00    +0.000 HD
ENDBRANCH  16  17
ENDBRANCH   7  16
TORSDOF 5
ENDMDL
MODEL 8
REMARK VINA RESULT:      -6.1      9.337      9.806
REMARK  Name = Zolmitriptan
REMARK  7 active torsions:
REMARK  status: ('A' for Active; 'I' for Inactive)
REMARK    1  A    between atoms: C_1  and  N_2
REMARK    2  A    between atoms: N_2  and  C_3
REMARK    3  A    between atoms: N_2  and  C_4
REMARK    4  A    between atoms: C_4  and  C_5
REMARK    5  A    between atoms: C_5  and  C_6
REMARK    6  A    between atoms: C_12  and  C_13
REMARK    7  A    between atoms: C_13  and  C_14
REMARK                            x       y       z     vdW  Elec       q    Type
REMARK                         _______ _______ _______ _____ _____    ______ ____
ROOT
ATOM      1  C   UNL     1      -8.314  -1.257 125.561  0.00  0.00    +0.000 A 
ATOM      2  C   UNL     1      -9.139  -2.063 124.808  0.00  0.00    +0.000 A 
ATOM      3  N   UNL     1      -9.426  -3.172 125.548  0.00  0.00    +0.000 N 
ATOM      4  C   UNL     1      -8.815  -3.080 126.767  0.00  0.00    +0.000 A 
ATOM      5  C   UNL     1      -8.885  -3.936 127.834  0.00  0.00    +0.000 A 
ATOM      6  C   UNL     1      -8.160  -3.549 128.944  0.00  0.00    +0.000 A 
ATOM      7  C   UNL     1      -7.397  -2.378 129.061  0.00  0.00    +0.000 A 
ATOM      8  C   UNL     1      -7.327  -1.557 127.943  0.00  0.00    +0.000 A 
ATOM      9  C   UNL     1      -8.068  -1.909 126.794  0.00  0.00    +0.000 A 
ATOM     10  H   UNL     1     -10.031  -3.935 125.277  0.00  0.00    +0.000 HD
ENDROOT
BRANCH   1  11
ATOM     11  C   UNL     1      -7.807   0.093 125.232  0.00  0.00    +0.000 C 
BRANCH  11  12
ATOM     12  C   UNL     1      -8.038   0.403 123.742  0.00  0.00    +0.000 C 
BRANCH  12  14
ATOM     13  C   UNL     1      -8.638   2.573 122.938  0.00  0.00    +0.000 C 
ATOM     14  N   UNL     1      -9.155   1.333 123.520  0.00  0.00    +0.000 NA
ATOM     15  C   UNL     1     -10.153   0.748 122.622  0.00  0.00    +0.000 C 
ENDBRANCH  12  14
ENDBRANCH  11  12
ENDBRANCH   1  11
BRANCH   7  16
ATOM     16  C   UNL     1      -6.693  -1.962 130.338  0.00  0.00    +0.000 C 
BRANCH  16  17
ATOM     17  C   UNL     1      -5.625  -2.938 130.857  0.00  0.00    +0.000 C 
ATOM     18  C   UNL     1      -4.574  -3.361 129.834  0.00  0.00    +0.000 C 
ATOM     19  O   UNL     1      -3.309  -3.174 130.507  0.00  0.00    +0.000 OA
ATOM     20  C   UNL     1      -3.514  -2.480 131.666  0.00  0.00    +0.000 C 
ATOM     21  O   UNL     1      -2.633  -1.932 132.318  0.00  0.00    +0.000 OA
ATOM     22  N   UNL     1      -4.847  -2.386 131.927  0.00  0.00    +0.000 N 
ATOM     23  H   UNL     1      -5.169  -1.667 132.567  0.00  0.00    +0.000 HD
ENDBRANCH  16  17
ENDBRANCH   7  16
TORSDOF 5
ENDMDL
MODEL 9
REMARK VINA RESULT:      -6.0      9.194      9.813
REMARK  Name = Zolmitriptan
REMARK  7 active torsions:
REMARK  status: ('A' for Active; 'I' for Inactive)
REMARK    1  A    between atoms: C_1  and  N_2
REMARK    2  A    between atoms: N_2  and  C_3
REMARK    3  A    between atoms: N_2  and  C_4
REMARK    4  A    between atoms: C_4  and  C_5
REMARK    5  A    between atoms: C_5  and  C_6
REMARK    6  A    between atoms: C_12  and  C_13
REMARK    7  A    between atoms: C_13  and  C_14
REMARK                            x       y       z     vdW  Elec       q    Type
REMARK                         _______ _______ _______ _____ _____    ______ ____
ROOT
ATOM      1  C   UNL     1      -7.248  -0.197 128.373  0.00  0.00    +0.000 A 
ATOM      2  C   UNL     1      -6.875  -0.545 129.653  0.00  0.00    +0.000 A 
ATOM      3  N   UNL     1      -7.251  -1.839 129.859  0.00  0.00    +0.000 N 
ATOM      4  C   UNL     1      -7.842  -2.330 128.728  0.00  0.00    +0.000 A 
ATOM      5  C   UNL     1      -8.309  -3.593 128.478  0.00  0.00    +0.000 A 
ATOM      6  C   UNL     1      -8.839  -3.782 127.216  0.00  0.00    +0.000 A 
ATOM      7  C   UNL     1      -8.919  -2.814 126.204  0.00  0.00    +0.000 A 
ATOM      8  C   UNL     1      -8.466  -1.538 126.515  0.00  0.00    +0.000 A 
ATOM      9  C   UNL     1      -7.900  -1.310 127.788  0.00  0.00    +0.000 A 
ATOM     10  H   UNL     1      -7.089  -2.386 130.693  0.00  0.00    +0.000 HD
ENDROOT
BRANCH   1  11
ATOM     11  C   UNL     1      -6.977   1.067 127.655  0.00  0.00    +0.000 C 
BRANCH  11  12
ATOM     12  C   UNL     1      -8.195   2.005 127.743  0.00  0.00    +0.000 C 
BRANCH  12  14
ATOM     13  C   UNL     1      -7.204   3.749 126.442  0.00  0.00    +0.000 C 
ATOM     14  N   UNL     1      -8.353   2.847 126.547  0.00  0.00    +0.000 NA
ATOM     15  C   UNL     1      -8.445   2.026 125.338  0.00  0.00    +0.000 C 
ENDBRANCH  12  14
ENDBRANCH  11  12
ENDBRANCH   1  11
BRANCH   7  16
ATOM     16  C   UNL     1      -9.433  -3.104 124.807  0.00  0.00    +0.000 C 
BRANCH  16  17
ATOM     17  C   UNL     1      -8.363  -3.173 123.706  0.00  0.00    +0.000 C 
ATOM     18  C   UNL     1      -8.183  -1.895 122.890  0.00  0.00    +0.000 C 
ATOM     19  O   UNL     1      -6.757  -1.661 122.883  0.00  0.00    +0.000 OA
ATOM     20  C   UNL     1      -6.159  -2.497 123.782  0.00  0.00    +0.000 C 
ATOM     21  O   UNL     1      -5.018  -2.366 124.208  0.00  0.00    +0.000 OA
ATOM     22  N   UNL     1      -7.052  -3.425 124.226  0.00  0.00    +0.000 N 
ATOM     23  H   UNL     1      -6.856  -3.914 125.093  0.00  0.00    +0.000 HD
ENDBRANCH  16  17
ENDBRANCH   7  16
TORSDOF 5
ENDMDL
