MODEL 1
REMARK VINA RESULT:      -8.0      0.000      0.000
REMARK  Name = Zolpidem
REMARK  7 active torsions:
REMARK  status: ('A' for Active; 'I' for Inactive)
REMARK    1  A    between atoms: C_1  and  N_2
REMARK    2  A    between atoms: N_2  and  C_3
REMARK    3  A    between atoms: C_4  and  C_6
REMARK    4  A    between atoms: C_6  and  C_7
REMARK    5  A    between atoms: C_8  and  C_17
REMARK    6  A    between atoms: C_13  and  C_14
REMARK    7  A    between atoms: C_20  and  C_21
REMARK                            x       y       z     vdW  Elec       q    Type
REMARK                         _______ _______ _______ _____ _____    ______ ____
ROOT
ATOM      1  C   UNL     1      -7.489   0.991 124.223  0.00  0.00    +0.000 A 
ATOM      2  C   UNL     1      -7.668   2.337 123.938  0.00  0.00    +0.000 A 
ATOM      3  N   UNL     1      -7.908   3.058 125.084  0.00  0.00    +0.000 NA
ATOM      4  C   UNL     1      -7.918   2.176 126.061  0.00  0.00    +0.000 A 
ATOM      5  C   UNL     1      -8.156   2.327 127.459  0.00  0.00    +0.000 A 
ATOM      6  C   UNL     1      -8.032   1.271 128.285  0.00  0.00    +0.000 A 
ATOM      7  C   UNL     1      -7.656  -0.049 127.788  0.00  0.00    +0.000 A 
ATOM      8  C   UNL     1      -7.516  -1.171 128.772  0.00  0.00    +0.000 C 
ATOM      9  C   UNL     1      -7.462  -0.200 126.462  0.00  0.00    +0.000 A 
ATOM     10  N   UNL     1      -7.610   0.894 125.600  0.00  0.00    +0.000 N 
ENDROOT
BRANCH   2  11
ATOM     11  C   UNL     1      -7.549   2.941 122.617  0.00  0.00    +0.000 A 
ATOM     12  C   UNL     1      -8.704   3.203 121.884  0.00  0.00    +0.000 A 
ATOM     13  C   UNL     1      -8.615   3.720 120.587  0.00  0.00    +0.000 A 
ATOM     14  C   UNL     1      -7.377   4.086 120.046  0.00  0.00    +0.000 A 
ATOM     15  C   UNL     1      -7.251   4.550 118.628  0.00  0.00    +0.000 C 
ATOM     16  C   UNL     1      -6.233   3.946 120.823  0.00  0.00    +0.000 A 
ATOM     17  C   UNL     1      -6.316   3.299 122.053  0.00  0.00    +0.000 A 
ENDBRANCH   2  11
BRANCH   1  18
ATOM     18  C   UNL     1      -7.278  -0.155 123.286  0.00  0.00    +0.000 C 
BRANCH  18  22
ATOM     19  C   UNL     1      -9.539  -3.256 123.332  0.00  0.00    +0.000 C 
ATOM     20  N   UNL     1      -8.376  -2.398 123.501  0.00  0.00    +0.000 N 
ATOM     21  C   UNL     1      -7.148  -2.976 124.009  0.00  0.00    +0.000 C 
ATOM     22  C   UNL     1      -8.536  -1.039 123.268  0.00  0.00    +0.000 C 
ATOM     23  O   UNL     1      -9.659  -0.581 123.014  0.00  0.00    +0.000 OA
ENDBRANCH  18  22
ENDBRANCH   1  18
TORSDOF 3
ENDMDL
MODEL 2
REMARK VINA RESULT:      -7.8      6.225      8.796
REMARK  Name = Zolpidem
REMARK  7 active torsions:
REMARK  status: ('A' for Active; 'I' for Inactive)
REMARK    1  A    between atoms: C_1  and  N_2
REMARK    2  A    between atoms: N_2  and  C_3
REMARK    3  A    between atoms: C_4  and  C_6
REMARK    4  A    between atoms: C_6  and  C_7
REMARK    5  A    between atoms: C_8  and  C_17
REMARK    6  A    between atoms: C_13  and  C_14
REMARK    7  A    between atoms: C_20  and  C_21
REMARK                            x       y       z     vdW  Elec       q    Type
REMARK                         _______ _______ _______ _____ _____    ______ ____
ROOT
ATOM      1  C   UNL     1      -9.485   4.576 131.477  0.00  0.00    +0.000 A 
ATOM      2  C   UNL     1      -9.929   5.854 131.784  0.00  0.00    +0.000 A 
ATOM      3  N   UNL     1      -9.398   6.289 132.976  0.00  0.00    +0.000 NA
ATOM      4  C   UNL     1      -8.669   5.288 133.424  0.00  0.00    +0.000 A 
ATOM      5  C   UNL     1      -7.916   5.141 134.626  0.00  0.00    +0.000 A 
ATOM      6  C   UNL     1      -7.174   4.036 134.830  0.00  0.00    +0.000 A 
ATOM      7  C   UNL     1      -7.115   2.962 133.843  0.00  0.00    +0.000 A 
ATOM      8  C   UNL     1      -6.250   1.773 134.131  0.00  0.00    +0.000 C 
ATOM      9  C   UNL     1      -7.852   3.086 132.720  0.00  0.00    +0.000 A 
ATOM     10  N   UNL     1      -8.639   4.227 132.517  0.00  0.00    +0.000 N 
ENDROOT
BRANCH   2  11
ATOM     11  C   UNL     1     -10.784   6.675 130.937  0.00  0.00    +0.000 A 
ATOM     12  C   UNL     1     -12.136   6.794 131.251  0.00  0.00    +0.000 A 
ATOM     13  C   UNL     1     -12.992   7.521 130.416  0.00  0.00    +0.000 A 
ATOM     14  C   UNL     1     -12.492   8.230 129.319  0.00  0.00    +0.000 A 
ATOM     15  C   UNL     1     -13.402   8.934 128.362  0.00  0.00    +0.000 C 
ATOM     16  C   UNL     1     -11.122   8.220 129.076  0.00  0.00    +0.000 A 
ATOM     17  C   UNL     1     -10.302   7.380 129.825  0.00  0.00    +0.000 A 
ENDBRANCH   2  11
BRANCH   1  18
ATOM     18  C   UNL     1      -9.858   3.695 130.327  0.00  0.00    +0.000 C 
BRANCH  18  22
ATOM     19  C   UNL     1      -6.873   2.805 128.086  0.00  0.00    +0.000 C 
ATOM     20  N   UNL     1      -7.994   2.669 129.004  0.00  0.00    +0.000 N 
ATOM     21  C   UNL     1      -8.306   1.358 129.538  0.00  0.00    +0.000 C 
ATOM     22  C   UNL     1      -8.777   3.790 129.238  0.00  0.00    +0.000 C 
ATOM     23  O   UNL     1      -8.567   4.837 128.608  0.00  0.00    +0.000 OA
ENDBRANCH  18  22
ENDBRANCH   1  18
TORSDOF 3
ENDMDL
MODEL 3
REMARK VINA RESULT:      -7.6      8.085      9.668
REMARK  Name = Zolpidem
REMARK  7 active torsions:
REMARK  status: ('A' for Active; 'I' for Inactive)
REMARK    1  A    between atoms: C_1  and  N_2
REMARK    2  A    between atoms: N_2  and  C_3
REMARK    3  A    between atoms: C_4  and  C_6
REMARK    4  A    between atoms: C_6  and  C_7
REMARK    5  A    between atoms: C_8  and  C_17
REMARK    6  A    between atoms: C_13  and  C_14
REMARK    7  A    between atoms: C_20  and  C_21
REMARK                            x       y       z     vdW  Elec       q    Type
REMARK                         _______ _______ _______ _____ _____    ______ ____
ROOT
ATOM      1  C   UNL     1      -9.079   4.964 131.948  0.00  0.00    +0.000 A 
ATOM      2  C   UNL     1     -10.193   4.922 131.122  0.00  0.00    +0.000 A 
ATOM      3  N   UNL     1     -10.528   3.625 130.808  0.00  0.00    +0.000 NA
ATOM      4  C   UNL     1      -9.619   2.874 131.395  0.00  0.00    +0.000 A 
ATOM      5  C   UNL     1      -9.428   1.461 131.393  0.00  0.00    +0.000 A 
ATOM      6  C   UNL     1      -8.457   0.908 132.145  0.00  0.00    +0.000 A 
ATOM      7  C   UNL     1      -7.576   1.723 132.976  0.00  0.00    +0.000 A 
ATOM      8  C   UNL     1      -6.533   1.034 133.803  0.00  0.00    +0.000 C 
ATOM      9  C   UNL     1      -7.736   3.063 132.954  0.00  0.00    +0.000 A 
ATOM     10  N   UNL     1      -8.733   3.638 132.157  0.00  0.00    +0.000 N 
ENDROOT
BRANCH   2  11
ATOM     11  C   UNL     1     -10.966   6.079 130.690  0.00  0.00    +0.000 A 
ATOM     12  C   UNL     1     -10.723   6.627 129.433  0.00  0.00    +0.000 A 
ATOM     13  C   UNL     1     -11.403   7.778 129.022  0.00  0.00    +0.000 A 
ATOM     14  C   UNL     1     -12.414   8.334 129.814  0.00  0.00    +0.000 A 
ATOM     15  C   UNL     1     -13.086   9.618 129.436  0.00  0.00    +0.000 C 
ATOM     16  C   UNL     1     -12.750   7.715 131.013  0.00  0.00    +0.000 A 
ATOM     17  C   UNL     1     -11.971   6.659 131.478  0.00  0.00    +0.000 A 
ENDBRANCH   2  11
BRANCH   1  18
ATOM     18  C   UNL     1      -8.333   6.150 132.471  0.00  0.00    +0.000 C 
BRANCH  18  22
ATOM     19  C   UNL     1      -4.902   7.046 131.002  0.00  0.00    +0.000 C 
ATOM     20  N   UNL     1      -5.921   6.522 131.900  0.00  0.00    +0.000 N 
ATOM     21  C   UNL     1      -5.507   5.899 133.141  0.00  0.00    +0.000 C 
ATOM     22  C   UNL     1      -7.239   6.550 131.467  0.00  0.00    +0.000 C 
ATOM     23  O   UNL     1      -7.507   6.928 130.317  0.00  0.00    +0.000 OA
ENDBRANCH  18  22
ENDBRANCH   1  18
TORSDOF 3
ENDMDL
MODEL 4
REMARK VINA RESULT:      -7.4      6.784     10.166
REMARK  Name = Zolpidem
REMARK  7 active torsions:
REMARK  status: ('A' for Active; 'I' for Inactive)
REMARK    1  A    between atoms: C_1  and  N_2
REMARK    2  A    between atoms: N_2  and  C_3
REMARK    3  A    between atoms: C_4  and  C_6
REMARK    4  A    between atoms: C_6  and  C_7
REMARK    5  A    between atoms: C_8  and  C_17
REMARK    6  A    between atoms: C_13  and  C_14
REMARK    7  A    between atoms: C_20  and  C_21
REMARK                            x       y       z     vdW  Elec       q    Type
REMARK                         _______ _______ _______ _____ _____    ______ ____
ROOT
ATOM      1  C   UNL     1      -9.699   5.680 130.667  0.00  0.00    +0.000 A 
ATOM      2  C   UNL     1      -9.627   5.795 132.048  0.00  0.00    +0.000 A 
ATOM      3  N   UNL     1     -10.749   6.412 132.552  0.00  0.00    +0.000 NA
ATOM      4  C   UNL     1     -11.488   6.710 131.504  0.00  0.00    +0.000 A 
ATOM      5  C   UNL     1     -12.738   7.390 131.401  0.00  0.00    +0.000 A 
ATOM      6  C   UNL     1     -13.348   7.507 130.206  0.00  0.00    +0.000 A 
ATOM      7  C   UNL     1     -12.761   6.954 128.990  0.00  0.00    +0.000 A 
ATOM      8  C   UNL     1     -13.511   7.107 127.701  0.00  0.00    +0.000 C 
ATOM      9  C   UNL     1     -11.563   6.340 129.081  0.00  0.00    +0.000 A 
ATOM     10  N   UNL     1     -10.920   6.234 130.321  0.00  0.00    +0.000 N 
ENDROOT
BRANCH   2  11
ATOM     11  C   UNL     1      -8.552   5.275 132.883  0.00  0.00    +0.000 A 
ATOM     12  C   UNL     1      -8.708   4.034 133.496  0.00  0.00    +0.000 A 
ATOM     13  C   UNL     1      -7.721   3.543 134.356  0.00  0.00    +0.000 A 
ATOM     14  C   UNL     1      -6.516   4.232 134.531  0.00  0.00    +0.000 A 
ATOM     15  C   UNL     1      -5.489   3.772 135.519  0.00  0.00    +0.000 C 
ATOM     16  C   UNL     1      -6.302   5.409 133.821  0.00  0.00    +0.000 A 
ATOM     17  C   UNL     1      -7.345   5.960 133.082  0.00  0.00    +0.000 A 
ENDBRANCH   2  11
BRANCH   1  18
ATOM     18  C   UNL     1      -8.682   5.145 129.709  0.00  0.00    +0.000 C 
BRANCH  18  22
ATOM     19  C   UNL     1      -7.666   1.445 129.720  0.00  0.00    +0.000 C 
ATOM     20  N   UNL     1      -7.614   2.887 129.909  0.00  0.00    +0.000 N 
ATOM     21  C   UNL     1      -6.405   3.481 130.441  0.00  0.00    +0.000 C 
ATOM     22  C   UNL     1      -8.774   3.611 129.669  0.00  0.00    +0.000 C 
ATOM     23  O   UNL     1      -9.829   3.021 129.393  0.00  0.00    +0.000 OA
ENDBRANCH  18  22
ENDBRANCH   1  18
TORSDOF 3
ENDMDL
MODEL 5
REMARK VINA RESULT:      -7.3      4.389      9.237
REMARK  Name = Zolpidem
REMARK  7 active torsions:
REMARK  status: ('A' for Active; 'I' for Inactive)
REMARK    1  A    between atoms: C_1  and  N_2
REMARK    2  A    between atoms: N_2  and  C_3
REMARK    3  A    between atoms: C_4  and  C_6
REMARK    4  A    between atoms: C_6  and  C_7
REMARK    5  A    between atoms: C_8  and  C_17
REMARK    6  A    between atoms: C_13  and  C_14
REMARK    7  A    between atoms: C_20  and  C_21
REMARK                            x       y       z     vdW  Elec       q    Type
REMARK                         _______ _______ _______ _____ _____    ______ ____
ROOT
ATOM      1  C   UNL     1      -6.447  -2.520 127.963  0.00  0.00    +0.000 A 
ATOM      2  C   UNL     1      -7.225  -3.208 128.882  0.00  0.00    +0.000 A 
ATOM      3  N   UNL     1      -8.425  -3.589 128.329  0.00  0.00    +0.000 NA
ATOM      4  C   UNL     1      -8.414  -3.114 127.100  0.00  0.00    +0.000 A 
ATOM      5  C   UNL     1      -9.398  -3.159 126.069  0.00  0.00    +0.000 A 
ATOM      6  C   UNL     1      -9.121  -2.663 124.848  0.00  0.00    +0.000 A 
ATOM      7  C   UNL     1      -7.824  -2.068 124.540  0.00  0.00    +0.000 A 
ATOM      8  C   UNL     1      -7.583  -1.557 123.151  0.00  0.00    +0.000 C 
ATOM      9  C   UNL     1      -6.905  -1.996 125.524  0.00  0.00    +0.000 A 
ATOM     10  N   UNL     1      -7.199  -2.495 126.799  0.00  0.00    +0.000 N 
ENDROOT
BRANCH   2  11
ATOM     11  C   UNL     1      -6.817  -3.559 130.236  0.00  0.00    +0.000 A 
ATOM     12  C   UNL     1      -5.871  -4.564 130.422  0.00  0.00    +0.000 A 
ATOM     13  C   UNL     1      -5.513  -4.966 131.713  0.00  0.00    +0.000 A 
ATOM     14  C   UNL     1      -6.011  -4.296 132.836  0.00  0.00    +0.000 A 
ATOM     15  C   UNL     1      -5.716  -4.772 134.225  0.00  0.00    +0.000 C 
ATOM     16  C   UNL     1      -6.858  -3.208 132.653  0.00  0.00    +0.000 A 
ATOM     17  C   UNL     1      -7.319  -2.909 131.374  0.00  0.00    +0.000 A 
ENDBRANCH   2  11
BRANCH   1  18
ATOM     18  C   UNL     1      -5.115  -1.867 128.151  0.00  0.00    +0.000 C 
BRANCH  18  22
ATOM     19  C   UNL     1      -5.063   0.765 130.944  0.00  0.00    +0.000 C 
ATOM     20  N   UNL     1      -4.759  -0.433 130.176  0.00  0.00    +0.000 N 
ATOM     21  C   UNL     1      -3.827  -1.398 130.723  0.00  0.00    +0.000 C 
ATOM     22  C   UNL     1      -5.298  -0.537 128.901  0.00  0.00    +0.000 C 
ATOM     23  O   UNL     1      -5.938   0.408 128.418  0.00  0.00    +0.000 OA
ENDBRANCH  18  22
ENDBRANCH   1  18
TORSDOF 3
ENDMDL
MODEL 6
REMARK VINA RESULT:      -7.2      3.445      6.009
REMARK  Name = Zolpidem
REMARK  7 active torsions:
REMARK  status: ('A' for Active; 'I' for Inactive)
REMARK    1  A    between atoms: C_1  and  N_2
REMARK    2  A    between atoms: N_2  and  C_3
REMARK    3  A    between atoms: C_4  and  C_6
REMARK    4  A    between atoms: C_6  and  C_7
REMARK    5  A    between atoms: C_8  and  C_17
REMARK    6  A    between atoms: C_13  and  C_14
REMARK    7  A    between atoms: C_20  and  C_21
REMARK                            x       y       z     vdW  Elec       q    Type
REMARK                         _______ _______ _______ _____ _____    ______ ____
ROOT
ATOM      1  C   UNL     1      -6.282   1.866 125.164  0.00  0.00    +0.000 A 
ATOM      2  C   UNL     1      -5.228   1.765 126.060  0.00  0.00    +0.000 A 
ATOM      3  N   UNL     1      -4.881   0.451 126.271  0.00  0.00    +0.000 NA
ATOM      4  C   UNL     1      -5.727  -0.257 125.551  0.00  0.00    +0.000 A 
ATOM      5  C   UNL     1      -5.880  -1.667 125.403  0.00  0.00    +0.000 A 
ATOM      6  C   UNL     1      -6.781  -2.162 124.533  0.00  0.00    +0.000 A 
ATOM      7  C   UNL     1      -7.623  -1.287 123.723  0.00  0.00    +0.000 A 
ATOM      8  C   UNL     1      -8.587  -1.913 122.760  0.00  0.00    +0.000 C 
ATOM      9  C   UNL     1      -7.500   0.046 123.885  0.00  0.00    +0.000 A 
ATOM     10  N   UNL     1      -6.577   0.561 124.804  0.00  0.00    +0.000 N 
ENDROOT
BRANCH   2  11
ATOM     11  C   UNL     1      -4.517   2.889 126.655  0.00  0.00    +0.000 A 
ATOM     12  C   UNL     1      -3.135   2.977 126.502  0.00  0.00    +0.000 A 
ATOM     13  C   UNL     1      -2.421   4.008 127.121  0.00  0.00    +0.000 A 
ATOM     14  C   UNL     1      -3.087   5.028 127.810  0.00  0.00    +0.000 A 
ATOM     15  C   UNL     1      -2.337   6.086 128.558  0.00  0.00    +0.000 C 
ATOM     16  C   UNL     1      -4.477   5.015 127.856  0.00  0.00    +0.000 A 
ATOM     17  C   UNL     1      -5.167   3.911 127.362  0.00  0.00    +0.000 A 
ENDBRANCH   2  11
BRANCH   1  18
ATOM     18  C   UNL     1      -7.020   3.083 124.705  0.00  0.00    +0.000 C 
BRANCH  18  22
ATOM     19  C   UNL     1      -6.441   3.788 120.977  0.00  0.00    +0.000 C 
ATOM     20  N   UNL     1      -7.102   3.436 122.225  0.00  0.00    +0.000 N 
ATOM     21  C   UNL     1      -8.496   3.041 122.191  0.00  0.00    +0.000 C 
ATOM     22  C   UNL     1      -6.389   3.604 123.404  0.00  0.00    +0.000 C 
ATOM     23  O   UNL     1      -5.262   4.121 123.379  0.00  0.00    +0.000 OA
ENDBRANCH  18  22
ENDBRANCH   1  18
TORSDOF 3
ENDMDL
MODEL 7
REMARK VINA RESULT:      -7.0      1.579      2.292
REMARK  Name = Zolpidem
REMARK  7 active torsions:
REMARK  status: ('A' for Active; 'I' for Inactive)
REMARK    1  A    between atoms: C_1  and  N_2
REMARK    2  A    between atoms: N_2  and  C_3
REMARK    3  A    between atoms: C_4  and  C_6
REMARK    4  A    between atoms: C_6  and  C_7
REMARK    5  A    between atoms: C_8  and  C_17
REMARK    6  A    between atoms: C_13  and  C_14
REMARK    7  A    between atoms: C_20  and  C_21
REMARK                            x       y       z     vdW  Elec       q    Type
REMARK                         _______ _______ _______ _____ _____    ______ ____
ROOT
ATOM      1  C   UNL     1      -7.587   1.007 126.646  0.00  0.00    +0.000 A 
ATOM      2  C   UNL     1      -7.808   2.279 126.138  0.00  0.00    +0.000 A 
ATOM      3  N   UNL     1      -8.263   3.130 127.119  0.00  0.00    +0.000 NA
ATOM      4  C   UNL     1      -8.361   2.396 128.207  0.00  0.00    +0.000 A 
ATOM      5  C   UNL     1      -8.814   2.720 129.519  0.00  0.00    +0.000 A 
ATOM      6  C   UNL     1      -8.746   1.804 130.505  0.00  0.00    +0.000 A 
ATOM      7  C   UNL     1      -8.215   0.465 130.269  0.00  0.00    +0.000 A 
ATOM      8  C   UNL     1      -8.151  -0.492 131.421  0.00  0.00    +0.000 C 
ATOM      9  C   UNL     1      -7.817   0.147 129.020  0.00  0.00    +0.000 A 
ATOM     10  N   UNL     1      -7.905   1.093 127.991  0.00  0.00    +0.000 N 
ENDROOT
BRANCH   2  11
ATOM     11  C   UNL     1      -7.533   2.701 124.771  0.00  0.00    +0.000 A 
ATOM     12  C   UNL     1      -8.570   2.706 123.841  0.00  0.00    +0.000 A 
ATOM     13  C   UNL     1      -8.318   3.042 122.506  0.00  0.00    +0.000 A 
ATOM     14  C   UNL     1      -7.053   3.483 122.105  0.00  0.00    +0.000 A 
ATOM     15  C   UNL     1      -6.740   3.755 120.666  0.00  0.00    +0.000 C 
ATOM     16  C   UNL     1      -6.046   3.603 123.057  0.00  0.00    +0.000 A 
ATOM     17  C   UNL     1      -6.267   3.131 124.348  0.00  0.00    +0.000 A 
ENDBRANCH   2  11
BRANCH   1  18
ATOM     18  C   UNL     1      -7.164  -0.237 125.930  0.00  0.00    +0.000 C 
BRANCH  18  22
ATOM     19  C   UNL     1      -9.256  -1.191 122.857  0.00  0.00    +0.000 C 
ATOM     20  N   UNL     1      -8.114  -0.856 123.695  0.00  0.00    +0.000 N 
ATOM     21  C   UNL     1      -6.802  -0.766 123.087  0.00  0.00    +0.000 C 
ATOM     22  C   UNL     1      -8.326  -0.747 125.062  0.00  0.00    +0.000 C 
ATOM     23  O   UNL     1      -9.437  -1.018 125.541  0.00  0.00    +0.000 OA
ENDBRANCH  18  22
ENDBRANCH   1  18
TORSDOF 3
ENDMDL
MODEL 8
REMARK VINA RESULT:      -6.9      2.111      3.560
REMARK  Name = Zolpidem
REMARK  7 active torsions:
REMARK  status: ('A' for Active; 'I' for Inactive)
REMARK    1  A    between atoms: C_1  and  N_2
REMARK    2  A    between atoms: N_2  and  C_3
REMARK    3  A    between atoms: C_4  and  C_6
REMARK    4  A    between atoms: C_6  and  C_7
REMARK    5  A    between atoms: C_8  and  C_17
REMARK    6  A    between atoms: C_13  and  C_14
REMARK    7  A    between atoms: C_20  and  C_21
REMARK                            x       y       z     vdW  Elec       q    Type
REMARK                         _______ _______ _______ _____ _____    ______ ____
ROOT
ATOM      1  C   UNL     1      -7.092  -1.335 126.752  0.00  0.00    +0.000 A 
ATOM      2  C   UNL     1      -7.691  -0.083 126.765  0.00  0.00    +0.000 A 
ATOM      3  N   UNL     1      -8.000   0.304 128.048  0.00  0.00    +0.000 NA
ATOM      4  C   UNL     1      -7.638  -0.701 128.818  0.00  0.00    +0.000 A 
ATOM      5  C   UNL     1      -7.749  -0.891 130.226  0.00  0.00    +0.000 A 
ATOM      6  C   UNL     1      -7.225  -1.989 130.805  0.00  0.00    +0.000 A 
ATOM      7  C   UNL     1      -6.537  -3.011 130.022  0.00  0.00    +0.000 A 
ATOM      8  C   UNL     1      -5.961  -4.195 130.741  0.00  0.00    +0.000 C 
ATOM      9  C   UNL     1      -6.460  -2.848 128.686  0.00  0.00    +0.000 A 
ATOM     10  N   UNL     1      -7.021  -1.716 128.082  0.00  0.00    +0.000 N 
ENDROOT
BRANCH   2  11
ATOM     11  C   UNL     1      -7.907   0.760 125.597  0.00  0.00    +0.000 A 
ATOM     12  C   UNL     1      -9.209   0.990 125.157  0.00  0.00    +0.000 A 
ATOM     13  C   UNL     1      -9.440   1.740 123.999  0.00  0.00    +0.000 A 
ATOM     14  C   UNL     1      -8.383   2.363 123.326  0.00  0.00    +0.000 A 
ATOM     15  C   UNL     1      -8.599   3.088 122.034  0.00  0.00    +0.000 C 
ATOM     16  C   UNL     1      -7.095   2.243 123.835  0.00  0.00    +0.000 A 
ATOM     17  C   UNL     1      -6.859   1.379 124.901  0.00  0.00    +0.000 A 
ENDBRANCH   2  11
BRANCH   1  18
ATOM     18  C   UNL     1      -6.662  -2.165 125.585  0.00  0.00    +0.000 C 
BRANCH  18  22
ATOM     19  C   UNL     1      -9.586  -3.276 123.362  0.00  0.00    +0.000 C 
ATOM     20  N   UNL     1      -8.357  -2.630 123.799  0.00  0.00    +0.000 N 
ATOM     21  C   UNL     1      -7.652  -1.767 122.873  0.00  0.00    +0.000 C 
ATOM     22  C   UNL     1      -7.864  -2.962 125.053  0.00  0.00    +0.000 C 
ATOM     23  O   UNL     1      -8.416  -3.848 125.723  0.00  0.00    +0.000 OA
ENDBRANCH  18  22
ENDBRANCH   1  18
TORSDOF 3
ENDMDL
MODEL 9
REMARK VINA RESULT:      -6.8      2.405      4.784
REMARK  Name = Zolpidem
REMARK  7 active torsions:
REMARK  status: ('A' for Active; 'I' for Inactive)
REMARK    1  A    between atoms: C_1  and  N_2
REMARK    2  A    between atoms: N_2  and  C_3
REMARK    3  A    between atoms: C_4  and  C_6
REMARK    4  A    between atoms: C_6  and  C_7
REMARK    5  A    between atoms: C_8  and  C_17
REMARK    6  A    between atoms: C_13  and  C_14
REMARK    7  A    between atoms: C_20  and  C_21
REMARK                            x       y       z     vdW  Elec       q    Type
REMARK                         _______ _______ _______ _____ _____    ______ ____
ROOT
ATOM      1  C   UNL     1      -7.546   0.013 127.038  0.00  0.00    +0.000 A 
ATOM      2  C   UNL     1      -8.074  -0.234 125.779  0.00  0.00    +0.000 A 
ATOM      3  N   UNL     1      -8.582  -1.510 125.697  0.00  0.00    +0.000 NA
ATOM      4  C   UNL     1      -8.342  -2.061 126.869  0.00  0.00    +0.000 A 
ATOM      5  C   UNL     1      -8.603  -3.375 127.357  0.00  0.00    +0.000 A 
ATOM      6  C   UNL     1      -8.333  -3.687 128.639  0.00  0.00    +0.000 A 
ATOM      7  C   UNL     1      -7.771  -2.706 129.562  0.00  0.00    +0.000 A 
ATOM      8  C   UNL     1      -7.519  -3.121 130.981  0.00  0.00    +0.000 C 
ATOM      9  C   UNL     1      -7.494  -1.472 129.093  0.00  0.00    +0.000 A 
ATOM     10  N   UNL     1      -7.757  -1.154 127.754  0.00  0.00    +0.000 N 
ENDROOT
BRANCH   2  11
ATOM     11  C   UNL     1      -8.157   0.736 124.695  0.00  0.00    +0.000 A 
ATOM     12  C   UNL     1      -9.385   1.327 124.406  0.00  0.00    +0.000 A 
ATOM     13  C   UNL     1      -9.506   2.209 123.327  0.00  0.00    +0.000 A 
ATOM     14  C   UNL     1      -8.382   2.599 122.590  0.00  0.00    +0.000 A 
ATOM     15  C   UNL     1      -8.506   3.465 121.375  0.00  0.00    +0.000 C 
ATOM     16  C   UNL     1      -7.132   2.110 122.955  0.00  0.00    +0.000 A 
ATOM     17  C   UNL     1      -7.044   1.125 123.935  0.00  0.00    +0.000 A 
ENDBRANCH   2  11
BRANCH   1  18
ATOM     18  C   UNL     1      -6.835   1.228 127.544  0.00  0.00    +0.000 C 
BRANCH  18  22
ATOM     19  C   UNL     1      -8.659   3.049 130.387  0.00  0.00    +0.000 C 
ATOM     20  N   UNL     1      -7.633   2.324 129.651  0.00  0.00    +0.000 N 
ATOM     21  C   UNL     1      -6.416   1.944 130.338  0.00  0.00    +0.000 C 
ATOM     22  C   UNL     1      -7.831   2.129 128.291  0.00  0.00    +0.000 C 
ATOM     23  O   UNL     1      -8.808   2.641 127.726  0.00  0.00    +0.000 OA
ENDBRANCH  18  22
ENDBRANCH   1  18
TORSDOF 3
ENDMDL
