MODEL 1
REMARK VINA RESULT:      -6.9      0.000      0.000
REMARK  Name = Zonisamide
REMARK  3 active torsions:
REMARK  status: ('A' for Active; 'I' for Inactive)
REMARK    1  A    between atoms: N_1  and  S_2
REMARK    2  A    between atoms: S_2  and  C_5
REMARK    3  A    between atoms: C_5  and  C_6
REMARK                            x       y       z     vdW  Elec       q    Type
REMARK                         _______ _______ _______ _____ _____    ______ ____
ROOT
ATOM      1  C   UNL     1     -11.340   7.831 129.175  0.00  0.00    +0.000 A 
ATOM      2  N   UNL     1     -12.625   7.614 129.492  0.00  0.00    +0.000 NA
ATOM      3  O   UNL     1     -12.603   6.958 130.717  0.00  0.00    +0.000 OA
ATOM      4  C   UNL     1     -11.314   6.753 131.101  0.00  0.00    +0.000 A 
ATOM      5  C   UNL     1     -10.885   6.119 132.264  0.00  0.00    +0.000 A 
ATOM      6  C   UNL     1      -9.499   6.017 132.434  0.00  0.00    +0.000 A 
ATOM      7  C   UNL     1      -8.611   6.522 131.478  0.00  0.00    +0.000 A 
ATOM      8  C   UNL     1      -9.079   7.160 130.322  0.00  0.00    +0.000 A 
ATOM      9  C   UNL     1     -10.466   7.275 130.142  0.00  0.00    +0.000 A 
ENDROOT
BRANCH   1  10
ATOM     10  C   UNL     1     -10.969   8.564 127.940  0.00  0.00    +0.000 C 
BRANCH  10  11
ATOM     11  S   UNL     1     -10.835   7.414 126.558  0.00  0.00    +0.000 S 
ATOM     12  O   UNL     1      -9.858   6.390 126.863  0.00  0.00    +0.000 OA
ATOM     13  O   UNL     1     -10.836   8.121 125.301  0.00  0.00    +0.000 OA
BRANCH  11  14
ATOM     14  N   UNL     1     -12.325   6.615 126.574  0.00  0.00    +0.000 NA
ATOM     15  H   UNL     1     -12.932   7.097 125.901  0.00  0.00    +0.000 HD
ATOM     16  H   UNL     1     -12.762   6.647 127.496  0.00  0.00    +0.000 HD
ENDBRANCH  11  14
ENDBRANCH  10  11
ENDBRANCH   1  10
TORSDOF 3
ENDMDL
MODEL 2
REMARK VINA RESULT:      -6.2      2.905      4.130
REMARK  Name = Zonisamide
REMARK  3 active torsions:
REMARK  status: ('A' for Active; 'I' for Inactive)
REMARK    1  A    between atoms: N_1  and  S_2
REMARK    2  A    between atoms: S_2  and  C_5
REMARK    3  A    between atoms: C_5  and  C_6
REMARK                            x       y       z     vdW  Elec       q    Type
REMARK                         _______ _______ _______ _____ _____    ______ ____
ROOT
ATOM      1  C   UNL     1     -10.909   6.259 131.271  0.00  0.00    +0.000 A 
ATOM      2  N   UNL     1     -12.001   6.252 132.051  0.00  0.00    +0.000 NA
ATOM      3  O   UNL     1     -12.911   7.097 131.429  0.00  0.00    +0.000 OA
ATOM      4  C   UNL     1     -12.348   7.631 130.312  0.00  0.00    +0.000 A 
ATOM      5  C   UNL     1     -12.943   8.529 129.429  0.00  0.00    +0.000 A 
ATOM      6  C   UNL     1     -12.153   8.947 128.351  0.00  0.00    +0.000 A 
ATOM      7  C   UNL     1     -10.843   8.485 128.189  0.00  0.00    +0.000 A 
ATOM      8  C   UNL     1     -10.279   7.576 129.093  0.00  0.00    +0.000 A 
ATOM      9  C   UNL     1     -11.061   7.143 130.175  0.00  0.00    +0.000 A 
ENDROOT
BRANCH   1  10
ATOM     10  C   UNL     1      -9.729   5.422 131.598  0.00  0.00    +0.000 C 
BRANCH  10  11
ATOM     11  S   UNL     1      -9.746   3.918 130.603  0.00  0.00    +0.000 S 
ATOM     12  O   UNL     1      -9.283   2.798 131.396  0.00  0.00    +0.000 OA
ATOM     13  O   UNL     1      -9.244   4.175 129.276  0.00  0.00    +0.000 OA
BRANCH  11  14
ATOM     14  N   UNL     1     -11.394   3.631 130.364  0.00  0.00    +0.000 NA
ATOM     15  H   UNL     1     -11.585   3.785 129.366  0.00  0.00    +0.000 HD
ATOM     16  H   UNL     1     -11.974   4.268 130.913  0.00  0.00    +0.000 HD
ENDBRANCH  11  14
ENDBRANCH  10  11
ENDBRANCH   1  10
TORSDOF 3
ENDMDL
MODEL 3
REMARK VINA RESULT:      -6.2      3.105      4.779
REMARK  Name = Zonisamide
REMARK  3 active torsions:
REMARK  status: ('A' for Active; 'I' for Inactive)
REMARK    1  A    between atoms: N_1  and  S_2
REMARK    2  A    between atoms: S_2  and  C_5
REMARK    3  A    between atoms: C_5  and  C_6
REMARK                            x       y       z     vdW  Elec       q    Type
REMARK                         _______ _______ _______ _____ _____    ______ ____
ROOT
ATOM      1  C   UNL     1      -9.783   5.877 129.440  0.00  0.00    +0.000 A 
ATOM      2  N   UNL     1      -9.236   5.709 128.228  0.00  0.00    +0.000 NA
ATOM      3  O   UNL     1      -9.859   6.636 127.402  0.00  0.00    +0.000 OA
ATOM      4  C   UNL     1     -10.797   7.320 128.112  0.00  0.00    +0.000 A 
ATOM      5  C   UNL     1     -11.634   8.324 127.632  0.00  0.00    +0.000 A 
ATOM      6  C   UNL     1     -12.530   8.873 128.557  0.00  0.00    +0.000 A 
ATOM      7  C   UNL     1     -12.573   8.424 129.881  0.00  0.00    +0.000 A 
ATOM      8  C   UNL     1     -11.711   7.416 130.331  0.00  0.00    +0.000 A 
ATOM      9  C   UNL     1     -10.803   6.861 129.416  0.00  0.00    +0.000 A 
ENDROOT
BRANCH   1  10
ATOM     10  C   UNL     1      -9.324   5.082 130.605  0.00  0.00    +0.000 C 
BRANCH  10  11
ATOM     11  S   UNL     1     -10.053   3.434 130.553  0.00  0.00    +0.000 S 
ATOM     12  O   UNL     1     -11.446   3.524 130.168  0.00  0.00    +0.000 OA
ATOM     13  O   UNL     1      -9.620   2.646 131.680  0.00  0.00    +0.000 OA
BRANCH  11  14
ATOM     14  N   UNL     1      -9.282   2.712 129.233  0.00  0.00    +0.000 NA
ATOM     15  H   UNL     1      -9.429   3.328 128.425  0.00  0.00    +0.000 HD
ATOM     16  H   UNL     1      -9.671   1.792 129.023  0.00  0.00    +0.000 HD
ENDBRANCH  11  14
ENDBRANCH  10  11
ENDBRANCH   1  10
TORSDOF 3
ENDMDL
MODEL 4
REMARK VINA RESULT:      -6.0      3.322      5.129
REMARK  Name = Zonisamide
REMARK  3 active torsions:
REMARK  status: ('A' for Active; 'I' for Inactive)
REMARK    1  A    between atoms: N_1  and  S_2
REMARK    2  A    between atoms: S_2  and  C_5
REMARK    3  A    between atoms: C_5  and  C_6
REMARK                            x       y       z     vdW  Elec       q    Type
REMARK                         _______ _______ _______ _____ _____    ______ ____
ROOT
ATOM      1  C   UNL     1     -10.380   5.479 129.968  0.00  0.00    +0.000 A 
ATOM      2  N   UNL     1      -9.510   5.288 128.965  0.00  0.00    +0.000 NA
ATOM      3  O   UNL     1      -9.687   6.363 128.104  0.00  0.00    +0.000 OA
ATOM      4  C   UNL     1     -10.682   7.164 128.574  0.00  0.00    +0.000 A 
ATOM      5  C   UNL     1     -11.157   8.332 127.984  0.00  0.00    +0.000 A 
ATOM      6  C   UNL     1     -12.203   8.979 128.654  0.00  0.00    +0.000 A 
ATOM      7  C   UNL     1     -12.732   8.464 129.842  0.00  0.00    +0.000 A 
ATOM      8  C   UNL     1     -12.225   7.289 130.410  0.00  0.00    +0.000 A 
ATOM      9  C   UNL     1     -11.173   6.634 129.753  0.00  0.00    +0.000 A 
ENDROOT
BRANCH   1  10
ATOM     10  C   UNL     1     -10.444   4.542 131.116  0.00  0.00    +0.000 C 
BRANCH  10  11
ATOM     11  S   UNL     1      -9.372   5.121 132.445  0.00  0.00    +0.000 S 
ATOM     12  O   UNL     1      -9.772   6.450 132.856  0.00  0.00    +0.000 OA
ATOM     13  O   UNL     1      -7.996   4.784 132.178  0.00  0.00    +0.000 OA
BRANCH  11  14
ATOM     14  N   UNL     1      -9.789   4.119 133.741  0.00  0.00    +0.000 NA
ATOM     15  H   UNL     1      -9.394   3.192 133.544  0.00  0.00    +0.000 HD
ATOM     16  H   UNL     1     -10.801   4.033 133.844  0.00  0.00    +0.000 HD
ENDBRANCH  11  14
ENDBRANCH  10  11
ENDBRANCH   1  10
TORSDOF 3
ENDMDL
MODEL 5
REMARK VINA RESULT:      -5.9      9.117      9.633
REMARK  Name = Zonisamide
REMARK  3 active torsions:
REMARK  status: ('A' for Active; 'I' for Inactive)
REMARK    1  A    between atoms: N_1  and  S_2
REMARK    2  A    between atoms: S_2  and  C_5
REMARK    3  A    between atoms: C_5  and  C_6
REMARK                            x       y       z     vdW  Elec       q    Type
REMARK                         _______ _______ _______ _____ _____    ______ ____
ROOT
ATOM      1  C   UNL     1      -8.741  -1.254 124.602  0.00  0.00    +0.000 A 
ATOM      2  N   UNL     1      -9.495  -2.155 123.955  0.00  0.00    +0.000 NA
ATOM      3  O   UNL     1      -9.748  -3.164 124.876  0.00  0.00    +0.000 OA
ATOM      4  C   UNL     1      -9.114  -2.881 126.046  0.00  0.00    +0.000 A 
ATOM      5  C   UNL     1      -9.121  -3.656 127.203  0.00  0.00    +0.000 A 
ATOM      6  C   UNL     1      -8.379  -3.159 128.282  0.00  0.00    +0.000 A 
ATOM      7  C   UNL     1      -7.674  -1.954 128.184  0.00  0.00    +0.000 A 
ATOM      8  C   UNL     1      -7.696  -1.198 127.006  0.00  0.00    +0.000 A 
ATOM      9  C   UNL     1      -8.440  -1.681 125.919  0.00  0.00    +0.000 A 
ENDROOT
BRANCH   1  10
ATOM     10  C   UNL     1      -8.312   0.002 123.940  0.00  0.00    +0.000 C 
BRANCH  10  11
ATOM     11  S   UNL     1      -9.739   1.061 123.641  0.00  0.00    +0.000 S 
ATOM     12  O   UNL     1      -9.307   2.320 123.071  0.00  0.00    +0.000 OA
ATOM     13  O   UNL     1     -10.665   0.998 124.744  0.00  0.00    +0.000 OA
BRANCH  11  14
ATOM     14  N   UNL     1     -10.551   0.270 122.386  0.00  0.00    +0.000 NA
ATOM     15  H   UNL     1     -10.974   0.997 121.797  0.00  0.00    +0.000 HD
ATOM     16  H   UNL     1     -11.288  -0.342 122.738  0.00  0.00    +0.000 HD
ENDBRANCH  11  14
ENDBRANCH  10  11
ENDBRANCH   1  10
TORSDOF 3
ENDMDL
MODEL 6
REMARK VINA RESULT:      -5.8      3.419      4.797
REMARK  Name = Zonisamide
REMARK  3 active torsions:
REMARK  status: ('A' for Active; 'I' for Inactive)
REMARK    1  A    between atoms: N_1  and  S_2
REMARK    2  A    between atoms: S_2  and  C_5
REMARK    3  A    between atoms: C_5  and  C_6
REMARK                            x       y       z     vdW  Elec       q    Type
REMARK                         _______ _______ _______ _____ _____    ______ ____
ROOT
ATOM      1  C   UNL     1      -9.629   5.964 129.403  0.00  0.00    +0.000 A 
ATOM      2  N   UNL     1      -9.154   5.697 128.177  0.00  0.00    +0.000 NA
ATOM      3  O   UNL     1      -9.872   6.511 127.311  0.00  0.00    +0.000 OA
ATOM      4  C   UNL     1     -10.794   7.224 128.014  0.00  0.00    +0.000 A 
ATOM      5  C   UNL     1     -11.707   8.140 127.498  0.00  0.00    +0.000 A 
ATOM      6  C   UNL     1     -12.567   8.741 128.425  0.00  0.00    +0.000 A 
ATOM      7  C   UNL     1     -12.503   8.425 129.786  0.00  0.00    +0.000 A 
ATOM      8  C   UNL     1     -11.566   7.503 130.271  0.00  0.00    +0.000 A 
ATOM      9  C   UNL     1     -10.694   6.897 129.354  0.00  0.00    +0.000 A 
ENDROOT
BRANCH   1  10
ATOM     10  C   UNL     1      -9.059   5.308 130.605  0.00  0.00    +0.000 C 
BRANCH  10  11
ATOM     11  S   UNL     1      -7.416   5.967 130.946  0.00  0.00    +0.000 S 
ATOM     12  O   UNL     1      -6.907   5.404 132.179  0.00  0.00    +0.000 OA
ATOM     13  O   UNL     1      -7.362   7.381 130.670  0.00  0.00    +0.000 OA
BRANCH  11  14
ATOM     14  N   UNL     1      -6.464   5.281 129.728  0.00  0.00    +0.000 NA
ATOM     15  H   UNL     1      -5.690   4.791 130.192  0.00  0.00    +0.000 HD
ATOM     16  H   UNL     1      -6.080   5.990 129.102  0.00  0.00    +0.000 HD
ENDBRANCH  11  14
ENDBRANCH  10  11
ENDBRANCH   1  10
TORSDOF 3
ENDMDL
MODEL 7
REMARK VINA RESULT:      -5.8      8.106      9.769
REMARK  Name = Zonisamide
REMARK  3 active torsions:
REMARK  status: ('A' for Active; 'I' for Inactive)
REMARK    1  A    between atoms: N_1  and  S_2
REMARK    2  A    between atoms: S_2  and  C_5
REMARK    3  A    between atoms: C_5  and  C_6
REMARK                            x       y       z     vdW  Elec       q    Type
REMARK                         _______ _______ _______ _____ _____    ______ ____
ROOT
ATOM      1  C   UNL     1      -7.544   3.199 122.461  0.00  0.00    +0.000 A 
ATOM      2  N   UNL     1      -8.836   2.986 122.172  0.00  0.00    +0.000 NA
ATOM      3  O   UNL     1      -9.008   3.429 120.867  0.00  0.00    +0.000 OA
ATOM      4  C   UNL     1      -7.835   3.937 120.401  0.00  0.00    +0.000 A 
ATOM      5  C   UNL     1      -7.610   4.485 119.141  0.00  0.00    +0.000 A 
ATOM      6  C   UNL     1      -6.314   4.957 118.897  0.00  0.00    +0.000 A 
ATOM      7  C   UNL     1      -5.318   4.879 119.876  0.00  0.00    +0.000 A 
ATOM      8  C   UNL     1      -5.579   4.315 121.130  0.00  0.00    +0.000 A 
ATOM      9  C   UNL     1      -6.871   3.833 121.386  0.00  0.00    +0.000 A 
ENDROOT
BRANCH   1  10
ATOM     10  C   UNL     1      -6.975   2.799 123.771  0.00  0.00    +0.000 C 
BRANCH  10  11
ATOM     11  S   UNL     1      -7.186   4.131 124.967  0.00  0.00    +0.000 S 
ATOM     12  O   UNL     1      -8.592   4.310 125.262  0.00  0.00    +0.000 OA
ATOM     13  O   UNL     1      -6.322   5.243 124.655  0.00  0.00    +0.000 OA
BRANCH  11  14
ATOM     14  N   UNL     1      -6.521   3.488 126.382  0.00  0.00    +0.000 NA
ATOM     15  H   UNL     1      -5.913   2.709 126.102  0.00  0.00    +0.000 HD
ATOM     16  H   UNL     1      -7.243   3.133 127.013  0.00  0.00    +0.000 HD
ENDBRANCH  11  14
ENDBRANCH  10  11
ENDBRANCH   1  10
TORSDOF 3
ENDMDL
MODEL 8
REMARK VINA RESULT:      -5.6      9.075      9.661
REMARK  Name = Zonisamide
REMARK  3 active torsions:
REMARK  status: ('A' for Active; 'I' for Inactive)
REMARK    1  A    between atoms: N_1  and  S_2
REMARK    2  A    between atoms: S_2  and  C_5
REMARK    3  A    between atoms: C_5  and  C_6
REMARK                            x       y       z     vdW  Elec       q    Type
REMARK                         _______ _______ _______ _____ _____    ______ ____
ROOT
ATOM      1  C   UNL     1      -8.443  -0.180 125.482  0.00  0.00    +0.000 A 
ATOM      2  N   UNL     1      -9.660  -0.743 125.483  0.00  0.00    +0.000 NA
ATOM      3  O   UNL     1      -9.467  -2.059 125.083  0.00  0.00    +0.000 OA
ATOM      4  C   UNL     1      -8.149  -2.262 124.808  0.00  0.00    +0.000 A 
ATOM      5  C   UNL     1      -7.565  -3.447 124.370  0.00  0.00    +0.000 A 
ATOM      6  C   UNL     1      -6.184  -3.405 124.141  0.00  0.00    +0.000 A 
ATOM      7  C   UNL     1      -5.451  -2.231 124.341  0.00  0.00    +0.000 A 
ATOM      8  C   UNL     1      -6.071  -1.058 124.789  0.00  0.00    +0.000 A 
ATOM      9  C   UNL     1      -7.454  -1.087 125.028  0.00  0.00    +0.000 A 
ENDROOT
BRANCH   1  10
ATOM     10  C   UNL     1      -8.249   1.227 125.908  0.00  0.00    +0.000 C 
BRANCH  10  11
ATOM     11  S   UNL     1      -8.752   2.347 124.588  0.00  0.00    +0.000 S 
ATOM     12  O   UNL     1      -8.032   2.029 123.372  0.00  0.00    +0.000 OA
ATOM     13  O   UNL     1      -8.869   3.698 125.078  0.00  0.00    +0.000 OA
BRANCH  11  14
ATOM     14  N   UNL     1     -10.350   1.888 124.281  0.00  0.00    +0.000 NA
ATOM     15  H   UNL     1     -10.446   0.912 124.584  0.00  0.00    +0.000 HD
ATOM     16  H   UNL     1     -10.578   1.950 123.287  0.00  0.00    +0.000 HD
ENDBRANCH  11  14
ENDBRANCH  10  11
ENDBRANCH   1  10
TORSDOF 3
ENDMDL
MODEL 9
REMARK VINA RESULT:      -5.4      8.577      9.163
REMARK  Name = Zonisamide
REMARK  3 active torsions:
REMARK  status: ('A' for Active; 'I' for Inactive)
REMARK    1  A    between atoms: N_1  and  S_2
REMARK    2  A    between atoms: S_2  and  C_5
REMARK    3  A    between atoms: C_5  and  C_6
REMARK                            x       y       z     vdW  Elec       q    Type
REMARK                         _______ _______ _______ _____ _____    ______ ____
ROOT
ATOM      1  C   UNL     1      -8.251   0.074 124.316  0.00  0.00    +0.000 A 
ATOM      2  N   UNL     1      -8.891  -0.365 123.223  0.00  0.00    +0.000 NA
ATOM      3  O   UNL     1      -9.405  -1.610 123.563  0.00  0.00    +0.000 OA
ATOM      4  C   UNL     1      -9.038  -1.922 124.835  0.00  0.00    +0.000 A 
ATOM      5  C   UNL     1      -9.353  -3.088 125.529  0.00  0.00    +0.000 A 
ATOM      6  C   UNL     1      -8.847  -3.185 126.831  0.00  0.00    +0.000 A 
ATOM      7  C   UNL     1      -8.067  -2.165 127.385  0.00  0.00    +0.000 A 
ATOM      8  C   UNL     1      -7.776  -1.003 126.660  0.00  0.00    +0.000 A 
ATOM      9  C   UNL     1      -8.282  -0.888 125.356  0.00  0.00    +0.000 A 
ENDROOT
BRANCH   1  10
ATOM     10  C   UNL     1      -7.608   1.410 124.343  0.00  0.00    +0.000 C 
BRANCH  10  11
ATOM     11  S   UNL     1      -8.839   2.693 124.045  0.00  0.00    +0.000 S 
ATOM     12  O   UNL     1      -8.883   3.014 122.634  0.00  0.00    +0.000 OA
ATOM     13  O   UNL     1      -8.772   3.714 125.061  0.00  0.00    +0.000 OA
BRANCH  11  14
ATOM     14  N   UNL     1     -10.302   1.905 124.359  0.00  0.00    +0.000 NA
ATOM     15  H   UNL     1     -10.513   1.326 123.538  0.00  0.00    +0.000 HD
ATOM     16  H   UNL     1     -11.066   2.567 124.503  0.00  0.00    +0.000 HD
ENDBRANCH  11  14
ENDBRANCH  10  11
ENDBRANCH   1  10
TORSDOF 3
ENDMDL
