MODEL 1
REMARK VINA RESULT:      -7.7      0.000      0.000
REMARK  Name = Zopiclone
REMARK  3 active torsions:
REMARK  status: ('A' for Active; 'I' for Inactive)
REMARK    1  A    between atoms: C_1  and  N_2
REMARK    2  A    between atoms: C_8  and  O_10
REMARK    3  A    between atoms: O_10  and  C_11
REMARK                            x       y       z     vdW  Elec       q    Type
REMARK                         _______ _______ _______ _____ _____    ______ ____
ROOT
ATOM      1  C   UNL     1      -6.371   1.524 124.323  0.00  0.00    +0.000 C 
ATOM      2  N   UNL     1      -6.310   2.976 124.070  0.00  0.00    +0.000 N 
ATOM      3  C   UNL     1      -5.875   3.651 125.242  0.00  0.00    +0.000 C 
ATOM      4  O   UNL     1      -5.663   4.843 125.384  0.00  0.00    +0.000 OA
ATOM      5  C   UNL     1      -5.693   2.608 126.318  0.00  0.00    +0.000 A 
ATOM      6  N   UNL     1      -5.451   2.717 127.653  0.00  0.00    +0.000 NA
ATOM      7  C   UNL     1      -5.383   1.505 128.313  0.00  0.00    +0.000 A 
ATOM      8  C   UNL     1      -5.434   0.283 127.660  0.00  0.00    +0.000 A 
ATOM      9  N   UNL     1      -5.482   0.226 126.319  0.00  0.00    +0.000 NA
ATOM     10  C   UNL     1      -5.773   1.393 125.702  0.00  0.00    +0.000 A 
ATOM     11  C   UNL     1      -6.522   3.498 122.742  0.00  0.00    +0.000 A 
ATOM     12  N   UNL     1      -7.719   3.247 122.146  0.00  0.00    +0.000 NA
ATOM     13  C   UNL     1      -7.925   3.657 120.848  0.00  0.00    +0.000 A 
ATOM     14  C   UNL     1      -6.941   4.146 120.014  0.00  0.00    +0.000 A 
ATOM     15 CL   UNL     1      -7.270   4.618 118.392  0.00  0.00    +0.000 Cl
ATOM     16  C   UNL     1      -5.685   4.295 120.572  0.00  0.00    +0.000 A 
ATOM     17  C   UNL     1      -5.506   4.092 121.971  0.00  0.00    +0.000 A 
ENDROOT
BRANCH   1  18
ATOM     18  O   UNL     1      -7.735   1.023 124.198  0.00  0.00    +0.000 OA
BRANCH  18  26
ATOM     19  C   UNL     1      -8.650  -3.994 127.829  0.00  0.00    +0.000 C 
ATOM     20  N   UNL     1      -8.997  -3.056 126.770  0.00  0.00    +0.000 NA
ATOM     21  C   UNL     1      -8.360  -3.455 125.501  0.00  0.00    +0.000 C 
ATOM     22  C   UNL     1      -8.766  -2.498 124.377  0.00  0.00    +0.000 C 
ATOM     23  N   UNL     1      -8.510  -1.094 124.745  0.00  0.00    +0.000 N 
ATOM     24  C   UNL     1      -8.991  -0.673 126.045  0.00  0.00    +0.000 C 
ATOM     25  C   UNL     1      -8.555  -1.685 127.114  0.00  0.00    +0.000 C 
ATOM     26  C   UNL     1      -7.998  -0.255 123.796  0.00  0.00    +0.000 C 
ATOM     27  O   UNL     1      -7.797  -0.739 122.686  0.00  0.00    +0.000 OA
ENDBRANCH  18  26
ENDBRANCH   1  18
TORSDOF 2
ENDMDL
MODEL 2
REMARK VINA RESULT:      -7.6      7.776      9.679
REMARK  Name = Zopiclone
REMARK  3 active torsions:
REMARK  status: ('A' for Active; 'I' for Inactive)
REMARK    1  A    between atoms: C_1  and  N_2
REMARK    2  A    between atoms: C_8  and  O_10
REMARK    3  A    between atoms: O_10  and  C_11
REMARK                            x       y       z     vdW  Elec       q    Type
REMARK                         _______ _______ _______ _____ _____    ______ ____
ROOT
ATOM      1  C   UNL     1      -9.201   5.746 131.967  0.00  0.00    +0.000 C 
ATOM      2  N   UNL     1     -10.251   5.396 130.991  0.00  0.00    +0.000 N 
ATOM      3  C   UNL     1     -10.386   3.984 130.916  0.00  0.00    +0.000 C 
ATOM      4  O   UNL     1     -11.185   3.343 130.256  0.00  0.00    +0.000 OA
ATOM      5  C   UNL     1      -9.351   3.385 131.837  0.00  0.00    +0.000 A 
ATOM      6  N   UNL     1      -8.939   2.101 132.024  0.00  0.00    +0.000 NA
ATOM      7  C   UNL     1      -7.925   1.965 132.953  0.00  0.00    +0.000 A 
ATOM      8  C   UNL     1      -7.451   3.020 133.716  0.00  0.00    +0.000 A 
ATOM      9  N   UNL     1      -8.020   4.234 133.634  0.00  0.00    +0.000 NA
ATOM     10  C   UNL     1      -8.845   4.413 132.577  0.00  0.00    +0.000 A 
ATOM     11  C   UNL     1     -11.067   6.424 130.392  0.00  0.00    +0.000 A 
ATOM     12  N   UNL     1     -10.439   7.386 129.664  0.00  0.00    +0.000 NA
ATOM     13  C   UNL     1     -11.174   8.429 129.148  0.00  0.00    +0.000 A 
ATOM     14  C   UNL     1     -12.491   8.692 129.465  0.00  0.00    +0.000 A 
ATOM     15 CL   UNL     1     -13.341  10.032 128.796  0.00  0.00    +0.000 Cl
ATOM     16  C   UNL     1     -13.112   7.785 130.304  0.00  0.00    +0.000 A 
ATOM     17  C   UNL     1     -12.438   6.583 130.664  0.00  0.00    +0.000 A 
ENDROOT
BRANCH   1  18
ATOM     18  O   UNL     1      -8.091   6.438 131.321  0.00  0.00    +0.000 OA
BRANCH  18  26
ATOM     19  C   UNL     1      -1.838   6.737 131.373  0.00  0.00    +0.000 C 
ATOM     20  N   UNL     1      -3.122   6.049 131.389  0.00  0.00    +0.000 NA
ATOM     21  C   UNL     1      -3.611   5.840 130.013  0.00  0.00    +0.000 C 
ATOM     22  C   UNL     1      -4.935   5.071 130.030  0.00  0.00    +0.000 C 
ATOM     23  N   UNL     1      -5.924   5.720 130.910  0.00  0.00    +0.000 N 
ATOM     24  C   UNL     1      -5.464   6.080 132.236  0.00  0.00    +0.000 C 
ATOM     25  C   UNL     1      -4.131   6.834 132.137  0.00  0.00    +0.000 C 
ATOM     26  C   UNL     1      -7.223   5.787 130.492  0.00  0.00    +0.000 C 
ATOM     27  O   UNL     1      -7.476   5.284 129.401  0.00  0.00    +0.000 OA
ENDBRANCH  18  26
ENDBRANCH   1  18
TORSDOF 2
ENDMDL
MODEL 3
REMARK VINA RESULT:      -7.4      3.462      7.354
REMARK  Name = Zopiclone
REMARK  3 active torsions:
REMARK  status: ('A' for Active; 'I' for Inactive)
REMARK    1  A    between atoms: C_1  and  N_2
REMARK    2  A    between atoms: C_8  and  O_10
REMARK    3  A    between atoms: O_10  and  C_11
REMARK                            x       y       z     vdW  Elec       q    Type
REMARK                         _______ _______ _______ _____ _____    ______ ____
ROOT
ATOM      1  C   UNL     1      -6.885   1.340 124.614  0.00  0.00    +0.000 C 
ATOM      2  N   UNL     1      -8.168   0.761 125.056  0.00  0.00    +0.000 N 
ATOM      3  C   UNL     1      -9.205   1.163 124.173  0.00  0.00    +0.000 C 
ATOM      4  O   UNL     1     -10.380   0.836 124.200  0.00  0.00    +0.000 OA
ATOM      5  C   UNL     1      -8.590   2.082 123.146  0.00  0.00    +0.000 A 
ATOM      6  N   UNL     1      -9.146   2.865 122.182  0.00  0.00    +0.000 NA
ATOM      7  C   UNL     1      -8.229   3.597 121.453  0.00  0.00    +0.000 A 
ATOM      8  C   UNL     1      -6.858   3.458 121.603  0.00  0.00    +0.000 A 
ATOM      9  N   UNL     1      -6.352   2.532 122.433  0.00  0.00    +0.000 NA
ATOM     10  C   UNL     1      -7.237   1.986 123.297  0.00  0.00    +0.000 A 
ATOM     11  C   UNL     1      -8.208  -0.193 126.137  0.00  0.00    +0.000 A 
ATOM     12  N   UNL     1      -7.748   0.208 127.353  0.00  0.00    +0.000 NA
ATOM     13  C   UNL     1      -7.692  -0.699 128.386  0.00  0.00    +0.000 A 
ATOM     14  C   UNL     1      -7.891  -2.058 128.249  0.00  0.00    +0.000 A 
ATOM     15 CL   UNL     1      -7.782  -3.137 129.585  0.00  0.00    +0.000 Cl
ATOM     16  C   UNL     1      -8.244  -2.500 126.987  0.00  0.00    +0.000 A 
ATOM     17  C   UNL     1      -8.527  -1.552 125.962  0.00  0.00    +0.000 A 
ENDROOT
BRANCH   1  18
ATOM     18  O   UNL     1      -6.345   2.252 125.617  0.00  0.00    +0.000 OA
BRANCH  18  26
ATOM     19  C   UNL     1      -2.414   6.421 128.138  0.00  0.00    +0.000 C 
ATOM     20  N   UNL     1      -3.256   5.232 128.151  0.00  0.00    +0.000 NA
ATOM     21  C   UNL     1      -2.507   4.066 127.647  0.00  0.00    +0.000 C 
ATOM     22  C   UNL     1      -3.377   2.807 127.708  0.00  0.00    +0.000 C 
ATOM     23  N   UNL     1      -4.670   3.011 127.030  0.00  0.00    +0.000 N 
ATOM     24  C   UNL     1      -5.395   4.215 127.380  0.00  0.00    +0.000 C 
ATOM     25  C   UNL     1      -4.456   5.428 127.306  0.00  0.00    +0.000 C 
ATOM     26  C   UNL     1      -5.168   1.998 126.261  0.00  0.00    +0.000 C 
ATOM     27  O   UNL     1      -4.497   0.972 126.200  0.00  0.00    +0.000 OA
ENDBRANCH  18  26
ENDBRANCH   1  18
TORSDOF 2
ENDMDL
MODEL 4
REMARK VINA RESULT:      -7.4      3.920      7.874
REMARK  Name = Zopiclone
REMARK  3 active torsions:
REMARK  status: ('A' for Active; 'I' for Inactive)
REMARK    1  A    between atoms: C_1  and  N_2
REMARK    2  A    between atoms: C_8  and  O_10
REMARK    3  A    between atoms: O_10  and  C_11
REMARK                            x       y       z     vdW  Elec       q    Type
REMARK                         _______ _______ _______ _____ _____    ______ ____
ROOT
ATOM      1  C   UNL     1      -7.323  -1.227 126.368  0.00  0.00    +0.000 C 
ATOM      2  N   UNL     1      -7.887  -2.087 127.426  0.00  0.00    +0.000 N 
ATOM      3  C   UNL     1      -8.762  -3.045 126.849  0.00  0.00    +0.000 C 
ATOM      4  O   UNL     1      -9.363  -3.944 127.412  0.00  0.00    +0.000 OA
ATOM      5  C   UNL     1      -8.814  -2.771 125.365  0.00  0.00    +0.000 A 
ATOM      6  N   UNL     1      -9.604  -3.273 124.378  0.00  0.00    +0.000 NA
ATOM      7  C   UNL     1      -9.359  -2.732 123.131  0.00  0.00    +0.000 A 
ATOM      8  C   UNL     1      -8.323  -1.847 122.880  0.00  0.00    +0.000 A 
ATOM      9  N   UNL     1      -7.448  -1.526 123.847  0.00  0.00    +0.000 NA
ATOM     10  C   UNL     1      -7.821  -1.874 125.100  0.00  0.00    +0.000 A 
ATOM     11  C   UNL     1      -7.415  -1.983 128.785  0.00  0.00    +0.000 A 
ATOM     12  N   UNL     1      -7.556  -0.785 129.414  0.00  0.00    +0.000 NA
ATOM     13  C   UNL     1      -7.041  -0.624 130.681  0.00  0.00    +0.000 A 
ATOM     14  C   UNL     1      -6.215  -1.531 131.313  0.00  0.00    +0.000 A 
ATOM     15 CL   UNL     1      -5.590  -1.251 132.892  0.00  0.00    +0.000 Cl
ATOM     16  C   UNL     1      -5.964  -2.708 130.632  0.00  0.00    +0.000 A 
ATOM     17  C   UNL     1      -6.667  -2.988 129.425  0.00  0.00    +0.000 A 
ENDROOT
BRANCH   1  18
ATOM     18  O   UNL     1      -7.730   0.163 126.546  0.00  0.00    +0.000 OA
BRANCH  18  26
ATOM     19  C   UNL     1      -8.735   3.398 121.281  0.00  0.00    +0.000 C 
ATOM     20  N   UNL     1      -8.503   3.254 122.712  0.00  0.00    +0.000 NA
ATOM     21  C   UNL     1      -7.057   3.174 122.993  0.00  0.00    +0.000 C 
ATOM     22  C   UNL     1      -6.813   3.074 124.501  0.00  0.00    +0.000 C 
ATOM     23  N   UNL     1      -7.587   1.973 125.101  0.00  0.00    +0.000 N 
ATOM     24  C   UNL     1      -8.992   1.912 124.753  0.00  0.00    +0.000 C 
ATOM     25  C   UNL     1      -9.156   2.030 123.231  0.00  0.00    +0.000 C 
ATOM     26  C   UNL     1      -6.987   1.198 126.054  0.00  0.00    +0.000 C 
ATOM     27  O   UNL     1      -5.833   1.489 126.352  0.00  0.00    +0.000 OA
ENDBRANCH  18  26
ENDBRANCH   1  18
TORSDOF 2
ENDMDL
MODEL 5
REMARK VINA RESULT:      -7.3      3.779      5.799
REMARK  Name = Zopiclone
REMARK  3 active torsions:
REMARK  status: ('A' for Active; 'I' for Inactive)
REMARK    1  A    between atoms: C_1  and  N_2
REMARK    2  A    between atoms: C_8  and  O_10
REMARK    3  A    between atoms: O_10  and  C_11
REMARK                            x       y       z     vdW  Elec       q    Type
REMARK                         _______ _______ _______ _____ _____    ______ ____
ROOT
ATOM      1  C   UNL     1      -6.336   2.997 127.132  0.00  0.00    +0.000 C 
ATOM      2  N   UNL     1      -6.693   3.609 125.837  0.00  0.00    +0.000 N 
ATOM      3  C   UNL     1      -5.953   4.807 125.652  0.00  0.00    +0.000 C 
ATOM      4  O   UNL     1      -5.954   5.544 124.681  0.00  0.00    +0.000 OA
ATOM      5  C   UNL     1      -5.120   5.017 126.893  0.00  0.00    +0.000 A 
ATOM      6  N   UNL     1      -4.364   6.069 127.309  0.00  0.00    +0.000 NA
ATOM      7  C   UNL     1      -3.772   5.883 128.543  0.00  0.00    +0.000 A 
ATOM      8  C   UNL     1      -3.839   4.688 129.243  0.00  0.00    +0.000 A 
ATOM      9  N   UNL     1      -4.437   3.613 128.705  0.00  0.00    +0.000 NA
ATOM     10  C   UNL     1      -5.198   3.862 127.615  0.00  0.00    +0.000 A 
ATOM     11  C   UNL     1      -7.550   2.912 124.909  0.00  0.00    +0.000 A 
ATOM     12  N   UNL     1      -8.805   2.593 125.325  0.00  0.00    +0.000 NA
ATOM     13  C   UNL     1      -9.622   1.855 124.498  0.00  0.00    +0.000 A 
ATOM     14  C   UNL     1      -9.210   1.238 123.335  0.00  0.00    +0.000 A 
ATOM     15 CL   UNL     1     -10.285   0.310 122.363  0.00  0.00    +0.000 Cl
ATOM     16  C   UNL     1      -7.897   1.456 122.960  0.00  0.00    +0.000 A 
ATOM     17  C   UNL     1      -7.105   2.397 123.679  0.00  0.00    +0.000 A 
ENDROOT
BRANCH   1  18
ATOM     18  O   UNL     1      -7.488   2.947 128.026  0.00  0.00    +0.000 OA
BRANCH  18  26
ATOM     19  C   UNL     1      -9.097   3.852 134.008  0.00  0.00    +0.000 C 
ATOM     20  N   UNL     1      -8.409   4.181 132.767  0.00  0.00    +0.000 NA
ATOM     21  C   UNL     1      -9.295   4.956 131.878  0.00  0.00    +0.000 C 
ATOM     22  C   UNL     1      -8.554   5.345 130.596  0.00  0.00    +0.000 C 
ATOM     23  N   UNL     1      -7.952   4.169 129.942  0.00  0.00    +0.000 N 
ATOM     24  C   UNL     1      -7.181   3.287 130.793  0.00  0.00    +0.000 C 
ATOM     25  C   UNL     1      -7.983   2.952 132.058  0.00  0.00    +0.000 C 
ATOM     26  C   UNL     1      -8.018   4.076 128.580  0.00  0.00    +0.000 C 
ATOM     27  O   UNL     1      -8.572   5.001 127.992  0.00  0.00    +0.000 OA
ENDBRANCH  18  26
ENDBRANCH   1  18
TORSDOF 2
ENDMDL
MODEL 6
REMARK VINA RESULT:      -7.1      5.210      7.747
REMARK  Name = Zopiclone
REMARK  3 active torsions:
REMARK  status: ('A' for Active; 'I' for Inactive)
REMARK    1  A    between atoms: C_1  and  N_2
REMARK    2  A    between atoms: C_8  and  O_10
REMARK    3  A    between atoms: O_10  and  C_11
REMARK                            x       y       z     vdW  Elec       q    Type
REMARK                         _______ _______ _______ _____ _____    ______ ____
ROOT
ATOM      1  C   UNL     1      -7.443   4.383 129.701  0.00  0.00    +0.000 C 
ATOM      2  N   UNL     1      -8.519   3.884 130.578  0.00  0.00    +0.000 N 
ATOM      3  C   UNL     1      -8.134   2.642 131.152  0.00  0.00    +0.000 C 
ATOM      4  O   UNL     1      -8.750   1.969 131.960  0.00  0.00    +0.000 OA
ATOM      5  C   UNL     1      -6.779   2.290 130.589  0.00  0.00    +0.000 A 
ATOM      6  N   UNL     1      -6.031   1.155 130.672  0.00  0.00    +0.000 NA
ATOM      7  C   UNL     1      -4.838   1.217 129.979  0.00  0.00    +0.000 A 
ATOM      8  C   UNL     1      -4.382   2.367 129.355  0.00  0.00    +0.000 A 
ATOM      9  N   UNL     1      -5.065   3.519 129.462  0.00  0.00    +0.000 NA
ATOM     10  C   UNL     1      -6.324   3.400 129.941  0.00  0.00    +0.000 A 
ATOM     11  C   UNL     1      -9.671   4.704 130.865  0.00  0.00    +0.000 A 
ATOM     12  N   UNL     1     -10.443   5.099 129.817  0.00  0.00    +0.000 NA
ATOM     13  C   UNL     1     -11.501   5.951 130.042  0.00  0.00    +0.000 A 
ATOM     14  C   UNL     1     -11.744   6.602 131.234  0.00  0.00    +0.000 A 
ATOM     15 CL   UNL     1     -13.076   7.672 131.435  0.00  0.00    +0.000 Cl
ATOM     16  C   UNL     1     -10.892   6.300 132.281  0.00  0.00    +0.000 A 
ATOM     17  C   UNL     1      -9.935   5.255 132.132  0.00  0.00    +0.000 A 
ENDROOT
BRANCH   1  18
ATOM     18  O   UNL     1      -7.891   4.473 128.316  0.00  0.00    +0.000 OA
BRANCH  18  26
ATOM     19  C   UNL     1      -5.794   4.003 122.436  0.00  0.00    +0.000 C 
ATOM     20  N   UNL     1      -5.902   3.595 123.830  0.00  0.00    +0.000 NA
ATOM     21  C   UNL     1      -7.080   2.727 124.023  0.00  0.00    +0.000 C 
ATOM     22  C   UNL     1      -7.163   2.258 125.478  0.00  0.00    +0.000 C 
ATOM     23  N   UNL     1      -7.114   3.395 126.415  0.00  0.00    +0.000 N 
ATOM     24  C   UNL     1      -6.060   4.363 126.195  0.00  0.00    +0.000 C 
ATOM     25  C   UNL     1      -6.032   4.775 124.716  0.00  0.00    +0.000 C 
ATOM     26  C   UNL     1      -7.940   3.377 127.504  0.00  0.00    +0.000 C 
ATOM     27  O   UNL     1      -8.665   2.394 127.628  0.00  0.00    +0.000 OA
ENDBRANCH  18  26
ENDBRANCH   1  18
TORSDOF 2
ENDMDL
MODEL 7
REMARK VINA RESULT:      -7.1      5.720      7.823
REMARK  Name = Zopiclone
REMARK  3 active torsions:
REMARK  status: ('A' for Active; 'I' for Inactive)
REMARK    1  A    between atoms: C_1  and  N_2
REMARK    2  A    between atoms: C_8  and  O_10
REMARK    3  A    between atoms: O_10  and  C_11
REMARK                            x       y       z     vdW  Elec       q    Type
REMARK                         _______ _______ _______ _____ _____    ______ ____
ROOT
ATOM      1  C   UNL     1      -7.524   4.593 129.794  0.00  0.00    +0.000 C 
ATOM      2  N   UNL     1      -6.515   4.582 128.717  0.00  0.00    +0.000 N 
ATOM      3  C   UNL     1      -5.235   4.881 129.255  0.00  0.00    +0.000 C 
ATOM      4  O   UNL     1      -4.166   4.910 128.670  0.00  0.00    +0.000 OA
ATOM      5  C   UNL     1      -5.419   5.149 130.729  0.00  0.00    +0.000 A 
ATOM      6  N   UNL     1      -4.567   5.630 131.675  0.00  0.00    +0.000 NA
ATOM      7  C   UNL     1      -5.136   5.765 132.927  0.00  0.00    +0.000 A 
ATOM      8  C   UNL     1      -6.420   5.336 133.227  0.00  0.00    +0.000 A 
ATOM      9  N   UNL     1      -7.157   4.692 132.307  0.00  0.00    +0.000 NA
ATOM     10  C   UNL     1      -6.690   4.765 131.040  0.00  0.00    +0.000 A 
ATOM     11  C   UNL     1      -6.868   4.152 127.386  0.00  0.00    +0.000 A 
ATOM     12  N   UNL     1      -7.841   4.844 126.734  0.00  0.00    +0.000 NA
ATOM     13  C   UNL     1      -8.263   4.411 125.497  0.00  0.00    +0.000 A 
ATOM     14  C   UNL     1      -7.912   3.205 124.927  0.00  0.00    +0.000 A 
ATOM     15 CL   UNL     1      -8.499   2.720 123.383  0.00  0.00    +0.000 Cl
ATOM     16  C   UNL     1      -7.012   2.431 125.636  0.00  0.00    +0.000 A 
ATOM     17  C   UNL     1      -6.393   2.963 126.804  0.00  0.00    +0.000 A 
ENDROOT
BRANCH   1  18
ATOM     18  O   UNL     1      -8.518   5.638 129.575  0.00  0.00    +0.000 OA
BRANCH  18  26
ATOM     19  C   UNL     1     -13.204   9.724 128.848  0.00  0.00    +0.000 C 
ATOM     20  N   UNL     1     -12.565   8.421 128.726  0.00  0.00    +0.000 NA
ATOM     21  C   UNL     1     -12.761   7.635 129.959  0.00  0.00    +0.000 C 
ATOM     22  C   UNL     1     -12.132   6.247 129.810  0.00  0.00    +0.000 C 
ATOM     23  N   UNL     1     -10.723   6.335 129.390  0.00  0.00    +0.000 N 
ATOM     24  C   UNL     1     -10.442   7.204 128.266  0.00  0.00    +0.000 C 
ATOM     25  C   UNL     1     -11.112   8.567 128.482  0.00  0.00    +0.000 C 
ATOM     26  C   UNL     1      -9.818   5.486 129.964  0.00  0.00    +0.000 C 
ATOM     27  O   UNL     1     -10.256   4.693 130.791  0.00  0.00    +0.000 OA
ENDBRANCH  18  26
ENDBRANCH   1  18
TORSDOF 2
ENDMDL
MODEL 8
REMARK VINA RESULT:      -7.1      6.083      7.183
REMARK  Name = Zopiclone
REMARK  3 active torsions:
REMARK  status: ('A' for Active; 'I' for Inactive)
REMARK    1  A    between atoms: C_1  and  N_2
REMARK    2  A    between atoms: C_8  and  O_10
REMARK    3  A    between atoms: O_10  and  C_11
REMARK                            x       y       z     vdW  Elec       q    Type
REMARK                         _______ _______ _______ _____ _____    ______ ____
ROOT
ATOM      1  C   UNL     1      -8.408   4.582 129.218  0.00  0.00    +0.000 C 
ATOM      2  N   UNL     1      -8.960   5.660 130.059  0.00  0.00    +0.000 N 
ATOM      3  C   UNL     1      -8.078   5.927 131.140  0.00  0.00    +0.000 C 
ATOM      4  O   UNL     1      -8.187   6.783 132.001  0.00  0.00    +0.000 OA
ATOM      5  C   UNL     1      -6.929   4.953 131.032  0.00  0.00    +0.000 A 
ATOM      6  N   UNL     1      -5.905   4.664 131.879  0.00  0.00    +0.000 NA
ATOM      7  C   UNL     1      -5.063   3.667 131.424  0.00  0.00    +0.000 A 
ATOM      8  C   UNL     1      -5.175   3.096 130.166  0.00  0.00    +0.000 A 
ATOM      9  N   UNL     1      -6.086   3.549 129.289  0.00  0.00    +0.000 NA
ATOM     10  C   UNL     1      -7.040   4.353 129.812  0.00  0.00    +0.000 A 
ATOM     11  C   UNL     1     -10.144   6.376 129.650  0.00  0.00    +0.000 A 
ATOM     12  N   UNL     1     -11.288   5.660 129.476  0.00  0.00    +0.000 NA
ATOM     13  C   UNL     1     -12.416   6.294 129.005  0.00  0.00    +0.000 A 
ATOM     14  C   UNL     1     -12.441   7.580 128.506  0.00  0.00    +0.000 A 
ATOM     15 CL   UNL     1     -13.887   8.300 127.912  0.00  0.00    +0.000 Cl
ATOM     16  C   UNL     1     -11.253   8.283 128.566  0.00  0.00    +0.000 A 
ATOM     17  C   UNL     1     -10.138   7.725 129.255  0.00  0.00    +0.000 A 
ENDROOT
BRANCH   1  18
ATOM     18  O   UNL     1      -9.278   3.412 129.220  0.00  0.00    +0.000 OA
BRANCH  18  26
ATOM     19  C   UNL     1      -6.481  -0.319 133.397  0.00  0.00    +0.000 C 
ATOM     20  N   UNL     1      -7.472   0.006 132.380  0.00  0.00    +0.000 NA
ATOM     21  C   UNL     1      -6.925  -0.238 131.032  0.00  0.00    +0.000 C 
ATOM     22  C   UNL     1      -7.985   0.056 129.966  0.00  0.00    +0.000 C 
ATOM     23  N   UNL     1      -8.556   1.404 130.131  0.00  0.00    +0.000 N 
ATOM     24  C   UNL     1      -8.988   1.759 131.468  0.00  0.00    +0.000 C 
ATOM     25  C   UNL     1      -7.880   1.426 132.477  0.00  0.00    +0.000 C 
ATOM     26  C   UNL     1      -8.792   2.153 129.012  0.00  0.00    +0.000 C 
ATOM     27  O   UNL     1      -8.516   1.633 127.935  0.00  0.00    +0.000 OA
ENDBRANCH  18  26
ENDBRANCH   1  18
TORSDOF 2
ENDMDL
MODEL 9
REMARK VINA RESULT:      -7.1      4.534      6.329
REMARK  Name = Zopiclone
REMARK  3 active torsions:
REMARK  status: ('A' for Active; 'I' for Inactive)
REMARK    1  A    between atoms: C_1  and  N_2
REMARK    2  A    between atoms: C_8  and  O_10
REMARK    3  A    between atoms: O_10  and  C_11
REMARK                            x       y       z     vdW  Elec       q    Type
REMARK                         _______ _______ _______ _____ _____    ______ ____
ROOT
ATOM      1  C   UNL     1      -6.881   4.287 127.764  0.00  0.00    +0.000 C 
ATOM      2  N   UNL     1      -6.934   4.414 129.233  0.00  0.00    +0.000 N 
ATOM      3  C   UNL     1      -5.651   4.152 129.784  0.00  0.00    +0.000 C 
ATOM      4  O   UNL     1      -5.313   4.214 130.954  0.00  0.00    +0.000 OA
ATOM      5  C   UNL     1      -4.736   3.788 128.640  0.00  0.00    +0.000 A 
ATOM      6  N   UNL     1      -3.467   3.298 128.616  0.00  0.00    +0.000 NA
ATOM      7  C   UNL     1      -2.981   3.060 127.345  0.00  0.00    +0.000 A 
ATOM      8  C   UNL     1      -3.671   3.402 126.193  0.00  0.00    +0.000 A 
ATOM      9  N   UNL     1      -4.840   4.060 126.266  0.00  0.00    +0.000 NA
ATOM     10  C   UNL     1      -5.411   4.086 127.492  0.00  0.00    +0.000 A 
ATOM     11  C   UNL     1      -8.124   4.903 129.884  0.00  0.00    +0.000 A 
ATOM     12  N   UNL     1      -9.276   4.200 129.709  0.00  0.00    +0.000 NA
ATOM     13  C   UNL     1     -10.449   4.682 130.245  0.00  0.00    +0.000 A 
ATOM     14  C   UNL     1     -10.600   5.937 130.798  0.00  0.00    +0.000 A 
ATOM     15 CL   UNL     1     -12.107   6.480 131.429  0.00  0.00    +0.000 Cl
ATOM     16  C   UNL     1      -9.459   6.714 130.875  0.00  0.00    +0.000 A 
ATOM     17  C   UNL     1      -8.197   6.148 130.535  0.00  0.00    +0.000 A 
ENDROOT
BRANCH   1  18
ATOM     18  O   UNL     1      -7.742   3.206 127.297  0.00  0.00    +0.000 OA
BRANCH  18  26
ATOM     19  C   UNL     1      -8.904  -1.586 123.440  0.00  0.00    +0.000 C 
ATOM     20  N   UNL     1      -9.263  -0.413 124.225  0.00  0.00    +0.000 NA
ATOM     21  C   UNL     1      -9.022   0.819 123.450  0.00  0.00    +0.000 C 
ATOM     22  C   UNL     1      -9.448   2.048 124.257  0.00  0.00    +0.000 C 
ATOM     23  N   UNL     1      -8.819   2.063 125.590  0.00  0.00    +0.000 N 
ATOM     24  C   UNL     1      -8.899   0.833 126.351  0.00  0.00    +0.000 C 
ATOM     25  C   UNL     1      -8.469  -0.351 125.474  0.00  0.00    +0.000 C 
ATOM     26  C   UNL     1      -8.358   3.253 126.079  0.00  0.00    +0.000 C 
ATOM     27  O   UNL     1      -8.515   4.239 125.365  0.00  0.00    +0.000 OA
ENDBRANCH  18  26
ENDBRANCH   1  18
TORSDOF 2
ENDMDL
