MODEL 1
REMARK VINA RESULT:      -7.5      0.000      0.000
REMARK  Name = Zotepine
REMARK  6 active torsions:
REMARK  status: ('A' for Active; 'I' for Inactive)
REMARK    1  A    between atoms: C_1  and  N_2
REMARK    2  A    between atoms: N_2  and  C_3
REMARK    3  A    between atoms: N_2  and  C_4
REMARK    4  A    between atoms: C_4  and  C_5
REMARK    5  A    between atoms: C_5  and  O_6
REMARK    6  A    between atoms: O_6  and  C_7
REMARK                            x       y       z     vdW  Elec       q    Type
REMARK                         _______ _______ _______ _____ _____    ______ ____
ROOT
ATOM      1  C   UNL     1      -6.313   2.405 124.168  0.00  0.00    +0.000 C 
ATOM      2  C   UNL     1      -6.572   1.181 124.657  0.00  0.00    +0.000 C 
ATOM      3  C   UNL     1      -7.436   0.135 124.068  0.00  0.00    +0.000 A 
ATOM      4  C   UNL     1      -7.007  -1.199 124.112  0.00  0.00    +0.000 A 
ATOM      5  C   UNL     1      -7.780  -2.216 123.541  0.00  0.00    +0.000 A 
ATOM      6  C   UNL     1      -8.975  -1.913 122.894  0.00  0.00    +0.000 A 
ATOM      7  C   UNL     1      -9.427  -0.601 122.866  0.00  0.00    +0.000 A 
ATOM      8  C   UNL     1      -8.689   0.409 123.494  0.00  0.00    +0.000 A 
ATOM      9  S   UNL     1      -9.410   2.036 123.523  0.00  0.00    +0.000 S 
ATOM     10  C   UNL     1      -8.184   2.797 122.482  0.00  0.00    +0.000 A 
ATOM     11  C   UNL     1      -8.630   3.253 121.235  0.00  0.00    +0.000 A 
ATOM     12  C   UNL     1      -7.772   3.955 120.400  0.00  0.00    +0.000 A 
ATOM     13  C   UNL     1      -6.458   4.170 120.800  0.00  0.00    +0.000 A 
ATOM     14 CL   UNL     1      -5.422   5.125 119.813  0.00  0.00    +0.000 Cl
ATOM     15  C   UNL     1      -5.981   3.641 122.003  0.00  0.00    +0.000 A 
ATOM     16  C   UNL     1      -6.836   2.938 122.870  0.00  0.00    +0.000 A 
ENDROOT
BRANCH   1  17
ATOM     17  O   UNL     1      -5.404   3.196 124.872  0.00  0.00    +0.000 OA
BRANCH  17  18
ATOM     18  C   UNL     1      -5.422   2.972 126.286  0.00  0.00    +0.000 C 
BRANCH  18  19
ATOM     19  C   UNL     1      -4.015   2.576 126.752  0.00  0.00    +0.000 C 
BRANCH  19  21
ATOM     20  C   UNL     1      -3.076   4.686 127.431  0.00  0.00    +0.000 C 
ATOM     21  N   UNL     1      -2.996   3.601 126.451  0.00  0.00    +0.000 NA
ATOM     22  C   UNL     1      -1.642   3.038 126.464  0.00  0.00    +0.000 C 
ENDBRANCH  19  21
ENDBRANCH  18  19
ENDBRANCH  17  18
ENDBRANCH   1  17
TORSDOF 4
ENDMDL
MODEL 2
REMARK VINA RESULT:      -6.6      3.378      4.115
REMARK  Name = Zotepine
REMARK  6 active torsions:
REMARK  status: ('A' for Active; 'I' for Inactive)
REMARK    1  A    between atoms: C_1  and  N_2
REMARK    2  A    between atoms: N_2  and  C_3
REMARK    3  A    between atoms: N_2  and  C_4
REMARK    4  A    between atoms: C_4  and  C_5
REMARK    5  A    between atoms: C_5  and  O_6
REMARK    6  A    between atoms: O_6  and  C_7
REMARK                            x       y       z     vdW  Elec       q    Type
REMARK                         _______ _______ _______ _____ _____    ______ ____
ROOT
ATOM      1  C   UNL     1      -8.671   1.439 126.266  0.00  0.00    +0.000 C 
ATOM      2  C   UNL     1      -9.188   0.199 126.262  0.00  0.00    +0.000 C 
ATOM      3  C   UNL     1      -9.103  -0.814 125.188  0.00  0.00    +0.000 A 
ATOM      4  C   UNL     1      -8.881  -2.153 125.539  0.00  0.00    +0.000 A 
ATOM      5  C   UNL     1      -8.765  -3.139 124.554  0.00  0.00    +0.000 A 
ATOM      6  C   UNL     1      -8.840  -2.799 123.205  0.00  0.00    +0.000 A 
ATOM      7  C   UNL     1      -9.087  -1.482 122.842  0.00  0.00    +0.000 A 
ATOM      8  C   UNL     1      -9.271  -0.506 123.827  0.00  0.00    +0.000 A 
ATOM      9  S   UNL     1      -9.715   1.126 123.273  0.00  0.00    +0.000 S 
ATOM     10  C   UNL     1      -8.211   1.915 123.803  0.00  0.00    +0.000 A 
ATOM     11  C   UNL     1      -7.390   2.424 122.789  0.00  0.00    +0.000 A 
ATOM     12  C   UNL     1      -6.251   3.150 123.111  0.00  0.00    +0.000 A 
ATOM     13  C   UNL     1      -5.917   3.336 124.448  0.00  0.00    +0.000 A 
ATOM     14 CL   UNL     1      -4.564   4.318 124.849  0.00  0.00    +0.000 Cl
ATOM     15  C   UNL     1      -6.683   2.755 125.464  0.00  0.00    +0.000 A 
ATOM     16  C   UNL     1      -7.849   2.027 125.161  0.00  0.00    +0.000 A 
ENDROOT
BRANCH   1  17
ATOM     17  O   UNL     1      -8.823   2.193 127.430  0.00  0.00    +0.000 OA
BRANCH  17  18
ATOM     18  C   UNL     1      -8.423   1.501 128.618  0.00  0.00    +0.000 C 
BRANCH  18  19
ATOM     19  C   UNL     1      -8.617   2.424 129.828  0.00  0.00    +0.000 C 
BRANCH  19  21
ATOM     20  C   UNL     1     -10.661   3.478 130.537  0.00  0.00    +0.000 C 
ATOM     21  N   UNL     1      -9.562   3.527 129.570  0.00  0.00    +0.000 NA
ATOM     22  C   UNL     1      -8.904   4.835 129.652  0.00  0.00    +0.000 C 
ENDBRANCH  19  21
ENDBRANCH  18  19
ENDBRANCH  17  18
ENDBRANCH   1  17
TORSDOF 4
ENDMDL
MODEL 3
REMARK VINA RESULT:      -6.6      3.676      5.550
REMARK  Name = Zotepine
REMARK  6 active torsions:
REMARK  status: ('A' for Active; 'I' for Inactive)
REMARK    1  A    between atoms: C_1  and  N_2
REMARK    2  A    between atoms: N_2  and  C_3
REMARK    3  A    between atoms: N_2  and  C_4
REMARK    4  A    between atoms: C_4  and  C_5
REMARK    5  A    between atoms: C_5  and  O_6
REMARK    6  A    between atoms: O_6  and  C_7
REMARK                            x       y       z     vdW  Elec       q    Type
REMARK                         _______ _______ _______ _____ _____    ______ ____
ROOT
ATOM      1  C   UNL     1      -6.373  -0.341 125.771  0.00  0.00    +0.000 C 
ATOM      2  C   UNL     1      -6.720   0.490 124.774  0.00  0.00    +0.000 C 
ATOM      3  C   UNL     1      -7.927   0.428 123.923  0.00  0.00    +0.000 A 
ATOM      4  C   UNL     1      -8.586   1.622 123.598  0.00  0.00    +0.000 A 
ATOM      5  C   UNL     1      -9.749   1.607 122.820  0.00  0.00    +0.000 A 
ATOM      6  C   UNL     1     -10.285   0.400 122.379  0.00  0.00    +0.000 A 
ATOM      7  C   UNL     1      -9.629  -0.789 122.668  0.00  0.00    +0.000 A 
ATOM      8  C   UNL     1      -8.430  -0.771 123.389  0.00  0.00    +0.000 A 
ATOM      9  S   UNL     1      -7.590  -2.326 123.598  0.00  0.00    +0.000 S 
ATOM     10  C   UNL     1      -7.801  -2.413 125.363  0.00  0.00    +0.000 A 
ATOM     11  C   UNL     1      -8.616  -3.449 125.837  0.00  0.00    +0.000 A 
ATOM     12  C   UNL     1      -8.752  -3.661 127.202  0.00  0.00    +0.000 A 
ATOM     13  C   UNL     1      -8.101  -2.814 128.091  0.00  0.00    +0.000 A 
ATOM     14 CL   UNL     1      -8.188  -3.136 129.778  0.00  0.00    +0.000 Cl
ATOM     15  C   UNL     1      -7.359  -1.723 127.627  0.00  0.00    +0.000 A 
ATOM     16  C   UNL     1      -7.196  -1.497 126.248  0.00  0.00    +0.000 A 
ENDROOT
BRANCH   1  17
ATOM     17  O   UNL     1      -5.212  -0.038 126.483  0.00  0.00    +0.000 OA
BRANCH  17  18
ATOM     18  C   UNL     1      -5.221   1.270 127.067  0.00  0.00    +0.000 C 
BRANCH  18  19
ATOM     19  C   UNL     1      -4.085   2.102 126.461  0.00  0.00    +0.000 C 
BRANCH  19  21
ATOM     20  C   UNL     1      -3.782   2.734 128.763  0.00  0.00    +0.000 C 
ATOM     21  N   UNL     1      -3.582   3.148 127.373  0.00  0.00    +0.000 NA
ATOM     22  C   UNL     1      -2.158   3.421 127.150  0.00  0.00    +0.000 C 
ENDBRANCH  19  21
ENDBRANCH  18  19
ENDBRANCH  17  18
ENDBRANCH   1  17
TORSDOF 4
ENDMDL
MODEL 4
REMARK VINA RESULT:      -6.5      5.056      6.935
REMARK  Name = Zotepine
REMARK  6 active torsions:
REMARK  status: ('A' for Active; 'I' for Inactive)
REMARK    1  A    between atoms: C_1  and  N_2
REMARK    2  A    between atoms: N_2  and  C_3
REMARK    3  A    between atoms: N_2  and  C_4
REMARK    4  A    between atoms: C_4  and  C_5
REMARK    5  A    between atoms: C_5  and  O_6
REMARK    6  A    between atoms: O_6  and  C_7
REMARK                            x       y       z     vdW  Elec       q    Type
REMARK                         _______ _______ _______ _____ _____    ______ ____
ROOT
ATOM      1  C   UNL     1      -7.307   1.028 127.610  0.00  0.00    +0.000 C 
ATOM      2  C   UNL     1      -7.258  -0.126 126.924  0.00  0.00    +0.000 C 
ATOM      3  C   UNL     1      -7.799  -1.443 127.326  0.00  0.00    +0.000 A 
ATOM      4  C   UNL     1      -8.436  -2.234 126.361  0.00  0.00    +0.000 A 
ATOM      5  C   UNL     1      -8.987  -3.474 126.706  0.00  0.00    +0.000 A 
ATOM      6  C   UNL     1      -8.935  -3.926 128.022  0.00  0.00    +0.000 A 
ATOM      7  C   UNL     1      -8.282  -3.167 128.983  0.00  0.00    +0.000 A 
ATOM      8  C   UNL     1      -7.672  -1.959 128.627  0.00  0.00    +0.000 A 
ATOM      9  S   UNL     1      -6.745  -1.119 129.894  0.00  0.00    +0.000 S 
ATOM     10  C   UNL     1      -7.818   0.296 129.998  0.00  0.00    +0.000 A 
ATOM     11  C   UNL     1      -8.508   0.460 131.206  0.00  0.00    +0.000 A 
ATOM     12  C   UNL     1      -9.284   1.591 131.419  0.00  0.00    +0.000 A 
ATOM     13  C   UNL     1      -9.395   2.541 130.409  0.00  0.00    +0.000 A 
ATOM     14 CL   UNL     1     -10.274   3.989 130.707  0.00  0.00    +0.000 Cl
ATOM     15  C   UNL     1      -8.782   2.340 129.168  0.00  0.00    +0.000 A 
ATOM     16  C   UNL     1      -7.980   1.208 128.935  0.00  0.00    +0.000 A 
ENDROOT
BRANCH   1  17
ATOM     17  O   UNL     1      -6.786   2.164 126.990  0.00  0.00    +0.000 OA
BRANCH  17  18
ATOM     18  C   UNL     1      -7.021   2.207 125.578  0.00  0.00    +0.000 C 
BRANCH  18  19
ATOM     19  C   UNL     1      -8.004   3.342 125.265  0.00  0.00    +0.000 C 
BRANCH  19  21
ATOM     20  C   UNL     1      -7.952   3.004 122.883  0.00  0.00    +0.000 C 
ATOM     21  N   UNL     1      -8.818   3.088 124.060  0.00  0.00    +0.000 NA
ATOM     22  C   UNL     1      -9.592   1.849 124.181  0.00  0.00    +0.000 C 
ENDBRANCH  19  21
ENDBRANCH  18  19
ENDBRANCH  17  18
ENDBRANCH   1  17
TORSDOF 4
ENDMDL
MODEL 5
REMARK VINA RESULT:      -6.5      3.607      5.579
REMARK  Name = Zotepine
REMARK  6 active torsions:
REMARK  status: ('A' for Active; 'I' for Inactive)
REMARK    1  A    between atoms: C_1  and  N_2
REMARK    2  A    between atoms: N_2  and  C_3
REMARK    3  A    between atoms: N_2  and  C_4
REMARK    4  A    between atoms: C_4  and  C_5
REMARK    5  A    between atoms: C_5  and  O_6
REMARK    6  A    between atoms: O_6  and  C_7
REMARK                            x       y       z     vdW  Elec       q    Type
REMARK                         _______ _______ _______ _____ _____    ______ ____
ROOT
ATOM      1  C   UNL     1      -7.160   1.119 124.751  0.00  0.00    +0.000 C 
ATOM      2  C   UNL     1      -7.396   0.197 123.803  0.00  0.00    +0.000 C 
ATOM      3  C   UNL     1      -7.871  -1.191 123.990  0.00  0.00    +0.000 A 
ATOM      4  C   UNL     1      -8.823  -1.705 123.098  0.00  0.00    +0.000 A 
ATOM      5  C   UNL     1      -9.320  -3.003 123.255  0.00  0.00    +0.000 A 
ATOM      6  C   UNL     1      -8.897  -3.796 124.319  0.00  0.00    +0.000 A 
ATOM      7  C   UNL     1      -7.935  -3.311 125.195  0.00  0.00    +0.000 A 
ATOM      8  C   UNL     1      -7.386  -2.039 125.001  0.00  0.00    +0.000 A 
ATOM      9  S   UNL     1      -6.065  -1.555 126.090  0.00  0.00    +0.000 S 
ATOM     10  C   UNL     1      -6.962  -0.246 126.895  0.00  0.00    +0.000 A 
ATOM     11  C   UNL     1      -7.238  -0.432 128.256  0.00  0.00    +0.000 A 
ATOM     12  C   UNL     1      -7.838   0.581 128.992  0.00  0.00    +0.000 A 
ATOM     13  C   UNL     1      -8.191   1.766 128.357  0.00  0.00    +0.000 A 
ATOM     14 CL   UNL     1      -8.842   3.058 129.287  0.00  0.00    +0.000 Cl
ATOM     15  C   UNL     1      -8.000   1.925 126.980  0.00  0.00    +0.000 A 
ATOM     16  C   UNL     1      -7.382   0.917 126.218  0.00  0.00    +0.000 A 
ENDROOT
BRANCH   1  17
ATOM     17  O   UNL     1      -6.781   2.393 124.324  0.00  0.00    +0.000 OA
BRANCH  17  18
ATOM     18  C   UNL     1      -7.222   2.709 122.999  0.00  0.00    +0.000 C 
BRANCH  18  19
ATOM     19  C   UNL     1      -6.238   3.699 122.363  0.00  0.00    +0.000 C 
BRANCH  19  21
ATOM     20  C   UNL     1      -7.659   3.914 120.433  0.00  0.00    +0.000 C 
ATOM     21  N   UNL     1      -6.285   3.696 120.888  0.00  0.00    +0.000 NA
ATOM     22  C   UNL     1      -5.417   4.731 120.317  0.00  0.00    +0.000 C 
ENDBRANCH  19  21
ENDBRANCH  18  19
ENDBRANCH  17  18
ENDBRANCH   1  17
TORSDOF 4
ENDMDL
MODEL 6
REMARK VINA RESULT:      -6.5      5.153      6.638
REMARK  Name = Zotepine
REMARK  6 active torsions:
REMARK  status: ('A' for Active; 'I' for Inactive)
REMARK    1  A    between atoms: C_1  and  N_2
REMARK    2  A    between atoms: N_2  and  C_3
REMARK    3  A    between atoms: N_2  and  C_4
REMARK    4  A    between atoms: C_4  and  C_5
REMARK    5  A    between atoms: C_5  and  O_6
REMARK    6  A    between atoms: O_6  and  C_7
REMARK                            x       y       z     vdW  Elec       q    Type
REMARK                         _______ _______ _______ _____ _____    ______ ____
ROOT
ATOM      1  C   UNL     1      -7.075   0.879 128.120  0.00  0.00    +0.000 C 
ATOM      2  C   UNL     1      -7.009  -0.233 127.369  0.00  0.00    +0.000 C 
ATOM      3  C   UNL     1      -7.667  -1.534 127.617  0.00  0.00    +0.000 A 
ATOM      4  C   UNL     1      -8.229  -2.224 126.535  0.00  0.00    +0.000 A 
ATOM      5  C   UNL     1      -8.886  -3.444 126.729  0.00  0.00    +0.000 A 
ATOM      6  C   UNL     1      -9.017  -3.976 128.009  0.00  0.00    +0.000 A 
ATOM      7  C   UNL     1      -8.442  -3.319 129.089  0.00  0.00    +0.000 A 
ATOM      8  C   UNL     1      -7.726  -2.134 128.887  0.00  0.00    +0.000 A 
ATOM      9  S   UNL     1      -6.911  -1.432 130.305  0.00  0.00    +0.000 S 
ATOM     10  C   UNL     1      -7.907   0.040 130.379  0.00  0.00    +0.000 A 
ATOM     11  C   UNL     1      -8.726   0.175 131.508  0.00  0.00    +0.000 A 
ATOM     12  C   UNL     1      -9.457   1.339 131.705  0.00  0.00    +0.000 A 
ATOM     13  C   UNL     1      -9.393   2.352 130.755  0.00  0.00    +0.000 A 
ATOM     14 CL   UNL     1     -10.217   3.833 131.046  0.00  0.00    +0.000 Cl
ATOM     15  C   UNL     1      -8.648   2.188 129.583  0.00  0.00    +0.000 A 
ATOM     16  C   UNL     1      -7.889   1.022 129.368  0.00  0.00    +0.000 A 
ENDROOT
BRANCH   1  17
ATOM     17  O   UNL     1      -6.420   2.015 127.642  0.00  0.00    +0.000 OA
BRANCH  17  18
ATOM     18  C   UNL     1      -5.138   2.233 128.242  0.00  0.00    +0.000 C 
BRANCH  18  19
ATOM     19  C   UNL     1      -4.110   2.524 127.141  0.00  0.00    +0.000 C 
BRANCH  19  21
ATOM     20  C   UNL     1      -1.839   3.090 126.578  0.00  0.00    +0.000 C 
ATOM     21  N   UNL     1      -2.808   2.979 127.670  0.00  0.00    +0.000 NA
ATOM     22  C   UNL     1      -2.922   4.273 128.349  0.00  0.00    +0.000 C 
ENDBRANCH  19  21
ENDBRANCH  18  19
ENDBRANCH  17  18
ENDBRANCH   1  17
TORSDOF 4
ENDMDL
MODEL 7
REMARK VINA RESULT:      -6.4      3.947      5.297
REMARK  Name = Zotepine
REMARK  6 active torsions:
REMARK  status: ('A' for Active; 'I' for Inactive)
REMARK    1  A    between atoms: C_1  and  N_2
REMARK    2  A    between atoms: N_2  and  C_3
REMARK    3  A    between atoms: N_2  and  C_4
REMARK    4  A    between atoms: C_4  and  C_5
REMARK    5  A    between atoms: C_5  and  O_6
REMARK    6  A    between atoms: O_6  and  C_7
REMARK                            x       y       z     vdW  Elec       q    Type
REMARK                         _______ _______ _______ _____ _____    ______ ____
ROOT
ATOM      1  C   UNL     1      -5.567  -0.251 127.202  0.00  0.00    +0.000 C 
ATOM      2  C   UNL     1      -5.722  -1.427 126.570  0.00  0.00    +0.000 C 
ATOM      3  C   UNL     1      -5.853  -1.663 125.116  0.00  0.00    +0.000 A 
ATOM      4  C   UNL     1      -5.189  -2.758 124.547  0.00  0.00    +0.000 A 
ATOM      5  C   UNL     1      -5.262  -3.002 123.171  0.00  0.00    +0.000 A 
ATOM      6  C   UNL     1      -5.976  -2.140 122.341  0.00  0.00    +0.000 A 
ATOM      7  C   UNL     1      -6.662  -1.067 122.893  0.00  0.00    +0.000 A 
ATOM      8  C   UNL     1      -6.645  -0.861 124.277  0.00  0.00    +0.000 A 
ATOM      9  S   UNL     1      -7.660   0.458 124.909  0.00  0.00    +0.000 S 
ATOM     10  C   UNL     1      -6.312   1.471 125.476  0.00  0.00    +0.000 A 
ATOM     11  C   UNL     1      -6.142   2.696 124.819  0.00  0.00    +0.000 A 
ATOM     12  C   UNL     1      -5.185   3.600 125.263  0.00  0.00    +0.000 A 
ATOM     13  C   UNL     1      -4.378   3.260 126.343  0.00  0.00    +0.000 A 
ATOM     14 CL   UNL     1      -3.262   4.417 126.956  0.00  0.00    +0.000 Cl
ATOM     15  C   UNL     1      -4.482   2.003 126.946  0.00  0.00    +0.000 A 
ATOM     16  C   UNL     1      -5.452   1.078 126.522  0.00  0.00    +0.000 A 
ENDROOT
BRANCH   1  17
ATOM     17  O   UNL     1      -5.394  -0.286 128.586  0.00  0.00    +0.000 OA
BRANCH  17  18
ATOM     18  C   UNL     1      -6.614  -0.468 129.313  0.00  0.00    +0.000 C 
BRANCH  18  19
ATOM     19  C   UNL     1      -6.464  -1.666 130.259  0.00  0.00    +0.000 C 
BRANCH  19  21
ATOM     20  C   UNL     1      -6.148  -4.046 130.429  0.00  0.00    +0.000 C 
ATOM     21  N   UNL     1      -6.661  -2.964 129.585  0.00  0.00    +0.000 NA
ATOM     22  C   UNL     1      -8.076  -3.212 129.291  0.00  0.00    +0.000 C 
ENDBRANCH  19  21
ENDBRANCH  18  19
ENDBRANCH  17  18
ENDBRANCH   1  17
TORSDOF 4
ENDMDL
MODEL 8
REMARK VINA RESULT:      -6.4      4.547      6.441
REMARK  Name = Zotepine
REMARK  6 active torsions:
REMARK  status: ('A' for Active; 'I' for Inactive)
REMARK    1  A    between atoms: C_1  and  N_2
REMARK    2  A    between atoms: N_2  and  C_3
REMARK    3  A    between atoms: N_2  and  C_4
REMARK    4  A    between atoms: C_4  and  C_5
REMARK    5  A    between atoms: C_5  and  O_6
REMARK    6  A    between atoms: O_6  and  C_7
REMARK                            x       y       z     vdW  Elec       q    Type
REMARK                         _______ _______ _______ _____ _____    ______ ____
ROOT
ATOM      1  C   UNL     1      -5.606  -0.392 127.121  0.00  0.00    +0.000 C 
ATOM      2  C   UNL     1      -5.227  -0.680 128.377  0.00  0.00    +0.000 C 
ATOM      3  C   UNL     1      -5.375  -1.964 129.096  0.00  0.00    +0.000 A 
ATOM      4  C   UNL     1      -4.321  -2.410 129.905  0.00  0.00    +0.000 A 
ATOM      5  C   UNL     1      -4.408  -3.633 130.580  0.00  0.00    +0.000 A 
ATOM      6  C   UNL     1      -5.533  -4.440 130.434  0.00  0.00    +0.000 A 
ATOM      7  C   UNL     1      -6.597  -3.999 129.657  0.00  0.00    +0.000 A 
ATOM      8  C   UNL     1      -6.541  -2.747 129.036  0.00  0.00    +0.000 A 
ATOM      9  S   UNL     1      -8.001  -2.208 128.173  0.00  0.00    +0.000 S 
ATOM     10  C   UNL     1      -7.274  -2.234 126.550  0.00  0.00    +0.000 A 
ATOM     11  C   UNL     1      -7.796  -3.176 125.654  0.00  0.00    +0.000 A 
ATOM     12  C   UNL     1      -7.366  -3.198 124.334  0.00  0.00    +0.000 A 
ATOM     13  C   UNL     1      -6.390  -2.298 123.921  0.00  0.00    +0.000 A 
ATOM     14 CL   UNL     1      -5.929  -2.257 122.265  0.00  0.00    +0.000 Cl
ATOM     15  C   UNL     1      -5.800  -1.415 124.831  0.00  0.00    +0.000 A 
ATOM     16  C   UNL     1      -6.230  -1.367 126.170  0.00  0.00    +0.000 A 
ENDROOT
BRANCH   1  17
ATOM     17  O   UNL     1      -5.296   0.878 126.634  0.00  0.00    +0.000 OA
BRANCH  17  18
ATOM     18  C   UNL     1      -6.124   1.916 127.169  0.00  0.00    +0.000 C 
BRANCH  18  19
ATOM     19  C   UNL     1      -7.264   2.209 126.185  0.00  0.00    +0.000 C 
BRANCH  19  21
ATOM     20  C   UNL     1      -9.247   0.851 126.060  0.00  0.00    +0.000 C 
ATOM     21  N   UNL     1      -8.602   1.964 126.759  0.00  0.00    +0.000 NA
ATOM     22  C   UNL     1      -8.529   1.658 128.191  0.00  0.00    +0.000 C 
ENDBRANCH  19  21
ENDBRANCH  18  19
ENDBRANCH  17  18
ENDBRANCH   1  17
TORSDOF 4
ENDMDL
MODEL 9
REMARK VINA RESULT:      -6.3      1.826      2.522
REMARK  Name = Zotepine
REMARK  6 active torsions:
REMARK  status: ('A' for Active; 'I' for Inactive)
REMARK    1  A    between atoms: C_1  and  N_2
REMARK    2  A    between atoms: N_2  and  C_3
REMARK    3  A    between atoms: N_2  and  C_4
REMARK    4  A    between atoms: C_4  and  C_5
REMARK    5  A    between atoms: C_5  and  O_6
REMARK    6  A    between atoms: O_6  and  C_7
REMARK                            x       y       z     vdW  Elec       q    Type
REMARK                         _______ _______ _______ _____ _____    ______ ____
ROOT
ATOM      1  C   UNL     1      -6.393   1.321 124.941  0.00  0.00    +0.000 C 
ATOM      2  C   UNL     1      -5.854   0.151 125.324  0.00  0.00    +0.000 C 
ATOM      3  C   UNL     1      -6.338  -1.212 125.017  0.00  0.00    +0.000 A 
ATOM      4  C   UNL     1      -5.401  -2.205 124.699  0.00  0.00    +0.000 A 
ATOM      5  C   UNL     1      -5.817  -3.501 124.373  0.00  0.00    +0.000 A 
ATOM      6  C   UNL     1      -7.173  -3.816 124.333  0.00  0.00    +0.000 A 
ATOM      7  C   UNL     1      -8.112  -2.851 124.673  0.00  0.00    +0.000 A 
ATOM      8  C   UNL     1      -7.695  -1.574 125.064  0.00  0.00    +0.000 A 
ATOM      9  S   UNL     1      -8.958  -0.445 125.610  0.00  0.00    +0.000 S 
ATOM     10  C   UNL     1      -8.771   0.703 124.263  0.00  0.00    +0.000 A 
ATOM     11  C   UNL     1      -9.862   0.815 123.391  0.00  0.00    +0.000 A 
ATOM     12  C   UNL     1      -9.850   1.761 122.376  0.00  0.00    +0.000 A 
ATOM     13  C   UNL     1      -8.733   2.572 122.213  0.00  0.00    +0.000 A 
ATOM     14 CL   UNL     1      -8.757   3.811 121.021  0.00  0.00    +0.000 Cl
ATOM     15  C   UNL     1      -7.605   2.406 123.023  0.00  0.00    +0.000 A 
ATOM     16  C   UNL     1      -7.600   1.462 124.066  0.00  0.00    +0.000 A 
ENDROOT
BRANCH   1  17
ATOM     17  O   UNL     1      -5.713   2.486 125.298  0.00  0.00    +0.000 OA
BRANCH  17  18
ATOM     18  C   UNL     1      -6.327   3.201 126.376  0.00  0.00    +0.000 C 
BRANCH  18  19
ATOM     19  C   UNL     1      -5.235   3.834 127.248  0.00  0.00    +0.000 C 
BRANCH  19  21
ATOM     20  C   UNL     1      -2.839   3.804 127.024  0.00  0.00    +0.000 C 
ATOM     21  N   UNL     1      -4.020   3.002 127.350  0.00  0.00    +0.000 NA
ATOM     22  C   UNL     1      -3.864   2.435 128.693  0.00  0.00    +0.000 C 
ENDBRANCH  19  21
ENDBRANCH  18  19
ENDBRANCH  17  18
ENDBRANCH   1  17
TORSDOF 4
ENDMDL
