MODEL 1
REMARK VINA RESULT:      -6.9      0.000      0.000
REMARK  Name = Zucapsaicin
REMARK  13 active torsions:
REMARK  status: ('A' for Active; 'I' for Inactive)
REMARK    1  A    between atoms: C_1  and  O_2
REMARK    2  A    between atoms: O_2  and  C_3
REMARK    3  A    between atoms: C_4  and  O_5
REMARK    4  A    between atoms: C_8  and  C_9
REMARK    5  A    between atoms: C_9  and  N_10
REMARK    6  A    between atoms: C_11  and  C_13
REMARK    7  A    between atoms: C_13  and  C_14
REMARK    8  A    between atoms: C_14  and  C_15
REMARK    9  A    between atoms: C_15  and  C_16
REMARK   10  A    between atoms: C_16  and  C_17
REMARK   11  A    between atoms: C_18  and  C_19
REMARK   12  A    between atoms: C_19  and  C_20
REMARK   13  A    between atoms: C_19  and  C_21
REMARK                            x       y       z     vdW  Elec       q    Type
REMARK                         _______ _______ _______ _____ _____    ______ ____
ROOT
ATOM      1  N   UNL     1      -7.310   1.745 123.024  0.00  0.00    +0.000 N 
ATOM      2  C   UNL     1      -7.786   1.109 124.138  0.00  0.00    +0.000 C 
ATOM      3  O   UNL     1      -7.506   1.468 125.280  0.00  0.00    +0.000 OA
ATOM      4  H   UNL     1      -7.597   1.378 122.133  0.00  0.00    +0.000 HD
ENDROOT
BRANCH   1   5
ATOM      5  C   UNL     1      -6.431   2.897 123.120  0.00  0.00    +0.000 C 
BRANCH   5  10
ATOM      6  C   UNL     1      -7.017   4.418 119.632  0.00  0.00    +0.000 A 
ATOM      7  C   UNL     1      -5.828   5.126 119.464  0.00  0.00    +0.000 A 
ATOM      8  C   UNL     1      -4.853   5.130 120.455  0.00  0.00    +0.000 A 
ATOM      9  C   UNL     1      -5.059   4.411 121.638  0.00  0.00    +0.000 A 
ATOM     10  C   UNL     1      -6.240   3.675 121.835  0.00  0.00    +0.000 A 
ATOM     11  C   UNL     1      -7.201   3.696 120.811  0.00  0.00    +0.000 A 
BRANCH   6  13
ATOM     12  C   UNL     1      -9.297   4.287 118.986  0.00  0.00    +0.000 C 
ATOM     13  O   UNL     1      -7.932   4.482 118.611  0.00  0.00    +0.000 OA
ENDBRANCH   6  13
BRANCH   7  14
ATOM     14  O   UNL     1      -5.588   5.835 118.320  0.00  0.00    +0.000 OA
ATOM     15  H   UNL     1      -5.584   5.177 117.599  0.00  0.00    +0.000 HD
ENDBRANCH   7  14
ENDBRANCH   5  10
ENDBRANCH   1   5
BRANCH   2  16
ATOM     16  C   UNL     1      -8.682  -0.073 123.818  0.00  0.00    +0.000 C 
BRANCH  16  17
ATOM     17  C   UNL     1      -8.947  -0.886 125.070  0.00  0.00    +0.000 C 
BRANCH  17  18
ATOM     18  C   UNL     1      -8.916  -2.383 124.781  0.00  0.00    +0.000 C 
BRANCH  18  19
ATOM     19  C   UNL     1      -7.950  -3.031 125.750  0.00  0.00    +0.000 C 
BRANCH  19  20
ATOM     20  C   UNL     1      -6.680  -2.268 125.960  0.00  0.00    +0.000 C 
ATOM     21  C   UNL     1      -5.671  -2.277 125.071  0.00  0.00    +0.000 C 
BRANCH  21  22
ATOM     22  C   UNL     1      -5.693  -3.042 123.763  0.00  0.00    +0.000 C 
ATOM     23  C   UNL     1      -5.908  -2.134 122.547  0.00  0.00    +0.000 C 
ATOM     24  C   UNL     1      -4.381  -3.794 123.547  0.00  0.00    +0.000 C 
ENDBRANCH  21  22
ENDBRANCH  19  20
ENDBRANCH  18  19
ENDBRANCH  17  18
ENDBRANCH  16  17
ENDBRANCH   2  16
TORSDOF 10
ENDMDL
MODEL 2
REMARK VINA RESULT:      -6.8      2.330      3.733
REMARK  Name = Zucapsaicin
REMARK  13 active torsions:
REMARK  status: ('A' for Active; 'I' for Inactive)
REMARK    1  A    between atoms: C_1  and  O_2
REMARK    2  A    between atoms: O_2  and  C_3
REMARK    3  A    between atoms: C_4  and  O_5
REMARK    4  A    between atoms: C_8  and  C_9
REMARK    5  A    between atoms: C_9  and  N_10
REMARK    6  A    between atoms: C_11  and  C_13
REMARK    7  A    between atoms: C_13  and  C_14
REMARK    8  A    between atoms: C_14  and  C_15
REMARK    9  A    between atoms: C_15  and  C_16
REMARK   10  A    between atoms: C_16  and  C_17
REMARK   11  A    between atoms: C_18  and  C_19
REMARK   12  A    between atoms: C_19  and  C_20
REMARK   13  A    between atoms: C_19  and  C_21
REMARK                            x       y       z     vdW  Elec       q    Type
REMARK                         _______ _______ _______ _____ _____    ______ ____
ROOT
ATOM      1  N   UNL     1      -8.694   0.856 123.225  0.00  0.00    +0.000 N 
ATOM      2  C   UNL     1      -9.653  -0.028 122.814  0.00  0.00    +0.000 C 
ATOM      3  O   UNL     1     -10.743   0.330 122.372  0.00  0.00    +0.000 OA
ATOM      4  H   UNL     1      -7.833   0.467 123.570  0.00  0.00    +0.000 HD
ENDROOT
BRANCH   1   5
ATOM      5  C   UNL     1      -8.906   2.293 123.168  0.00  0.00    +0.000 C 
BRANCH   5  10
ATOM      6  C   UNL     1      -6.268   3.872 120.850  0.00  0.00    +0.000 A 
ATOM      7  C   UNL     1      -7.083   4.320 119.811  0.00  0.00    +0.000 A 
ATOM      8  C   UNL     1      -8.458   4.112 119.841  0.00  0.00    +0.000 A 
ATOM      9  C   UNL     1      -9.038   3.450 120.928  0.00  0.00    +0.000 A 
ATOM     10  C   UNL     1      -8.248   2.997 121.999  0.00  0.00    +0.000 A 
ATOM     11  C   UNL     1      -6.864   3.225 121.932  0.00  0.00    +0.000 A 
BRANCH   6  13
ATOM     12  C   UNL     1      -4.356   4.996 121.693  0.00  0.00    +0.000 C 
ATOM     13  O   UNL     1      -4.921   4.104 120.731  0.00  0.00    +0.000 OA
ENDBRANCH   6  13
BRANCH   7  14
ATOM     14  O   UNL     1      -6.553   4.977 118.736  0.00  0.00    +0.000 OA
ATOM     15  H   UNL     1      -5.593   5.024 118.903  0.00  0.00    +0.000 HD
ENDBRANCH   7  14
ENDBRANCH   5  10
ENDBRANCH   1   5
BRANCH   2  16
ATOM     16  C   UNL     1      -9.235  -1.480 122.962  0.00  0.00    +0.000 C 
BRANCH  16  17
ATOM     17  C   UNL     1      -8.402  -1.661 124.216  0.00  0.00    +0.000 C 
BRANCH  17  18
ATOM     18  C   UNL     1      -9.225  -2.263 125.351  0.00  0.00    +0.000 C 
BRANCH  18  19
ATOM     19  C   UNL     1      -8.270  -2.754 126.417  0.00  0.00    +0.000 C 
BRANCH  19  20
ATOM     20  C   UNL     1      -8.870  -3.725 127.385  0.00  0.00    +0.000 C 
ATOM     21  C   UNL     1      -8.454  -3.832 128.659  0.00  0.00    +0.000 C 
BRANCH  21  22
ATOM     22  C   UNL     1      -7.349  -2.993 129.270  0.00  0.00    +0.000 C 
ATOM     23  C   UNL     1      -7.879  -1.765 130.019  0.00  0.00    +0.000 C 
ATOM     24  C   UNL     1      -6.523  -3.811 130.259  0.00  0.00    +0.000 C 
ENDBRANCH  21  22
ENDBRANCH  19  20
ENDBRANCH  18  19
ENDBRANCH  17  18
ENDBRANCH  16  17
ENDBRANCH   2  16
TORSDOF 10
ENDMDL
MODEL 3
REMARK VINA RESULT:      -6.6      1.746      2.712
REMARK  Name = Zucapsaicin
REMARK  13 active torsions:
REMARK  status: ('A' for Active; 'I' for Inactive)
REMARK    1  A    between atoms: C_1  and  O_2
REMARK    2  A    between atoms: O_2  and  C_3
REMARK    3  A    between atoms: C_4  and  O_5
REMARK    4  A    between atoms: C_8  and  C_9
REMARK    5  A    between atoms: C_9  and  N_10
REMARK    6  A    between atoms: C_11  and  C_13
REMARK    7  A    between atoms: C_13  and  C_14
REMARK    8  A    between atoms: C_14  and  C_15
REMARK    9  A    between atoms: C_15  and  C_16
REMARK   10  A    between atoms: C_16  and  C_17
REMARK   11  A    between atoms: C_18  and  C_19
REMARK   12  A    between atoms: C_19  and  C_20
REMARK   13  A    between atoms: C_19  and  C_21
REMARK                            x       y       z     vdW  Elec       q    Type
REMARK                         _______ _______ _______ _____ _____    ______ ____
ROOT
ATOM      1  N   UNL     1      -8.260   0.447 123.673  0.00  0.00    +0.000 N 
ATOM      2  C   UNL     1      -9.543   0.166 123.288  0.00  0.00    +0.000 C 
ATOM      3  O   UNL     1     -10.488   0.917 123.523  0.00  0.00    +0.000 OA
ATOM      4  H   UNL     1      -7.555  -0.228 123.434  0.00  0.00    +0.000 HD
ENDROOT
BRANCH   1   5
ATOM      5  C   UNL     1      -7.930   1.663 124.397  0.00  0.00    +0.000 C 
BRANCH   5  10
ATOM      6  C   UNL     1      -6.135   3.605 121.599  0.00  0.00    +0.000 A 
ATOM      7  C   UNL     1      -5.291   4.415 122.357  0.00  0.00    +0.000 A 
ATOM      8  C   UNL     1      -5.300   4.353 123.747  0.00  0.00    +0.000 A 
ATOM      9  C   UNL     1      -6.162   3.464 124.399  0.00  0.00    +0.000 A 
ATOM     10  C   UNL     1      -7.016   2.623 123.664  0.00  0.00    +0.000 A 
ATOM     11  C   UNL     1      -6.978   2.715 122.264  0.00  0.00    +0.000 A 
BRANCH   6  13
ATOM     12  C   UNL     1      -7.261   4.225 119.604  0.00  0.00    +0.000 C 
ATOM     13  O   UNL     1      -6.073   3.743 120.235  0.00  0.00    +0.000 OA
ENDBRANCH   6  13
BRANCH   7  14
ATOM     14  O   UNL     1      -4.430   5.291 121.756  0.00  0.00    +0.000 OA
ATOM     15  H   UNL     1      -3.899   5.675 122.478  0.00  0.00    +0.000 HD
ENDBRANCH   7  14
ENDBRANCH   5  10
ENDBRANCH   1   5
BRANCH   2  16
ATOM     16  C   UNL     1      -9.673  -1.154 122.550  0.00  0.00    +0.000 C 
BRANCH  16  17
ATOM     17  C   UNL     1      -8.476  -2.038 122.842  0.00  0.00    +0.000 C 
BRANCH  17  18
ATOM     18  C   UNL     1      -8.861  -3.228 123.716  0.00  0.00    +0.000 C 
BRANCH  18  19
ATOM     19  C   UNL     1      -7.710  -3.515 124.655  0.00  0.00    +0.000 C 
BRANCH  19  20
ATOM     20  C   UNL     1      -6.363  -3.152 124.113  0.00  0.00    +0.000 C 
ATOM     21  C   UNL     1      -5.568  -2.238 124.696  0.00  0.00    +0.000 C 
BRANCH  21  22
ATOM     22  C   UNL     1      -5.923  -1.477 125.957  0.00  0.00    +0.000 C 
ATOM     23  C   UNL     1      -5.490  -2.206 127.234  0.00  0.00    +0.000 C 
ATOM     24  C   UNL     1      -5.261  -0.100 125.970  0.00  0.00    +0.000 C 
ENDBRANCH  21  22
ENDBRANCH  19  20
ENDBRANCH  18  19
ENDBRANCH  17  18
ENDBRANCH  16  17
ENDBRANCH   2  16
TORSDOF 10
ENDMDL
MODEL 4
REMARK VINA RESULT:      -6.4      2.938      4.139
REMARK  Name = Zucapsaicin
REMARK  13 active torsions:
REMARK  status: ('A' for Active; 'I' for Inactive)
REMARK    1  A    between atoms: C_1  and  O_2
REMARK    2  A    between atoms: O_2  and  C_3
REMARK    3  A    between atoms: C_4  and  O_5
REMARK    4  A    between atoms: C_8  and  C_9
REMARK    5  A    between atoms: C_9  and  N_10
REMARK    6  A    between atoms: C_11  and  C_13
REMARK    7  A    between atoms: C_13  and  C_14
REMARK    8  A    between atoms: C_14  and  C_15
REMARK    9  A    between atoms: C_15  and  C_16
REMARK   10  A    between atoms: C_16  and  C_17
REMARK   11  A    between atoms: C_18  and  C_19
REMARK   12  A    between atoms: C_19  and  C_20
REMARK   13  A    between atoms: C_19  and  C_21
REMARK                            x       y       z     vdW  Elec       q    Type
REMARK                         _______ _______ _______ _____ _____    ______ ____
ROOT
ATOM      1  N   UNL     1      -7.207   0.021 127.289  0.00  0.00    +0.000 N 
ATOM      2  C   UNL     1      -6.706  -0.929 128.136  0.00  0.00    +0.000 C 
ATOM      3  O   UNL     1      -5.509  -1.020 128.402  0.00  0.00    +0.000 OA
ATOM      4  H   UNL     1      -8.201   0.016 127.136  0.00  0.00    +0.000 HD
ENDROOT
BRANCH   1   5
ATOM      5  C   UNL     1      -6.345   0.993 126.638  0.00  0.00    +0.000 C 
BRANCH   5  10
ATOM      6  C   UNL     1      -8.778   2.039 123.844  0.00  0.00    +0.000 A 
ATOM      7  C   UNL     1      -8.011   3.003 123.191  0.00  0.00    +0.000 A 
ATOM      8  C   UNL     1      -6.736   3.327 123.642  0.00  0.00    +0.000 A 
ATOM      9  C   UNL     1      -6.207   2.676 124.762  0.00  0.00    +0.000 A 
ATOM     10  C   UNL     1      -6.948   1.688 125.435  0.00  0.00    +0.000 A 
ATOM     11  C   UNL     1      -8.231   1.390 124.951  0.00  0.00    +0.000 A 
BRANCH   6  13
ATOM     12  C   UNL     1     -10.179   0.582 122.599  0.00  0.00    +0.000 C 
ATOM     13  O   UNL     1     -10.032   1.794 123.342  0.00  0.00    +0.000 OA
ENDBRANCH   6  13
BRANCH   7  14
ATOM     14  O   UNL     1      -8.491   3.656 122.090  0.00  0.00    +0.000 OA
ATOM     15  H   UNL     1      -8.552   4.595 122.346  0.00  0.00    +0.000 HD
ENDBRANCH   7  14
ENDBRANCH   5  10
ENDBRANCH   1   5
BRANCH   2  16
ATOM     16  C   UNL     1      -7.772  -1.849 128.705  0.00  0.00    +0.000 C 
BRANCH  16  17
ATOM     17  C   UNL     1      -7.656  -3.230 128.090  0.00  0.00    +0.000 C 
BRANCH  17  18
ATOM     18  C   UNL     1      -8.960  -3.653 127.419  0.00  0.00    +0.000 C 
BRANCH  18  19
ATOM     19  C   UNL     1      -9.100  -2.874 126.129  0.00  0.00    +0.000 C 
BRANCH  19  20
ATOM     20  C   UNL     1      -8.721  -3.640 124.900  0.00  0.00    +0.000 C 
ATOM     21  C   UNL     1      -7.736  -3.246 124.073  0.00  0.00    +0.000 C 
BRANCH  21  22
ATOM     22  C   UNL     1      -6.894  -2.003 124.279  0.00  0.00    +0.000 C 
ATOM     23  C   UNL     1      -5.537  -2.304 124.925  0.00  0.00    +0.000 C 
ATOM     24  C   UNL     1      -6.624  -1.299 122.951  0.00  0.00    +0.000 C 
ENDBRANCH  21  22
ENDBRANCH  19  20
ENDBRANCH  18  19
ENDBRANCH  17  18
ENDBRANCH  16  17
ENDBRANCH   2  16
TORSDOF 10
ENDMDL
MODEL 5
REMARK VINA RESULT:      -6.4     11.400     12.972
REMARK  Name = Zucapsaicin
REMARK  13 active torsions:
REMARK  status: ('A' for Active; 'I' for Inactive)
REMARK    1  A    between atoms: C_1  and  O_2
REMARK    2  A    between atoms: O_2  and  C_3
REMARK    3  A    between atoms: C_4  and  O_5
REMARK    4  A    between atoms: C_8  and  C_9
REMARK    5  A    between atoms: C_9  and  N_10
REMARK    6  A    between atoms: C_11  and  C_13
REMARK    7  A    between atoms: C_13  and  C_14
REMARK    8  A    between atoms: C_14  and  C_15
REMARK    9  A    between atoms: C_15  and  C_16
REMARK   10  A    between atoms: C_16  and  C_17
REMARK   11  A    between atoms: C_18  and  C_19
REMARK   12  A    between atoms: C_19  and  C_20
REMARK   13  A    between atoms: C_19  and  C_21
REMARK                            x       y       z     vdW  Elec       q    Type
REMARK                         _______ _______ _______ _____ _____    ______ ____
ROOT
ATOM      1  N   UNL     1     -10.237   4.807 132.203  0.00  0.00    +0.000 N 
ATOM      2  C   UNL     1      -9.005   4.353 132.588  0.00  0.00    +0.000 C 
ATOM      3  O   UNL     1      -8.165   3.946 131.788  0.00  0.00    +0.000 OA
ATOM      4  H   UNL     1     -10.855   5.120 132.931  0.00  0.00    +0.000 HD
ENDROOT
BRANCH   1   5
ATOM      5  C   UNL     1     -10.636   4.835 130.806  0.00  0.00    +0.000 C 
BRANCH   5  10
ATOM      6  C   UNL     1     -11.406   7.935 128.656  0.00  0.00    +0.000 A 
ATOM      7  C   UNL     1     -12.309   8.599 129.487  0.00  0.00    +0.000 A 
ATOM      8  C   UNL     1     -12.678   8.060 130.715  0.00  0.00    +0.000 A 
ATOM      9  C   UNL     1     -12.137   6.839 131.131  0.00  0.00    +0.000 A 
ATOM     10  C   UNL     1     -11.214   6.150 130.325  0.00  0.00    +0.000 A 
ATOM     11  C   UNL     1     -10.866   6.725 129.092  0.00  0.00    +0.000 A 
BRANCH   6  13
ATOM     12  C   UNL     1     -10.854   7.638 126.367  0.00  0.00    +0.000 C 
ATOM     13  O   UNL     1     -11.110   8.529 127.455  0.00  0.00    +0.000 OA
ENDBRANCH   6  13
BRANCH   7  14
ATOM     14  O   UNL     1     -12.853   9.797 129.118  0.00  0.00    +0.000 OA
ATOM     15  H   UNL     1     -12.487   9.991 128.234  0.00  0.00    +0.000 HD
ENDBRANCH   7  14
ENDBRANCH   5  10
ENDBRANCH   1   5
BRANCH   2  16
ATOM     16  C   UNL     1      -8.791   4.402 134.090  0.00  0.00    +0.000 C 
BRANCH  16  17
ATOM     17  C   UNL     1      -7.795   5.490 134.443  0.00  0.00    +0.000 C 
BRANCH  17  18
ATOM     18  C   UNL     1      -7.009   5.140 135.702  0.00  0.00    +0.000 C 
BRANCH  18  19
ATOM     19  C   UNL     1      -6.839   6.403 136.518  0.00  0.00    +0.000 C 
BRANCH  19  20
ATOM     20  C   UNL     1      -7.444   6.343 137.885  0.00  0.00    +0.000 C 
ATOM     21  C   UNL     1      -8.222   7.323 138.379  0.00  0.00    +0.000 C 
BRANCH  21  22
ATOM     22  C   UNL     1      -8.584   8.587 137.625  0.00  0.00    +0.000 C 
ATOM     23  C   UNL     1     -10.097   8.767 137.460  0.00  0.00    +0.000 C 
ATOM     24  C   UNL     1      -8.052   9.824 138.345  0.00  0.00    +0.000 C 
ENDBRANCH  21  22
ENDBRANCH  19  20
ENDBRANCH  18  19
ENDBRANCH  17  18
ENDBRANCH  16  17
ENDBRANCH   2  16
TORSDOF 10
ENDMDL
MODEL 6
REMARK VINA RESULT:      -6.3      4.401      8.692
REMARK  Name = Zucapsaicin
REMARK  13 active torsions:
REMARK  status: ('A' for Active; 'I' for Inactive)
REMARK    1  A    between atoms: C_1  and  O_2
REMARK    2  A    between atoms: O_2  and  C_3
REMARK    3  A    between atoms: C_4  and  O_5
REMARK    4  A    between atoms: C_8  and  C_9
REMARK    5  A    between atoms: C_9  and  N_10
REMARK    6  A    between atoms: C_11  and  C_13
REMARK    7  A    between atoms: C_13  and  C_14
REMARK    8  A    between atoms: C_14  and  C_15
REMARK    9  A    between atoms: C_15  and  C_16
REMARK   10  A    between atoms: C_16  and  C_17
REMARK   11  A    between atoms: C_18  and  C_19
REMARK   12  A    between atoms: C_19  and  C_20
REMARK   13  A    between atoms: C_19  and  C_21
REMARK                            x       y       z     vdW  Elec       q    Type
REMARK                         _______ _______ _______ _____ _____    ______ ____
ROOT
ATOM      1  N   UNL     1      -8.788  -3.676 126.241  0.00  0.00    +0.000 N 
ATOM      2  C   UNL     1      -9.337  -2.821 125.325  0.00  0.00    +0.000 C 
ATOM      3  O   UNL     1      -9.801  -1.725 125.632  0.00  0.00    +0.000 OA
ATOM      4  H   UNL     1      -8.432  -4.549 125.893  0.00  0.00    +0.000 HD
ENDROOT
BRANCH   1   5
ATOM      5  C   UNL     1      -8.721  -3.340 127.653  0.00  0.00    +0.000 C 
BRANCH   5  10
ATOM      6  C   UNL     1      -5.602  -2.917 129.870  0.00  0.00    +0.000 A 
ATOM      7  C   UNL     1      -4.811  -2.122 129.042  0.00  0.00    +0.000 A 
ATOM      8  C   UNL     1      -5.260  -1.732 127.785  0.00  0.00    +0.000 A 
ATOM      9  C   UNL     1      -6.524  -2.136 127.341  0.00  0.00    +0.000 A 
ATOM     10  C   UNL     1      -7.353  -2.927 128.156  0.00  0.00    +0.000 A 
ATOM     11  C   UNL     1      -6.864  -3.300 129.418  0.00  0.00    +0.000 A 
BRANCH   6  13
ATOM     12  C   UNL     1      -5.641  -2.615 132.224  0.00  0.00    +0.000 C 
ATOM     13  O   UNL     1      -5.074  -3.269 131.087  0.00  0.00    +0.000 OA
ENDBRANCH   6  13
BRANCH   7  14
ATOM     14  O   UNL     1      -3.573  -1.702 129.444  0.00  0.00    +0.000 OA
ATOM     15  H   UNL     1      -3.292  -2.334 130.131  0.00  0.00    +0.000 HD
ENDBRANCH   7  14
ENDBRANCH   5  10
ENDBRANCH   1   5
BRANCH   2  16
ATOM     16  C   UNL     1      -9.313  -3.363 123.908  0.00  0.00    +0.000 C 
BRANCH  16  17
ATOM     17  C   UNL     1      -8.607  -2.389 122.984  0.00  0.00    +0.000 C 
BRANCH  17  18
ATOM     18  C   UNL     1      -7.135  -2.235 123.356  0.00  0.00    +0.000 C 
BRANCH  18  19
ATOM     19  C   UNL     1      -6.746  -0.788 123.146  0.00  0.00    +0.000 C 
BRANCH  19  20
ATOM     20  C   UNL     1      -6.863   0.068 124.369  0.00  0.00    +0.000 C 
ATOM     21  C   UNL     1      -7.793   1.031 124.495  0.00  0.00    +0.000 C 
BRANCH  21  22
ATOM     22  C   UNL     1      -8.828   1.362 123.439  0.00  0.00    +0.000 C 
ATOM     23  C   UNL     1     -10.257   1.386 123.993  0.00  0.00    +0.000 C 
ATOM     24  C   UNL     1      -8.555   2.730 122.817  0.00  0.00    +0.000 C 
ENDBRANCH  21  22
ENDBRANCH  19  20
ENDBRANCH  18  19
ENDBRANCH  17  18
ENDBRANCH  16  17
ENDBRANCH   2  16
TORSDOF 10
ENDMDL
MODEL 7
REMARK VINA RESULT:      -6.2      6.126      9.366
REMARK  Name = Zucapsaicin
REMARK  13 active torsions:
REMARK  status: ('A' for Active; 'I' for Inactive)
REMARK    1  A    between atoms: C_1  and  O_2
REMARK    2  A    between atoms: O_2  and  C_3
REMARK    3  A    between atoms: C_4  and  O_5
REMARK    4  A    between atoms: C_8  and  C_9
REMARK    5  A    between atoms: C_9  and  N_10
REMARK    6  A    between atoms: C_11  and  C_13
REMARK    7  A    between atoms: C_13  and  C_14
REMARK    8  A    between atoms: C_14  and  C_15
REMARK    9  A    between atoms: C_15  and  C_16
REMARK   10  A    between atoms: C_16  and  C_17
REMARK   11  A    between atoms: C_18  and  C_19
REMARK   12  A    between atoms: C_19  and  C_20
REMARK   13  A    between atoms: C_19  and  C_21
REMARK                            x       y       z     vdW  Elec       q    Type
REMARK                         _______ _______ _______ _____ _____    ______ ____
ROOT
ATOM      1  N   UNL     1      -7.589  -2.917 127.689  0.00  0.00    +0.000 N 
ATOM      2  C   UNL     1      -8.768  -3.414 127.204  0.00  0.00    +0.000 C 
ATOM      3  O   UNL     1      -9.497  -4.158 127.858  0.00  0.00    +0.000 OA
ATOM      4  H   UNL     1      -7.064  -2.315 127.079  0.00  0.00    +0.000 HD
ENDROOT
BRANCH   1   5
ATOM      5  C   UNL     1      -7.116  -3.244 129.023  0.00  0.00    +0.000 C 
BRANCH   5  10
ATOM      6  C   UNL     1      -7.664  -1.529 132.426  0.00  0.00    +0.000 A 
ATOM      7  C   UNL     1      -7.953  -0.230 132.009  0.00  0.00    +0.000 A 
ATOM      8  C   UNL     1      -7.963   0.101 130.659  0.00  0.00    +0.000 A 
ATOM      9  C   UNL     1      -7.685  -0.879 129.699  0.00  0.00    +0.000 A 
ATOM     10  C   UNL     1      -7.403  -2.202 130.084  0.00  0.00    +0.000 A 
ATOM     11  C   UNL     1      -7.402  -2.497 131.457  0.00  0.00    +0.000 A 
BRANCH   6  13
ATOM     12  C   UNL     1      -8.224  -3.009 134.196  0.00  0.00    +0.000 C 
ATOM     13  O   UNL     1      -7.659  -1.764 133.779  0.00  0.00    +0.000 OA
ENDBRANCH   6  13
BRANCH   7  14
ATOM     14  O   UNL     1      -8.237   0.753 132.917  0.00  0.00    +0.000 OA
ATOM     15  H   UNL     1      -7.739   1.537 132.619  0.00  0.00    +0.000 HD
ENDBRANCH   7  14
ENDBRANCH   5  10
ENDBRANCH   1   5
BRANCH   2  16
ATOM     16  C   UNL     1      -9.076  -2.957 125.790  0.00  0.00    +0.000 C 
BRANCH  16  17
ATOM     17  C   UNL     1      -9.057  -1.443 125.712  0.00  0.00    +0.000 C 
BRANCH  17  18
ATOM     18  C   UNL     1      -8.987  -0.959 124.267  0.00  0.00    +0.000 C 
BRANCH  18  19
ATOM     19  C   UNL     1      -8.633  -2.141 123.391  0.00  0.00    +0.000 C 
BRANCH  19  20
ATOM     20  C   UNL     1      -7.519  -1.884 122.424  0.00  0.00    +0.000 C 
ATOM     21  C   UNL     1      -6.241  -2.211 122.685  0.00  0.00    +0.000 C 
BRANCH  21  22
ATOM     22  C   UNL     1      -5.774  -2.876 123.964  0.00  0.00    +0.000 C 
ATOM     23  C   UNL     1      -4.583  -3.816 123.745  0.00  0.00    +0.000 C 
ATOM     24  C   UNL     1      -5.351  -1.836 124.999  0.00  0.00    +0.000 C 
ENDBRANCH  21  22
ENDBRANCH  19  20
ENDBRANCH  18  19
ENDBRANCH  17  18
ENDBRANCH  16  17
ENDBRANCH   2  16
TORSDOF 10
ENDMDL
MODEL 8
REMARK VINA RESULT:      -6.2      3.663      5.373
REMARK  Name = Zucapsaicin
REMARK  13 active torsions:
REMARK  status: ('A' for Active; 'I' for Inactive)
REMARK    1  A    between atoms: C_1  and  O_2
REMARK    2  A    between atoms: O_2  and  C_3
REMARK    3  A    between atoms: C_4  and  O_5
REMARK    4  A    between atoms: C_8  and  C_9
REMARK    5  A    between atoms: C_9  and  N_10
REMARK    6  A    between atoms: C_11  and  C_13
REMARK    7  A    between atoms: C_13  and  C_14
REMARK    8  A    between atoms: C_14  and  C_15
REMARK    9  A    between atoms: C_15  and  C_16
REMARK   10  A    between atoms: C_16  and  C_17
REMARK   11  A    between atoms: C_18  and  C_19
REMARK   12  A    between atoms: C_19  and  C_20
REMARK   13  A    between atoms: C_19  and  C_21
REMARK                            x       y       z     vdW  Elec       q    Type
REMARK                         _______ _______ _______ _____ _____    ______ ____
ROOT
ATOM      1  N   UNL     1      -7.499  -1.722 124.204  0.00  0.00    +0.000 N 
ATOM      2  C   UNL     1      -8.626  -2.497 124.157  0.00  0.00    +0.000 C 
ATOM      3  O   UNL     1      -9.532  -2.307 123.348  0.00  0.00    +0.000 OA
ATOM      4  H   UNL     1      -6.813  -1.957 124.900  0.00  0.00    +0.000 HD
ENDROOT
BRANCH   1   5
ATOM      5  C   UNL     1      -7.301  -0.609 123.291  0.00  0.00    +0.000 C 
BRANCH   5  10
ATOM      6  C   UNL     1      -8.351   2.216 125.687  0.00  0.00    +0.000 A 
ATOM      7  C   UNL     1      -8.343   3.302 124.813  0.00  0.00    +0.000 A 
ATOM      8  C   UNL     1      -7.996   3.141 123.476  0.00  0.00    +0.000 A 
ATOM      9  C   UNL     1      -7.654   1.873 122.993  0.00  0.00    +0.000 A 
ATOM     10  C   UNL     1      -7.665   0.753 123.844  0.00  0.00    +0.000 A 
ATOM     11  C   UNL     1      -8.021   0.957 125.187  0.00  0.00    +0.000 A 
BRANCH   6  13
ATOM     12  C   UNL     1      -7.603   2.504 127.921  0.00  0.00    +0.000 C 
ATOM     13  O   UNL     1      -8.689   2.468 126.993  0.00  0.00    +0.000 OA
ENDBRANCH   6  13
BRANCH   7  14
ATOM     14  O   UNL     1      -8.677   4.555 125.246  0.00  0.00    +0.000 OA
ATOM     15  H   UNL     1      -9.400   4.427 125.888  0.00  0.00    +0.000 HD
ENDBRANCH   7  14
ENDBRANCH   5  10
ENDBRANCH   1   5
BRANCH   2  16
ATOM     16  C   UNL     1      -8.638  -3.601 125.199  0.00  0.00    +0.000 C 
BRANCH  16  17
ATOM     17  C   UNL     1      -9.291  -3.111 126.476  0.00  0.00    +0.000 C 
BRANCH  17  18
ATOM     18  C   UNL     1      -8.799  -3.893 127.690  0.00  0.00    +0.000 C 
BRANCH  18  19
ATOM     19  C   UNL     1      -7.895  -2.989 128.499  0.00  0.00    +0.000 C 
BRANCH  19  20
ATOM     20  C   UNL     1      -7.291  -3.636 129.706  0.00  0.00    +0.000 C 
ATOM     21  C   UNL     1      -5.970  -3.625 129.952  0.00  0.00    +0.000 C 
BRANCH  21  22
ATOM     22  C   UNL     1      -4.941  -2.961 129.058  0.00  0.00    +0.000 C 
ATOM     23  C   UNL     1      -4.706  -1.489 129.412  0.00  0.00    +0.000 C 
ATOM     24  C   UNL     1      -3.594  -3.675 129.152  0.00  0.00    +0.000 C 
ENDBRANCH  21  22
ENDBRANCH  19  20
ENDBRANCH  18  19
ENDBRANCH  17  18
ENDBRANCH  16  17
ENDBRANCH   2  16
TORSDOF 10
ENDMDL
MODEL 9
REMARK VINA RESULT:      -6.2      7.834      9.215
REMARK  Name = Zucapsaicin
REMARK  13 active torsions:
REMARK  status: ('A' for Active; 'I' for Inactive)
REMARK    1  A    between atoms: C_1  and  O_2
REMARK    2  A    between atoms: O_2  and  C_3
REMARK    3  A    between atoms: C_4  and  O_5
REMARK    4  A    between atoms: C_8  and  C_9
REMARK    5  A    between atoms: C_9  and  N_10
REMARK    6  A    between atoms: C_11  and  C_13
REMARK    7  A    between atoms: C_13  and  C_14
REMARK    8  A    between atoms: C_14  and  C_15
REMARK    9  A    between atoms: C_15  and  C_16
REMARK   10  A    between atoms: C_16  and  C_17
REMARK   11  A    between atoms: C_18  and  C_19
REMARK   12  A    between atoms: C_19  and  C_20
REMARK   13  A    between atoms: C_19  and  C_21
REMARK                            x       y       z     vdW  Elec       q    Type
REMARK                         _______ _______ _______ _____ _____    ______ ____
ROOT
ATOM      1  N   UNL     1     -10.255   4.443 131.627  0.00  0.00    +0.000 N 
ATOM      2  C   UNL     1      -9.038   3.922 131.282  0.00  0.00    +0.000 C 
ATOM      3  O   UNL     1      -7.995   4.568 131.347  0.00  0.00    +0.000 OA
ATOM      4  H   UNL     1     -11.052   3.836 131.542  0.00  0.00    +0.000 HD
ENDROOT
BRANCH   1   5
ATOM      5  C   UNL     1     -10.394   5.812 132.095  0.00  0.00    +0.000 C 
BRANCH   5  10
ATOM      6  C   UNL     1     -11.161   8.081 129.081  0.00  0.00    +0.000 A 
ATOM      7  C   UNL     1     -12.447   8.510 129.411  0.00  0.00    +0.000 A 
ATOM      8  C   UNL     1     -13.069   8.073 130.575  0.00  0.00    +0.000 A 
ATOM      9  C   UNL     1     -12.399   7.195 131.435  0.00  0.00    +0.000 A 
ATOM     10  C   UNL     1     -11.098   6.754 131.141  0.00  0.00    +0.000 A 
ATOM     11  C   UNL     1     -10.503   7.217 129.955  0.00  0.00    +0.000 A 
BRANCH   6  13
ATOM     12  C   UNL     1     -10.851   7.730 126.754  0.00  0.00    +0.000 C 
ATOM     13  O   UNL     1     -10.630   8.548 127.905  0.00  0.00    +0.000 OA
ENDBRANCH   6  13
BRANCH   7  14
ATOM     14  O   UNL     1     -13.129   9.373 128.599  0.00  0.00    +0.000 OA
ATOM     15  H   UNL     1     -13.112   8.969 127.712  0.00  0.00    +0.000 HD
ENDBRANCH   7  14
ENDBRANCH   5  10
ENDBRANCH   1   5
BRANCH   2  16
ATOM     16  C   UNL     1      -9.114   2.480 130.814  0.00  0.00    +0.000 C 
BRANCH  16  17
ATOM     17  C   UNL     1      -9.157   1.543 132.006  0.00  0.00    +0.000 C 
BRANCH  17  18
ATOM     18  C   UNL     1      -9.044   0.085 131.573  0.00  0.00    +0.000 C 
BRANCH  18  19
ATOM     19  C   UNL     1      -7.617  -0.169 131.137  0.00  0.00    +0.000 C 
BRANCH  19  20
ATOM     20  C   UNL     1      -7.430  -0.260 129.655  0.00  0.00    +0.000 C 
ATOM     21  C   UNL     1      -7.505  -1.422 128.984  0.00  0.00    +0.000 C 
BRANCH  21  22
ATOM     22  C   UNL     1      -7.790  -2.764 129.628  0.00  0.00    +0.000 C 
ATOM     23  C   UNL     1      -8.660  -3.672 128.752  0.00  0.00    +0.000 C 
ATOM     24  C   UNL     1      -6.494  -3.516 129.922  0.00  0.00    +0.000 C 
ENDBRANCH  21  22
ENDBRANCH  19  20
ENDBRANCH  18  19
ENDBRANCH  17  18
ENDBRANCH  16  17
ENDBRANCH   2  16
TORSDOF 10
ENDMDL
