MODEL 1
REMARK VINA RESULT:      -7.6      0.000      0.000
REMARK  Name = Zuclopenthixol
REMARK  6 active torsions:
REMARK  status: ('A' for Active; 'I' for Inactive)
REMARK    1  A    between atoms: O_1  and  C_2
REMARK    2  A    between atoms: C_2  and  C_3
REMARK    3  A    between atoms: C_3  and  N_4
REMARK    4  A    between atoms: N_7  and  C_8
REMARK    5  A    between atoms: C_8  and  C_9
REMARK    6  A    between atoms: C_9  and  C_10
REMARK                            x       y       z     vdW  Elec       q    Type
REMARK                         _______ _______ _______ _____ _____    ______ ____
ROOT
ATOM      1  C   UNL     1      -5.073   3.850 124.790  0.00  0.00    +0.000 C 
ATOM      2  C   UNL     1      -6.164   3.391 124.118  0.00  0.00    +0.000 C 
ATOM      3  C   UNL     1      -6.197   3.764 122.664  0.00  0.00    +0.000 A 
ATOM      4  C   UNL     1      -7.285   3.396 121.861  0.00  0.00    +0.000 A 
ATOM      5  S   UNL     1      -8.705   2.491 122.405  0.00  0.00    +0.000 S 
ATOM      6  C   UNL     1      -8.398   2.183 124.118  0.00  0.00    +0.000 A 
ATOM      7  C   UNL     1      -7.257   2.593 124.818  0.00  0.00    +0.000 A 
ATOM      8  C   UNL     1      -7.241   2.217 126.183  0.00  0.00    +0.000 A 
ATOM      9  C   UNL     1      -8.256   1.533 126.835  0.00  0.00    +0.000 A 
ATOM     10 CL   UNL     1      -8.091   1.196 128.515  0.00  0.00    +0.000 Cl
ATOM     11  C   UNL     1      -9.362   1.145 126.128  0.00  0.00    +0.000 A 
ATOM     12  C   UNL     1      -9.425   1.464 124.774  0.00  0.00    +0.000 A 
ATOM     13  C   UNL     1      -7.303   3.742 120.499  0.00  0.00    +0.000 A 
ATOM     14  C   UNL     1      -6.263   4.456 119.917  0.00  0.00    +0.000 A 
ATOM     15  C   UNL     1      -5.180   4.828 120.687  0.00  0.00    +0.000 A 
ATOM     16  C   UNL     1      -5.149   4.480 122.032  0.00  0.00    +0.000 A 
ENDROOT
BRANCH   1  17
ATOM     17  C   UNL     1      -4.784   3.640 126.208  0.00  0.00    +0.000 C 
BRANCH  17  18
ATOM     18  C   UNL     1      -3.733   4.515 126.803  0.00  0.00    +0.000 C 
BRANCH  18  22
ATOM     19  N   UNL     1      -2.595   5.403 130.079  0.00  0.00    +0.000 NA
ATOM     20  C   UNL     1      -3.454   4.263 129.679  0.00  0.00    +0.000 C 
ATOM     21  C   UNL     1      -4.732   4.717 128.929  0.00  0.00    +0.000 C 
ATOM     22  N   UNL     1      -4.398   5.465 127.711  0.00  0.00    +0.000 NA
ATOM     23  C   UNL     1      -3.529   6.623 128.076  0.00  0.00    +0.000 C 
ATOM     24  C   UNL     1      -2.264   6.201 128.869  0.00  0.00    +0.000 C 
BRANCH  19  25
ATOM     25  C   UNL     1      -3.279   6.275 131.061  0.00  0.00    +0.000 C 
BRANCH  25  26
ATOM     26  C   UNL     1      -2.345   7.246 131.788  0.00  0.00    +0.000 C 
BRANCH  26  27
ATOM     27  O   UNL     1      -2.941   8.527 131.900  0.00  0.00    +0.000 OA
ATOM     28  H   UNL     1      -2.350   9.038 132.480  0.00  0.00    +0.000 HD
ENDBRANCH  26  27
ENDBRANCH  25  26
ENDBRANCH  19  25
ENDBRANCH  18  22
ENDBRANCH  17  18
ENDBRANCH   1  17
TORSDOF 6
ENDMDL
MODEL 2
REMARK VINA RESULT:      -7.5      5.138      6.893
REMARK  Name = Zuclopenthixol
REMARK  6 active torsions:
REMARK  status: ('A' for Active; 'I' for Inactive)
REMARK    1  A    between atoms: O_1  and  C_2
REMARK    2  A    between atoms: C_2  and  C_3
REMARK    3  A    between atoms: C_3  and  N_4
REMARK    4  A    between atoms: N_7  and  C_8
REMARK    5  A    between atoms: C_8  and  C_9
REMARK    6  A    between atoms: C_9  and  C_10
REMARK                            x       y       z     vdW  Elec       q    Type
REMARK                         _______ _______ _______ _____ _____    ______ ____
ROOT
ATOM      1  C   UNL     1      -7.556   6.805 130.876  0.00  0.00    +0.000 C 
ATOM      2  C   UNL     1      -8.614   5.954 130.781  0.00  0.00    +0.000 C 
ATOM      3  C   UNL     1      -9.793   6.513 130.039  0.00  0.00    +0.000 A 
ATOM      4  C   UNL     1     -10.968   5.762 129.904  0.00  0.00    +0.000 A 
ATOM      5  S   UNL     1     -11.231   4.136 130.553  0.00  0.00    +0.000 S 
ATOM      6  C   UNL     1      -9.707   3.734 131.353  0.00  0.00    +0.000 A 
ATOM      7  C   UNL     1      -8.584   4.568 131.412  0.00  0.00    +0.000 A 
ATOM      8  C   UNL     1      -7.479   4.014 132.105  0.00  0.00    +0.000 A 
ATOM      9  C   UNL     1      -7.465   2.772 132.722  0.00  0.00    +0.000 A 
ATOM     10 CL   UNL     1      -6.048   2.272 133.561  0.00  0.00    +0.000 Cl
ATOM     11  C   UNL     1      -8.577   1.977 132.650  0.00  0.00    +0.000 A 
ATOM     12  C   UNL     1      -9.688   2.457 131.961  0.00  0.00    +0.000 A 
ATOM     13  C   UNL     1     -12.063   6.290 129.200  0.00  0.00    +0.000 A 
ATOM     14  C   UNL     1     -12.019   7.557 128.630  0.00  0.00    +0.000 A 
ATOM     15  C   UNL     1     -10.871   8.314 128.747  0.00  0.00    +0.000 A 
ATOM     16  C   UNL     1      -9.780   7.795 129.433  0.00  0.00    +0.000 A 
ENDROOT
BRANCH   1  17
ATOM     17  C   UNL     1      -6.284   6.527 131.542  0.00  0.00    +0.000 C 
BRANCH  17  18
ATOM     18  C   UNL     1      -5.056   6.683 130.710  0.00  0.00    +0.000 C 
BRANCH  18  22
ATOM     19  N   UNL     1      -3.295   5.181 127.979  0.00  0.00    +0.000 NA
ATOM     20  C   UNL     1      -4.725   5.042 128.341  0.00  0.00    +0.000 C 
ATOM     21  C   UNL     1      -4.925   4.518 129.786  0.00  0.00    +0.000 C 
ATOM     22  N   UNL     1      -4.307   5.417 130.769  0.00  0.00    +0.000 NA
ATOM     23  C   UNL     1      -2.862   5.582 130.434  0.00  0.00    +0.000 C 
ATOM     24  C   UNL     1      -2.631   6.061 128.977  0.00  0.00    +0.000 C 
BRANCH  19  25
ATOM     25  C   UNL     1      -2.613   3.866 127.965  0.00  0.00    +0.000 C 
BRANCH  25  26
ATOM     26  C   UNL     1      -2.069   3.462 126.592  0.00  0.00    +0.000 C 
BRANCH  26  27
ATOM     27  O   UNL     1      -1.082   2.453 126.721  0.00  0.00    +0.000 OA
ATOM     28  H   UNL     1      -1.574   1.629 126.884  0.00  0.00    +0.000 HD
ENDBRANCH  26  27
ENDBRANCH  25  26
ENDBRANCH  19  25
ENDBRANCH  18  22
ENDBRANCH  17  18
ENDBRANCH   1  17
TORSDOF 6
ENDMDL
MODEL 3
REMARK VINA RESULT:      -7.4      3.930      5.657
REMARK  Name = Zuclopenthixol
REMARK  6 active torsions:
REMARK  status: ('A' for Active; 'I' for Inactive)
REMARK    1  A    between atoms: O_1  and  C_2
REMARK    2  A    between atoms: C_2  and  C_3
REMARK    3  A    between atoms: C_3  and  N_4
REMARK    4  A    between atoms: N_7  and  C_8
REMARK    5  A    between atoms: C_8  and  C_9
REMARK    6  A    between atoms: C_9  and  C_10
REMARK                            x       y       z     vdW  Elec       q    Type
REMARK                         _______ _______ _______ _____ _____    ______ ____
ROOT
ATOM      1  C   UNL     1      -8.410   0.877 126.562  0.00  0.00    +0.000 C 
ATOM      2  C   UNL     1      -8.380  -0.481 126.655  0.00  0.00    +0.000 C 
ATOM      3  C   UNL     1      -8.689  -1.196 125.372  0.00  0.00    +0.000 A 
ATOM      4  C   UNL     1      -8.737  -2.596 125.333  0.00  0.00    +0.000 A 
ATOM      5  S   UNL     1      -8.461  -3.674 126.710  0.00  0.00    +0.000 S 
ATOM      6  C   UNL     1      -8.117  -2.582 128.057  0.00  0.00    +0.000 A 
ATOM      7  C   UNL     1      -8.082  -1.185 127.973  0.00  0.00    +0.000 A 
ATOM      8  C   UNL     1      -7.775  -0.533 129.192  0.00  0.00    +0.000 A 
ATOM      9  C   UNL     1      -7.552  -1.169 130.404  0.00  0.00    +0.000 A 
ATOM     10 CL   UNL     1      -7.233  -0.216 131.802  0.00  0.00    +0.000 Cl
ATOM     11  C   UNL     1      -7.592  -2.536 130.459  0.00  0.00    +0.000 A 
ATOM     12  C   UNL     1      -7.866  -3.236 129.287  0.00  0.00    +0.000 A 
ATOM     13  C   UNL     1      -9.019  -3.257 124.126  0.00  0.00    +0.000 A 
ATOM     14  C   UNL     1      -9.262  -2.554 122.951  0.00  0.00    +0.000 A 
ATOM     15  C   UNL     1      -9.217  -1.175 122.965  0.00  0.00    +0.000 A 
ATOM     16  C   UNL     1      -8.929  -0.514 124.152  0.00  0.00    +0.000 A 
ENDROOT
BRANCH   1  17
ATOM     17  C   UNL     1      -8.152   1.820 127.648  0.00  0.00    +0.000 C 
BRANCH  17  18
ATOM     18  C   UNL     1      -7.174   2.908 127.359  0.00  0.00    +0.000 C 
BRANCH  18  22
ATOM     19  N   UNL     1      -3.946   4.258 126.601  0.00  0.00    +0.000 NA
ATOM     20  C   UNL     1      -4.607   3.067 126.017  0.00  0.00    +0.000 C 
ATOM     21  C   UNL     1      -5.005   2.022 127.090  0.00  0.00    +0.000 C 
ATOM     22  N   UNL     1      -5.927   2.598 128.078  0.00  0.00    +0.000 NA
ATOM     23  C   UNL     1      -5.293   3.804 128.687  0.00  0.00    +0.000 C 
ATOM     24  C   UNL     1      -4.842   4.847 127.631  0.00  0.00    +0.000 C 
BRANCH  19  25
ATOM     25  C   UNL     1      -2.654   3.902 127.231  0.00  0.00    +0.000 C 
BRANCH  25  26
ATOM     26  C   UNL     1      -1.630   3.310 126.259  0.00  0.00    +0.000 C 
BRANCH  26  27
ATOM     27  O   UNL     1      -0.897   2.266 126.876  0.00  0.00    +0.000 OA
ATOM     28  H   UNL     1      -0.792   1.583 126.191  0.00  0.00    +0.000 HD
ENDBRANCH  26  27
ENDBRANCH  25  26
ENDBRANCH  19  25
ENDBRANCH  18  22
ENDBRANCH  17  18
ENDBRANCH   1  17
TORSDOF 6
ENDMDL
MODEL 4
REMARK VINA RESULT:      -7.4      6.520     10.192
REMARK  Name = Zuclopenthixol
REMARK  6 active torsions:
REMARK  status: ('A' for Active; 'I' for Inactive)
REMARK    1  A    between atoms: O_1  and  C_2
REMARK    2  A    between atoms: C_2  and  C_3
REMARK    3  A    between atoms: C_3  and  N_4
REMARK    4  A    between atoms: N_7  and  C_8
REMARK    5  A    between atoms: C_8  and  C_9
REMARK    6  A    between atoms: C_9  and  C_10
REMARK                            x       y       z     vdW  Elec       q    Type
REMARK                         _______ _______ _______ _____ _____    ______ ____
ROOT
ATOM      1  C   UNL     1      -6.169  -2.660 128.763  0.00  0.00    +0.000 C 
ATOM      2  C   UNL     1      -6.607  -2.275 129.993  0.00  0.00    +0.000 C 
ATOM      3  C   UNL     1      -6.329  -3.267 131.086  0.00  0.00    +0.000 A 
ATOM      4  C   UNL     1      -6.764  -3.022 132.395  0.00  0.00    +0.000 A 
ATOM      5  S   UNL     1      -7.658  -1.591 132.932  0.00  0.00    +0.000 S 
ATOM      6  C   UNL     1      -7.831  -0.611 131.470  0.00  0.00    +0.000 A 
ATOM      7  C   UNL     1      -7.338  -0.956 130.206  0.00  0.00    +0.000 A 
ATOM      8  C   UNL     1      -7.599   0.000 129.195  0.00  0.00    +0.000 A 
ATOM      9  C   UNL     1      -8.307   1.180 129.375  0.00  0.00    +0.000 A 
ATOM     10 CL   UNL     1      -8.571   2.210 128.021  0.00  0.00    +0.000 Cl
ATOM     11  C   UNL     1      -8.779   1.492 130.621  0.00  0.00    +0.000 A 
ATOM     12  C   UNL     1      -8.534   0.602 131.662  0.00  0.00    +0.000 A 
ATOM     13  C   UNL     1      -6.492  -3.952 133.413  0.00  0.00    +0.000 A 
ATOM     14  C   UNL     1      -5.801  -5.130 133.156  0.00  0.00    +0.000 A 
ATOM     15  C   UNL     1      -5.361  -5.392 131.874  0.00  0.00    +0.000 A 
ATOM     16  C   UNL     1      -5.616  -4.473 130.865  0.00  0.00    +0.000 A 
ENDROOT
BRANCH   1  17
ATOM     17  C   UNL     1      -6.306  -1.896 127.524  0.00  0.00    +0.000 C 
BRANCH  17  18
ATOM     18  C   UNL     1      -7.170  -2.500 126.469  0.00  0.00    +0.000 C 
BRANCH  18  22
ATOM     19  N   UNL     1      -9.531  -1.020 124.223  0.00  0.00    +0.000 NA
ATOM     20  C   UNL     1      -9.095  -2.434 124.300  0.00  0.00    +0.000 C 
ATOM     21  C   UNL     1      -7.561  -2.592 124.146  0.00  0.00    +0.000 C 
ATOM     22  N   UNL     1      -6.841  -1.850 125.189  0.00  0.00    +0.000 NA
ATOM     23  C   UNL     1      -7.259  -0.418 125.142  0.00  0.00    +0.000 C 
ATOM     24  C   UNL     1      -8.796  -0.234 125.247  0.00  0.00    +0.000 C 
BRANCH  19  25
ATOM     25  C   UNL     1      -9.260  -0.445 122.885  0.00  0.00    +0.000 C 
BRANCH  25  26
ATOM     26  C   UNL     1     -10.088   0.802 122.563  0.00  0.00    +0.000 C 
BRANCH  26  27
ATOM     27  O   UNL     1     -11.471   0.546 122.743  0.00  0.00    +0.000 OA
ATOM     28  H   UNL     1     -11.651   0.747 123.678  0.00  0.00    +0.000 HD
ENDBRANCH  26  27
ENDBRANCH  25  26
ENDBRANCH  19  25
ENDBRANCH  18  22
ENDBRANCH  17  18
ENDBRANCH   1  17
TORSDOF 6
ENDMDL
MODEL 5
REMARK VINA RESULT:      -7.4      6.882     10.506
REMARK  Name = Zuclopenthixol
REMARK  6 active torsions:
REMARK  status: ('A' for Active; 'I' for Inactive)
REMARK    1  A    between atoms: O_1  and  C_2
REMARK    2  A    between atoms: C_2  and  C_3
REMARK    3  A    between atoms: C_3  and  N_4
REMARK    4  A    between atoms: N_7  and  C_8
REMARK    5  A    between atoms: C_8  and  C_9
REMARK    6  A    between atoms: C_9  and  C_10
REMARK                            x       y       z     vdW  Elec       q    Type
REMARK                         _______ _______ _______ _____ _____    ______ ____
ROOT
ATOM      1  C   UNL     1      -6.925   6.153 132.259  0.00  0.00    +0.000 C 
ATOM      2  C   UNL     1      -5.665   6.043 132.761  0.00  0.00    +0.000 C 
ATOM      3  C   UNL     1      -5.607   5.845 134.248  0.00  0.00    +0.000 A 
ATOM      4  C   UNL     1      -4.372   5.760 134.905  0.00  0.00    +0.000 A 
ATOM      5  S   UNL     1      -2.784   5.870 134.131  0.00  0.00    +0.000 S 
ATOM      6  C   UNL     1      -3.149   6.088 132.415  0.00  0.00    +0.000 A 
ATOM      7  C   UNL     1      -4.436   6.144 131.866  0.00  0.00    +0.000 A 
ATOM      8  C   UNL     1      -4.466   6.317 130.461  0.00  0.00    +0.000 A 
ATOM      9  C   UNL     1      -3.350   6.459 129.649  0.00  0.00    +0.000 A 
ATOM     10 CL   UNL     1      -3.571   6.706 127.960  0.00  0.00    +0.000 Cl
ATOM     11  C   UNL     1      -2.103   6.400 130.212  0.00  0.00    +0.000 A 
ATOM     12  C   UNL     1      -2.008   6.208 131.587  0.00  0.00    +0.000 A 
ATOM     13  C   UNL     1      -4.327   5.566 136.296  0.00  0.00    +0.000 A 
ATOM     14  C   UNL     1      -5.488   5.461 137.053  0.00  0.00    +0.000 A 
ATOM     15  C   UNL     1      -6.716   5.539 136.428  0.00  0.00    +0.000 A 
ATOM     16  C   UNL     1      -6.769   5.720 135.051  0.00  0.00    +0.000 A 
ENDROOT
BRANCH   1  17
ATOM     17  C   UNL     1      -7.278   6.353 130.854  0.00  0.00    +0.000 C 
BRANCH  17  18
ATOM     18  C   UNL     1      -8.613   5.842 130.430  0.00  0.00    +0.000 C 
BRANCH  18  22
ATOM     19  N   UNL     1     -11.882   6.216 129.018  0.00  0.00    +0.000 NA
ATOM     20  C   UNL     1     -10.612   6.842 128.581  0.00  0.00    +0.000 C 
ATOM     21  C   UNL     1      -9.932   7.659 129.710  0.00  0.00    +0.000 C 
ATOM     22  N   UNL     1      -9.629   6.812 130.871  0.00  0.00    +0.000 NA
ATOM     23  C   UNL     1     -10.888   6.162 131.339  0.00  0.00    +0.000 C 
ATOM     24  C   UNL     1     -11.614   5.376 130.215  0.00  0.00    +0.000 C 
BRANCH  19  25
ATOM     25  C   UNL     1     -12.896   7.238 129.362  0.00  0.00    +0.000 C 
BRANCH  25  26
ATOM     26  C   UNL     1     -13.255   8.174 128.204  0.00  0.00    +0.000 C 
BRANCH  26  27
ATOM     27  O   UNL     1     -12.904   9.512 128.513  0.00  0.00    +0.000 OA
ATOM     28  H   UNL     1     -13.107   9.621 129.458  0.00  0.00    +0.000 HD
ENDBRANCH  26  27
ENDBRANCH  25  26
ENDBRANCH  19  25
ENDBRANCH  18  22
ENDBRANCH  17  18
ENDBRANCH   1  17
TORSDOF 6
ENDMDL
MODEL 6
REMARK VINA RESULT:      -7.3      3.721      5.288
REMARK  Name = Zuclopenthixol
REMARK  6 active torsions:
REMARK  status: ('A' for Active; 'I' for Inactive)
REMARK    1  A    between atoms: O_1  and  C_2
REMARK    2  A    between atoms: C_2  and  C_3
REMARK    3  A    between atoms: C_3  and  N_4
REMARK    4  A    between atoms: N_7  and  C_8
REMARK    5  A    between atoms: C_8  and  C_9
REMARK    6  A    between atoms: C_9  and  C_10
REMARK                            x       y       z     vdW  Elec       q    Type
REMARK                         _______ _______ _______ _____ _____    ______ ____
ROOT
ATOM      1  C   UNL     1      -6.176  -0.101 125.893  0.00  0.00    +0.000 C 
ATOM      2  C   UNL     1      -6.959  -1.145 126.277  0.00  0.00    +0.000 C 
ATOM      3  C   UNL     1      -7.746  -1.771 125.161  0.00  0.00    +0.000 A 
ATOM      4  C   UNL     1      -8.629  -2.828 125.420  0.00  0.00    +0.000 A 
ATOM      5  S   UNL     1      -8.937  -3.545 127.009  0.00  0.00    +0.000 S 
ATOM      6  C   UNL     1      -7.891  -2.638 128.108  0.00  0.00    +0.000 A 
ATOM      7  C   UNL     1      -7.032  -1.599 127.729  0.00  0.00    +0.000 A 
ATOM      8  C   UNL     1      -6.290  -1.035 128.795  0.00  0.00    +0.000 A 
ATOM      9  C   UNL     1      -6.390  -1.412 130.126  0.00  0.00    +0.000 A 
ATOM     10 CL   UNL     1      -5.443  -0.586 131.302  0.00  0.00    +0.000 Cl
ATOM     11  C   UNL     1      -7.238  -2.431 130.470  0.00  0.00    +0.000 A 
ATOM     12  C   UNL     1      -7.978  -3.042 129.461  0.00  0.00    +0.000 A 
ATOM     13  C   UNL     1      -9.354  -3.413 124.369  0.00  0.00    +0.000 A 
ATOM     14  C   UNL     1      -9.227  -2.964 123.059  0.00  0.00    +0.000 A 
ATOM     15  C   UNL     1      -8.362  -1.925 122.779  0.00  0.00    +0.000 A 
ATOM     16  C   UNL     1      -7.633  -1.349 123.812  0.00  0.00    +0.000 A 
ENDROOT
BRANCH   1  17
ATOM     17  C   UNL     1      -5.311   0.692 126.765  0.00  0.00    +0.000 C 
BRANCH  17  18
ATOM     18  C   UNL     1      -5.170   2.135 126.418  0.00  0.00    +0.000 C 
BRANCH  18  22
ATOM     19  N   UNL     1      -4.689   5.176 128.245  0.00  0.00    +0.000 NA
ATOM     20  C   UNL     1      -4.666   4.970 126.778  0.00  0.00    +0.000 C 
ATOM     21  C   UNL     1      -3.620   3.911 126.343  0.00  0.00    +0.000 C 
ATOM     22  N   UNL     1      -3.889   2.609 126.968  0.00  0.00    +0.000 NA
ATOM     23  C   UNL     1      -3.921   2.780 128.450  0.00  0.00    +0.000 C 
ATOM     24  C   UNL     1      -4.927   3.868 128.910  0.00  0.00    +0.000 C 
BRANCH  19  25
ATOM     25  C   UNL     1      -3.408   5.739 128.730  0.00  0.00    +0.000 C 
BRANCH  25  26
ATOM     26  C   UNL     1      -3.275   7.251 128.526  0.00  0.00    +0.000 C 
BRANCH  26  27
ATOM     27  O   UNL     1      -4.395   7.931 129.067  0.00  0.00    +0.000 OA
ATOM     28  H   UNL     1      -4.498   8.732 128.525  0.00  0.00    +0.000 HD
ENDBRANCH  26  27
ENDBRANCH  25  26
ENDBRANCH  19  25
ENDBRANCH  18  22
ENDBRANCH  17  18
ENDBRANCH   1  17
TORSDOF 6
ENDMDL
MODEL 7
REMARK VINA RESULT:      -7.3      4.195      6.126
REMARK  Name = Zuclopenthixol
REMARK  6 active torsions:
REMARK  status: ('A' for Active; 'I' for Inactive)
REMARK    1  A    between atoms: O_1  and  C_2
REMARK    2  A    between atoms: C_2  and  C_3
REMARK    3  A    between atoms: C_3  and  N_4
REMARK    4  A    between atoms: N_7  and  C_8
REMARK    5  A    between atoms: C_8  and  C_9
REMARK    6  A    between atoms: C_9  and  C_10
REMARK                            x       y       z     vdW  Elec       q    Type
REMARK                         _______ _______ _______ _____ _____    ______ ____
ROOT
ATOM      1  C   UNL     1      -7.657   0.487 127.648  0.00  0.00    +0.000 C 
ATOM      2  C   UNL     1      -7.622   0.235 126.311  0.00  0.00    +0.000 C 
ATOM      3  C   UNL     1      -7.914  -1.191 125.942  0.00  0.00    +0.000 A 
ATOM      4  C   UNL     1      -7.869  -1.602 124.604  0.00  0.00    +0.000 A 
ATOM      5  S   UNL     1      -7.479  -0.566 123.222  0.00  0.00    +0.000 S 
ATOM      6  C   UNL     1      -7.194   1.026 123.936  0.00  0.00    +0.000 A 
ATOM      7  C   UNL     1      -7.283   1.324 125.301  0.00  0.00    +0.000 A 
ATOM      8  C   UNL     1      -7.018   2.677 125.623  0.00  0.00    +0.000 A 
ATOM      9  C   UNL     1      -6.661   3.660 124.712  0.00  0.00    +0.000 A 
ATOM     10 CL   UNL     1      -6.329   5.249 125.285  0.00  0.00    +0.000 Cl
ATOM     11  C   UNL     1      -6.581   3.342 123.383  0.00  0.00    +0.000 A 
ATOM     12  C   UNL     1      -6.854   2.032 123.001  0.00  0.00    +0.000 A 
ATOM     13  C   UNL     1      -8.152  -2.936 124.267  0.00  0.00    +0.000 A 
ATOM     14  C   UNL     1      -8.475  -3.878 125.237  0.00  0.00    +0.000 A 
ATOM     15  C   UNL     1      -8.529  -3.496 126.562  0.00  0.00    +0.000 A 
ATOM     16  C   UNL     1      -8.260  -2.176 126.902  0.00  0.00    +0.000 A 
ENDROOT
BRANCH   1  17
ATOM     17  C   UNL     1      -7.411   1.778 128.288  0.00  0.00    +0.000 C 
BRANCH  17  18
ATOM     18  C   UNL     1      -8.210   2.070 129.513  0.00  0.00    +0.000 C 
BRANCH  18  22
ATOM     19  N   UNL     1      -8.718   5.025 131.469  0.00  0.00    +0.000 NA
ATOM     20  C   UNL     1      -9.369   3.701 131.613  0.00  0.00    +0.000 C 
ATOM     21  C   UNL     1     -10.088   3.248 130.317  0.00  0.00    +0.000 C 
ATOM     22  N   UNL     1      -9.149   3.157 129.191  0.00  0.00    +0.000 NA
ATOM     23  C   UNL     1      -8.472   4.476 129.017  0.00  0.00    +0.000 C 
ATOM     24  C   UNL     1      -7.784   4.977 130.314  0.00  0.00    +0.000 C 
BRANCH  19  25
ATOM     25  C   UNL     1      -9.717   6.094 131.238  0.00  0.00    +0.000 C 
BRANCH  25  26
ATOM     26  C   UNL     1     -10.733   6.253 132.373  0.00  0.00    +0.000 C 
BRANCH  26  27
ATOM     27  O   UNL     1     -12.056   6.098 131.888  0.00  0.00    +0.000 OA
ATOM     28  H   UNL     1     -12.510   5.546 132.548  0.00  0.00    +0.000 HD
ENDBRANCH  26  27
ENDBRANCH  25  26
ENDBRANCH  19  25
ENDBRANCH  18  22
ENDBRANCH  17  18
ENDBRANCH   1  17
TORSDOF 6
ENDMDL
MODEL 8
REMARK VINA RESULT:      -7.3      4.164      6.425
REMARK  Name = Zuclopenthixol
REMARK  6 active torsions:
REMARK  status: ('A' for Active; 'I' for Inactive)
REMARK    1  A    between atoms: O_1  and  C_2
REMARK    2  A    between atoms: C_2  and  C_3
REMARK    3  A    between atoms: C_3  and  N_4
REMARK    4  A    between atoms: N_7  and  C_8
REMARK    5  A    between atoms: C_8  and  C_9
REMARK    6  A    between atoms: C_9  and  C_10
REMARK                            x       y       z     vdW  Elec       q    Type
REMARK                         _______ _______ _______ _____ _____    ______ ____
ROOT
ATOM      1  C   UNL     1      -6.672   0.410 128.456  0.00  0.00    +0.000 C 
ATOM      2  C   UNL     1      -7.198  -0.130 127.324  0.00  0.00    +0.000 C 
ATOM      3  C   UNL     1      -7.811  -1.488 127.513  0.00  0.00    +0.000 A 
ATOM      4  C   UNL     1      -8.351  -2.182 126.422  0.00  0.00    +0.000 A 
ATOM      5  S   UNL     1      -8.389  -1.602 124.750  0.00  0.00    +0.000 S 
ATOM      6  C   UNL     1      -7.625  -0.009 124.823  0.00  0.00    +0.000 A 
ATOM      7  C   UNL     1      -7.130   0.594 125.985  0.00  0.00    +0.000 A 
ATOM      8  C   UNL     1      -6.570   1.880 125.785  0.00  0.00    +0.000 A 
ATOM      9  C   UNL     1      -6.462   2.522 124.560  0.00  0.00    +0.000 A 
ATOM     10 CL   UNL     1      -5.711   4.069 124.491  0.00  0.00    +0.000 Cl
ATOM     11  C   UNL     1      -6.954   1.909 123.439  0.00  0.00    +0.000 A 
ATOM     12  C   UNL     1      -7.538   0.653 123.576  0.00  0.00    +0.000 A 
ATOM     13  C   UNL     1      -8.930  -3.448 126.610  0.00  0.00    +0.000 A 
ATOM     14  C   UNL     1      -8.978  -4.047 127.864  0.00  0.00    +0.000 A 
ATOM     15  C   UNL     1      -8.455  -3.381 128.954  0.00  0.00    +0.000 A 
ATOM     16  C   UNL     1      -7.891  -2.124 128.778  0.00  0.00    +0.000 A 
ENDROOT
BRANCH   1  17
ATOM     17  C   UNL     1      -6.015   1.712 128.564  0.00  0.00    +0.000 C 
BRANCH  17  18
ATOM     18  C   UNL     1      -6.568   2.647 129.585  0.00  0.00    +0.000 C 
BRANCH  18  22
ATOM     19  N   UNL     1      -8.748   4.886 131.331  0.00  0.00    +0.000 NA
ATOM     20  C   UNL     1      -8.475   3.458 131.615  0.00  0.00    +0.000 C 
ATOM     21  C   UNL     1      -8.777   2.542 130.401  0.00  0.00    +0.000 C 
ATOM     22  N   UNL     1      -7.971   2.922 129.234  0.00  0.00    +0.000 NA
ATOM     23  C   UNL     1      -8.220   4.359 128.919  0.00  0.00    +0.000 C 
ATOM     24  C   UNL     1      -7.970   5.294 130.132  0.00  0.00    +0.000 C 
BRANCH  19  25
ATOM     25  C   UNL     1     -10.188   5.119 131.075  0.00  0.00    +0.000 C 
BRANCH  25  26
ATOM     26  C   UNL     1     -10.806   6.218 131.945  0.00  0.00    +0.000 C 
BRANCH  26  27
ATOM     27  O   UNL     1     -10.053   6.401 133.131  0.00  0.00    +0.000 OA
ATOM     28  H   UNL     1      -9.990   5.519 133.537  0.00  0.00    +0.000 HD
ENDBRANCH  26  27
ENDBRANCH  25  26
ENDBRANCH  19  25
ENDBRANCH  18  22
ENDBRANCH  17  18
ENDBRANCH   1  17
TORSDOF 6
ENDMDL
MODEL 9
REMARK VINA RESULT:      -7.2      6.065      7.695
REMARK  Name = Zuclopenthixol
REMARK  6 active torsions:
REMARK  status: ('A' for Active; 'I' for Inactive)
REMARK    1  A    between atoms: O_1  and  C_2
REMARK    2  A    between atoms: C_2  and  C_3
REMARK    3  A    between atoms: C_3  and  N_4
REMARK    4  A    between atoms: N_7  and  C_8
REMARK    5  A    between atoms: C_8  and  C_9
REMARK    6  A    between atoms: C_9  and  C_10
REMARK                            x       y       z     vdW  Elec       q    Type
REMARK                         _______ _______ _______ _____ _____    ______ ____
ROOT
ATOM      1  C   UNL     1      -6.153  -2.067 126.937  0.00  0.00    +0.000 C 
ATOM      2  C   UNL     1      -6.618  -1.226 125.973  0.00  0.00    +0.000 C 
ATOM      3  C   UNL     1      -7.589  -1.857 125.018  0.00  0.00    +0.000 A 
ATOM      4  C   UNL     1      -8.114  -1.119 123.948  0.00  0.00    +0.000 A 
ATOM      5  S   UNL     1      -7.733   0.570 123.578  0.00  0.00    +0.000 S 
ATOM      6  C   UNL     1      -6.597   1.049 124.845  0.00  0.00    +0.000 A 
ATOM      7  C   UNL     1      -6.150   0.221 125.882  0.00  0.00    +0.000 A 
ATOM      8  C   UNL     1      -5.247   0.841 126.778  0.00  0.00    +0.000 A 
ATOM      9  C   UNL     1      -4.781   2.143 126.670  0.00  0.00    +0.000 A 
ATOM     10 CL   UNL     1      -3.647   2.724 127.827  0.00  0.00    +0.000 Cl
ATOM     11  C   UNL     1      -5.234   2.932 125.646  0.00  0.00    +0.000 A 
ATOM     12  C   UNL     1      -6.143   2.385 124.745  0.00  0.00    +0.000 A 
ATOM     13  C   UNL     1      -9.029  -1.715 123.064  0.00  0.00    +0.000 A 
ATOM     14  C   UNL     1      -9.431  -3.037 123.216  0.00  0.00    +0.000 A 
ATOM     15  C   UNL     1      -8.929  -3.783 124.263  0.00  0.00    +0.000 A 
ATOM     16  C   UNL     1      -8.032  -3.198 125.148  0.00  0.00    +0.000 A 
ENDROOT
BRANCH   1  17
ATOM     17  C   UNL     1      -5.200  -1.725 127.992  0.00  0.00    +0.000 C 
BRANCH  17  18
ATOM     18  C   UNL     1      -5.687  -1.875 129.394  0.00  0.00    +0.000 C 
BRANCH  18  22
ATOM     19  N   UNL     1      -4.405  -3.320 132.408  0.00  0.00    +0.000 NA
ATOM     20  C   UNL     1      -3.676  -2.994 131.159  0.00  0.00    +0.000 C 
ATOM     21  C   UNL     1      -4.283  -3.696 129.917  0.00  0.00    +0.000 C 
ATOM     22  N   UNL     1      -5.687  -3.311 129.721  0.00  0.00    +0.000 NA
ATOM     23  C   UNL     1      -6.453  -3.623 130.963  0.00  0.00    +0.000 C 
ATOM     24  C   UNL     1      -5.839  -2.971 132.230  0.00  0.00    +0.000 C 
BRANCH  19  25
ATOM     25  C   UNL     1      -4.294  -4.759 132.737  0.00  0.00    +0.000 C 
BRANCH  25  26
ATOM     26  C   UNL     1      -3.325  -5.063 133.883  0.00  0.00    +0.000 C 
BRANCH  26  27
ATOM     27  O   UNL     1      -1.999  -5.187 133.400  0.00  0.00    +0.000 OA
ATOM     28  H   UNL     1      -1.427  -5.036 134.172  0.00  0.00    +0.000 HD
ENDBRANCH  26  27
ENDBRANCH  25  26
ENDBRANCH  19  25
ENDBRANCH  18  22
ENDBRANCH  17  18
ENDBRANCH   1  17
TORSDOF 6
ENDMDL
