MODEL 1
REMARK VINA RESULT:      -5.6      0.000      0.000
REMARK  Name = Zytron
REMARK  8 active torsions:
REMARK  status: ('A' for Active; 'I' for Inactive)
REMARK    1  A    between atoms: C_1  and  O_2
REMARK    2  A    between atoms: O_2  and  P_3
REMARK    3  A    between atoms: P_3  and  N_5
REMARK    4  A    between atoms: P_3  and  O_9
REMARK    5  A    between atoms: N_5  and  C_6
REMARK    6  A    between atoms: C_6  and  C_7
REMARK    7  A    between atoms: C_6  and  C_8
REMARK    8  A    between atoms: O_9  and  C_10
REMARK                            x       y       z     vdW  Elec       q    Type
REMARK                         _______ _______ _______ _____ _____    ______ ____
ROOT
ATOM      1  P   UNL     1     -11.006   5.626 130.632  0.00  0.00    +0.000 P 
ATOM      2  S   UNL     1     -12.256   6.962 131.499  0.00  0.00    +0.000 S 
ENDROOT
BRANCH   1   4
ATOM      3  C   UNL     1     -12.796   6.603 128.803  0.00  0.00    +0.000 C 
ATOM      4  O   UNL     1     -11.973   5.460 129.207  0.00  0.00    +0.000 OA
ENDBRANCH   1   4
BRANCH   1   5
ATOM      5  N   UNL     1     -11.232   3.924 130.738  0.00  0.00    +0.000 NA
ATOM      6  H   UNL     1     -11.943   3.713 130.042  0.00  0.00    +0.000 HD
BRANCH   5   7
ATOM      7  C   UNL     1     -10.171   2.892 130.567  0.00  0.00    +0.000 C 
ATOM      8  C   UNL     1      -8.933   3.294 129.753  0.00  0.00    +0.000 C 
ATOM      9  C   UNL     1      -9.791   2.214 131.877  0.00  0.00    +0.000 C 
ENDBRANCH   5   7
ENDBRANCH   1   5
BRANCH   1  10
ATOM     10  O   UNL     1     -10.040   5.792 132.057  0.00  0.00    +0.000 OA
BRANCH  10  11
ATOM     11  C   UNL     1      -8.660   6.037 132.071  0.00  0.00    +0.000 A 
ATOM     12  C   UNL     1      -8.003   6.874 131.159  0.00  0.00    +0.000 A 
ATOM     13  C   UNL     1      -6.613   6.956 131.078  0.00  0.00    +0.000 A 
ATOM     14  C   UNL     1      -5.848   6.344 132.064  0.00  0.00    +0.000 A 
ATOM     15 CL   UNL     1      -4.144   6.561 132.051  0.00  0.00    +0.000 Cl
ATOM     16  C   UNL     1      -6.475   5.629 133.075  0.00  0.00    +0.000 A 
ATOM     17  C   UNL     1      -7.869   5.455 133.076  0.00  0.00    +0.000 A 
ATOM     18 CL   UNL     1      -8.573   4.554 134.367  0.00  0.00    +0.000 Cl
ENDBRANCH  10  11
ENDBRANCH   1  10
TORSDOF 5
ENDMDL
MODEL 2
REMARK VINA RESULT:      -5.2      8.284     10.044
REMARK  Name = Zytron
REMARK  8 active torsions:
REMARK  status: ('A' for Active; 'I' for Inactive)
REMARK    1  A    between atoms: C_1  and  O_2
REMARK    2  A    between atoms: O_2  and  P_3
REMARK    3  A    between atoms: P_3  and  N_5
REMARK    4  A    between atoms: P_3  and  O_9
REMARK    5  A    between atoms: N_5  and  C_6
REMARK    6  A    between atoms: C_6  and  C_7
REMARK    7  A    between atoms: C_6  and  C_8
REMARK    8  A    between atoms: O_9  and  C_10
REMARK                            x       y       z     vdW  Elec       q    Type
REMARK                         _______ _______ _______ _____ _____    ______ ____
ROOT
ATOM      1  P   UNL     1      -7.731   1.800 124.073  0.00  0.00    +0.000 P 
ATOM      2  S   UNL     1      -9.750   1.649 124.061  0.00  0.00    +0.000 S 
ENDROOT
BRANCH   1   4
ATOM      3  C   UNL     1      -8.118   4.068 125.559  0.00  0.00    +0.000 C 
ATOM      4  O   UNL     1      -7.739   3.520 124.254  0.00  0.00    +0.000 OA
ENDBRANCH   1   4
BRANCH   1   5
ATOM      5  N   UNL     1      -6.809   2.155 122.666  0.00  0.00    +0.000 NA
ATOM      6  H   UNL     1      -7.054   1.422 122.003  0.00  0.00    +0.000 HD
BRANCH   5   7
ATOM      7  C   UNL     1      -6.846   3.431 121.898  0.00  0.00    +0.000 C 
ATOM      8  C   UNL     1      -5.580   3.810 121.116  0.00  0.00    +0.000 C 
ATOM      9  C   UNL     1      -8.101   3.569 121.044  0.00  0.00    +0.000 C 
ENDBRANCH   5   7
ENDBRANCH   1   5
BRANCH   1  10
ATOM     10  O   UNL     1      -7.725   0.080 123.891  0.00  0.00    +0.000 OA
BRANCH  10  11
ATOM     11  C   UNL     1      -8.060  -0.838 124.896  0.00  0.00    +0.000 A 
ATOM     12  C   UNL     1      -7.763  -0.658 126.254  0.00  0.00    +0.000 A 
ATOM     13  C   UNL     1      -7.941  -1.664 127.204  0.00  0.00    +0.000 A 
ATOM     14  C   UNL     1      -8.622  -2.819 126.836  0.00  0.00    +0.000 A 
ATOM     15 CL   UNL     1      -8.970  -3.999 128.035  0.00  0.00    +0.000 Cl
ATOM     16  C   UNL     1      -9.067  -2.967 125.530  0.00  0.00    +0.000 A 
ATOM     17  C   UNL     1      -8.776  -1.999 124.555  0.00  0.00    +0.000 A 
ATOM     18 CL   UNL     1      -9.364  -2.256 122.955  0.00  0.00    +0.000 Cl
ENDBRANCH  10  11
ENDBRANCH   1  10
TORSDOF 5
ENDMDL
MODEL 3
REMARK VINA RESULT:      -5.2      8.588      9.759
REMARK  Name = Zytron
REMARK  8 active torsions:
REMARK  status: ('A' for Active; 'I' for Inactive)
REMARK    1  A    between atoms: C_1  and  O_2
REMARK    2  A    between atoms: O_2  and  P_3
REMARK    3  A    between atoms: P_3  and  N_5
REMARK    4  A    between atoms: P_3  and  O_9
REMARK    5  A    between atoms: N_5  and  C_6
REMARK    6  A    between atoms: C_6  and  C_7
REMARK    7  A    between atoms: C_6  and  C_8
REMARK    8  A    between atoms: O_9  and  C_10
REMARK                            x       y       z     vdW  Elec       q    Type
REMARK                         _______ _______ _______ _____ _____    ______ ____
ROOT
ATOM      1  P   UNL     1      -8.982   0.439 124.331  0.00  0.00    +0.000 P 
ATOM      2  S   UNL     1      -8.912   0.680 126.340  0.00  0.00    +0.000 S 
ENDROOT
BRANCH   1   4
ATOM      3  C   UNL     1      -9.355  -1.873 125.751  0.00  0.00    +0.000 C 
ATOM      4  O   UNL     1      -9.263  -1.266 124.421  0.00  0.00    +0.000 OA
ENDBRANCH   1   4
BRANCH   1   5
ATOM      5  N   UNL     1      -7.621  -0.041 123.395  0.00  0.00    +0.000 NA
ATOM      6  H   UNL     1      -6.988   0.756 123.431  0.00  0.00    +0.000 HD
BRANCH   5   7
ATOM      7  C   UNL     1      -6.777  -1.245 123.637  0.00  0.00    +0.000 C 
ATOM      8  C   UNL     1      -6.135  -1.903 122.407  0.00  0.00    +0.000 C 
ATOM      9  C   UNL     1      -5.769  -1.043 124.761  0.00  0.00    +0.000 C 
ENDBRANCH   5   7
ENDBRANCH   1   5
BRANCH   1  10
ATOM     10  O   UNL     1      -8.700   2.143 124.240  0.00  0.00    +0.000 OA
BRANCH  10  11
ATOM     11  C   UNL     1      -8.000   2.790 123.213  0.00  0.00    +0.000 A 
ATOM     12  C   UNL     1      -8.570   3.160 121.988  0.00  0.00    +0.000 A 
ATOM     13  C   UNL     1      -7.812   3.634 120.916  0.00  0.00    +0.000 A 
ATOM     14  C   UNL     1      -6.473   3.940 121.128  0.00  0.00    +0.000 A 
ATOM     15 CL   UNL     1      -5.571   4.657 119.854  0.00  0.00    +0.000 Cl
ATOM     16  C   UNL     1      -5.909   3.728 122.378  0.00  0.00    +0.000 A 
ATOM     17  C   UNL     1      -6.654   3.139 123.414  0.00  0.00    +0.000 A 
ATOM     18 CL   UNL     1      -5.882   2.909 124.938  0.00  0.00    +0.000 Cl
ENDBRANCH  10  11
ENDBRANCH   1  10
TORSDOF 5
ENDMDL
MODEL 4
REMARK VINA RESULT:      -5.2      8.902     10.434
REMARK  Name = Zytron
REMARK  8 active torsions:
REMARK  status: ('A' for Active; 'I' for Inactive)
REMARK    1  A    between atoms: C_1  and  O_2
REMARK    2  A    between atoms: O_2  and  P_3
REMARK    3  A    between atoms: P_3  and  N_5
REMARK    4  A    between atoms: P_3  and  O_9
REMARK    5  A    between atoms: N_5  and  C_6
REMARK    6  A    between atoms: C_6  and  C_7
REMARK    7  A    between atoms: C_6  and  C_8
REMARK    8  A    between atoms: O_9  and  C_10
REMARK                            x       y       z     vdW  Elec       q    Type
REMARK                         _______ _______ _______ _____ _____    ______ ____
ROOT
ATOM      1  P   UNL     1      -6.778   2.501 124.249  0.00  0.00    +0.000 P 
ATOM      2  S   UNL     1      -8.313   3.349 125.261  0.00  0.00    +0.000 S 
ENDROOT
BRANCH   1   4
ATOM      3  C   UNL     1      -6.254   5.095 124.955  0.00  0.00    +0.000 C 
ATOM      4  O   UNL     1      -5.924   3.993 124.048  0.00  0.00    +0.000 OA
ENDBRANCH   1   4
BRANCH   1   5
ATOM      5  N   UNL     1      -6.697   2.458 122.531  0.00  0.00    +0.000 NA
ATOM      6  H   UNL     1      -7.249   1.646 122.266  0.00  0.00    +0.000 HD
BRANCH   5   7
ATOM      7  C   UNL     1      -7.111   3.554 121.611  0.00  0.00    +0.000 C 
ATOM      8  C   UNL     1      -6.248   3.777 120.361  0.00  0.00    +0.000 C 
ATOM      9  C   UNL     1      -8.596   3.511 121.273  0.00  0.00    +0.000 C 
ENDBRANCH   5   7
ENDBRANCH   1   5
BRANCH   1  10
ATOM     10  O   UNL     1      -7.632   1.010 124.449  0.00  0.00    +0.000 OA
BRANCH  10  11
ATOM     11  C   UNL     1      -7.054  -0.265 124.377  0.00  0.00    +0.000 A 
ATOM     12  C   UNL     1      -5.911  -0.649 125.091  0.00  0.00    +0.000 A 
ATOM     13  C   UNL     1      -5.251  -1.857 124.863  0.00  0.00    +0.000 A 
ATOM     14  C   UNL     1      -5.855  -2.805 124.044  0.00  0.00    +0.000 A 
ATOM     15 CL   UNL     1      -5.118  -4.348 123.874  0.00  0.00    +0.000 Cl
ATOM     16  C   UNL     1      -7.069  -2.515 123.438  0.00  0.00    +0.000 A 
ATOM     17  C   UNL     1      -7.662  -1.250 123.581  0.00  0.00    +0.000 A 
ATOM     18 CL   UNL     1      -9.171  -0.968 122.795  0.00  0.00    +0.000 Cl
ENDBRANCH  10  11
ENDBRANCH   1  10
TORSDOF 5
ENDMDL
MODEL 5
REMARK VINA RESULT:      -5.1      9.508     10.231
REMARK  Name = Zytron
REMARK  8 active torsions:
REMARK  status: ('A' for Active; 'I' for Inactive)
REMARK    1  A    between atoms: C_1  and  O_2
REMARK    2  A    between atoms: O_2  and  P_3
REMARK    3  A    between atoms: P_3  and  N_5
REMARK    4  A    between atoms: P_3  and  O_9
REMARK    5  A    between atoms: N_5  and  C_6
REMARK    6  A    between atoms: C_6  and  C_7
REMARK    7  A    between atoms: C_6  and  C_8
REMARK    8  A    between atoms: O_9  and  C_10
REMARK                            x       y       z     vdW  Elec       q    Type
REMARK                         _______ _______ _______ _____ _____    ______ ____
ROOT
ATOM      1  P   UNL     1      -5.928  -2.143 125.693  0.00  0.00    +0.000 P 
ATOM      2  S   UNL     1      -5.962  -0.118 125.675  0.00  0.00    +0.000 S 
ENDROOT
BRANCH   1   4
ATOM      3  C   UNL     1      -4.848  -3.593 123.636  0.00  0.00    +0.000 C 
ATOM      4  O   UNL     1      -5.265  -2.268 124.100  0.00  0.00    +0.000 OA
ENDBRANCH   1   4
BRANCH   1   5
ATOM      5  N   UNL     1      -7.186  -3.108 125.026  0.00  0.00    +0.000 NA
ATOM      6  H   UNL     1      -7.307  -3.870 125.689  0.00  0.00    +0.000 HD
BRANCH   5   7
ATOM      7  C   UNL     1      -8.558  -2.638 124.686  0.00  0.00    +0.000 C 
ATOM      8  C   UNL     1      -9.094  -3.001 123.294  0.00  0.00    +0.000 C 
ATOM      9  C   UNL     1      -9.574  -2.944 125.780  0.00  0.00    +0.000 C 
ENDBRANCH   5   7
ENDBRANCH   1   5
BRANCH   1  10
ATOM     10  O   UNL     1      -6.592  -2.017 127.285  0.00  0.00    +0.000 OA
BRANCH  10  11
ATOM     11  C   UNL     1      -6.018  -2.561 128.442  0.00  0.00    +0.000 A 
ATOM     12  C   UNL     1      -4.662  -2.442 128.776  0.00  0.00    +0.000 A 
ATOM     13  C   UNL     1      -4.081  -3.145 129.832  0.00  0.00    +0.000 A 
ATOM     14  C   UNL     1      -4.908  -3.834 130.711  0.00  0.00    +0.000 A 
ATOM     15 CL   UNL     1      -4.213  -4.582 132.093  0.00  0.00    +0.000 Cl
ATOM     16  C   UNL     1      -6.279  -3.848 130.498  0.00  0.00    +0.000 A 
ATOM     17  C   UNL     1      -6.837  -3.236 129.363  0.00  0.00    +0.000 A 
ATOM     18 CL   UNL     1      -8.549  -3.297 129.169  0.00  0.00    +0.000 Cl
ENDBRANCH  10  11
ENDBRANCH   1  10
TORSDOF 5
ENDMDL
MODEL 6
REMARK VINA RESULT:      -5.1      8.238      9.861
REMARK  Name = Zytron
REMARK  8 active torsions:
REMARK  status: ('A' for Active; 'I' for Inactive)
REMARK    1  A    between atoms: C_1  and  O_2
REMARK    2  A    between atoms: O_2  and  P_3
REMARK    3  A    between atoms: P_3  and  N_5
REMARK    4  A    between atoms: P_3  and  O_9
REMARK    5  A    between atoms: N_5  and  C_6
REMARK    6  A    between atoms: C_6  and  C_7
REMARK    7  A    between atoms: C_6  and  C_8
REMARK    8  A    between atoms: O_9  and  C_10
REMARK                            x       y       z     vdW  Elec       q    Type
REMARK                         _______ _______ _______ _____ _____    ______ ____
ROOT
ATOM      1  P   UNL     1      -9.013   1.085 124.712  0.00  0.00    +0.000 P 
ATOM      2  S   UNL     1      -9.099   1.994 122.905  0.00  0.00    +0.000 S 
ENDROOT
BRANCH   1   4
ATOM      3  C   UNL     1      -8.295   3.708 125.038  0.00  0.00    +0.000 C 
ATOM      4  O   UNL     1      -9.028   2.571 125.598  0.00  0.00    +0.000 OA
ENDBRANCH   1   4
BRANCH   1   5
ATOM      5  N   UNL     1      -7.541   0.827 125.564  0.00  0.00    +0.000 NA
ATOM      6  H   UNL     1      -6.912   1.550 125.218  0.00  0.00    +0.000 HD
BRANCH   5   7
ATOM      7  C   UNL     1      -7.380   0.819 127.045  0.00  0.00    +0.000 C 
ATOM      8  C   UNL     1      -7.607  -0.520 127.762  0.00  0.00    +0.000 C 
ATOM      9  C   UNL     1      -6.094   1.494 127.503  0.00  0.00    +0.000 C 
ENDBRANCH   5   7
ENDBRANCH   1   5
BRANCH   1  10
ATOM     10  O   UNL     1      -8.996  -0.401 123.826  0.00  0.00    +0.000 OA
BRANCH  10  11
ATOM     11  C   UNL     1      -7.956  -1.340 123.847  0.00  0.00    +0.000 A 
ATOM     12  C   UNL     1      -6.741  -1.180 123.167  0.00  0.00    +0.000 A 
ATOM     13  C   UNL     1      -5.801  -2.205 123.053  0.00  0.00    +0.000 A 
ATOM     14  C   UNL     1      -5.978  -3.361 123.804  0.00  0.00    +0.000 A 
ATOM     15 CL   UNL     1      -4.753  -4.566 123.778  0.00  0.00    +0.000 Cl
ATOM     16  C   UNL     1      -7.099  -3.492 124.611  0.00  0.00    +0.000 A 
ATOM     17  C   UNL     1      -8.096  -2.503 124.623  0.00  0.00    +0.000 A 
ATOM     18 CL   UNL     1      -9.460  -2.739 125.652  0.00  0.00    +0.000 Cl
ENDBRANCH  10  11
ENDBRANCH   1  10
TORSDOF 5
ENDMDL
MODEL 7
REMARK VINA RESULT:      -5.0      8.987      9.816
REMARK  Name = Zytron
REMARK  8 active torsions:
REMARK  status: ('A' for Active; 'I' for Inactive)
REMARK    1  A    between atoms: C_1  and  O_2
REMARK    2  A    between atoms: O_2  and  P_3
REMARK    3  A    between atoms: P_3  and  N_5
REMARK    4  A    between atoms: P_3  and  O_9
REMARK    5  A    between atoms: N_5  and  C_6
REMARK    6  A    between atoms: C_6  and  C_7
REMARK    7  A    between atoms: C_6  and  C_8
REMARK    8  A    between atoms: O_9  and  C_10
REMARK                            x       y       z     vdW  Elec       q    Type
REMARK                         _______ _______ _______ _____ _____    ______ ____
ROOT
ATOM      1  P   UNL     1      -6.615  -0.691 126.108  0.00  0.00    +0.000 P 
ATOM      2  S   UNL     1      -8.623  -0.555 125.895  0.00  0.00    +0.000 S 
ENDROOT
BRANCH   1   4
ATOM      3  C   UNL     1      -7.207   1.225 124.242  0.00  0.00    +0.000 C 
ATOM      4  O   UNL     1      -6.306   0.820 125.324  0.00  0.00    +0.000 OA
ENDBRANCH   1   4
BRANCH   1   5
ATOM      5  N   UNL     1      -5.580  -1.308 124.881  0.00  0.00    +0.000 NA
ATOM      6  H   UNL     1      -4.758  -1.643 125.379  0.00  0.00    +0.000 HD
BRANCH   5   7
ATOM      7  C   UNL     1      -5.929  -2.374 123.901  0.00  0.00    +0.000 C 
ATOM      8  C   UNL     1      -6.291  -1.922 122.479  0.00  0.00    +0.000 C 
ATOM      9  C   UNL     1      -4.924  -3.519 123.891  0.00  0.00    +0.000 C 
ENDBRANCH   5   7
ENDBRANCH   1   5
BRANCH   1  10
ATOM     10  O   UNL     1      -6.923  -2.202 126.891  0.00  0.00    +0.000 OA
BRANCH  10  11
ATOM     11  C   UNL     1      -6.307  -2.638 128.072  0.00  0.00    +0.000 A 
ATOM     12  C   UNL     1      -4.959  -2.414 128.382  0.00  0.00    +0.000 A 
ATOM     13  C   UNL     1      -4.326  -3.015 129.471  0.00  0.00    +0.000 A 
ATOM     14  C   UNL     1      -5.100  -3.701 130.399  0.00  0.00    +0.000 A 
ATOM     15 CL   UNL     1      -4.349  -4.319 131.815  0.00  0.00    +0.000 Cl
ATOM     16  C   UNL     1      -6.469  -3.813 130.203  0.00  0.00    +0.000 A 
ATOM     17  C   UNL     1      -7.074  -3.306 129.041  0.00  0.00    +0.000 A 
ATOM     18 CL   UNL     1      -8.781  -3.486 128.871  0.00  0.00    +0.000 Cl
ENDBRANCH  10  11
ENDBRANCH   1  10
TORSDOF 5
ENDMDL
MODEL 8
REMARK VINA RESULT:      -4.9      8.021      9.268
REMARK  Name = Zytron
REMARK  8 active torsions:
REMARK  status: ('A' for Active; 'I' for Inactive)
REMARK    1  A    between atoms: C_1  and  O_2
REMARK    2  A    between atoms: O_2  and  P_3
REMARK    3  A    between atoms: P_3  and  N_5
REMARK    4  A    between atoms: P_3  and  O_9
REMARK    5  A    between atoms: N_5  and  C_6
REMARK    6  A    between atoms: C_6  and  C_7
REMARK    7  A    between atoms: C_6  and  C_8
REMARK    8  A    between atoms: O_9  and  C_10
REMARK                            x       y       z     vdW  Elec       q    Type
REMARK                         _______ _______ _______ _____ _____    ______ ____
ROOT
ATOM      1  P   UNL     1      -7.898  -0.275 125.385  0.00  0.00    +0.000 P 
ATOM      2  S   UNL     1      -8.486   1.636 125.706  0.00  0.00    +0.000 S 
ENDROOT
BRANCH   1   4
ATOM      3  C   UNL     1      -7.294   1.350 123.264  0.00  0.00    +0.000 C 
ATOM      4  O   UNL     1      -7.567  -0.020 123.706  0.00  0.00    +0.000 OA
ENDBRANCH   1   4
BRANCH   1   5
ATOM      5  N   UNL     1      -8.953  -1.493 124.784  0.00  0.00    +0.000 NA
ATOM      6  H   UNL     1      -9.656  -0.986 124.250  0.00  0.00    +0.000 HD
BRANCH   5   7
ATOM      7  C   UNL     1      -8.553  -2.653 123.938  0.00  0.00    +0.000 C 
ATOM      8  C   UNL     1      -7.509  -3.614 124.524  0.00  0.00    +0.000 C 
ATOM      9  C   UNL     1      -9.748  -3.400 123.360  0.00  0.00    +0.000 C 
ENDBRANCH   5   7
ENDBRANCH   1   5
BRANCH   1  10
ATOM     10  O   UNL     1      -8.229  -0.529 127.063  0.00  0.00    +0.000 OA
BRANCH  10  11
ATOM     11  C   UNL     1      -7.658  -1.536 127.854  0.00  0.00    +0.000 A 
ATOM     12  C   UNL     1      -8.258  -2.779 128.094  0.00  0.00    +0.000 A 
ATOM     13  C   UNL     1      -7.760  -3.688 129.029  0.00  0.00    +0.000 A 
ATOM     14  C   UNL     1      -6.516  -3.446 129.600  0.00  0.00    +0.000 A 
ATOM     15 CL   UNL     1      -5.834  -4.629 130.642  0.00  0.00    +0.000 Cl
ATOM     16  C   UNL     1      -5.820  -2.292 129.268  0.00  0.00    +0.000 A 
ATOM     17  C   UNL     1      -6.388  -1.328 128.418  0.00  0.00    +0.000 A 
ATOM     18 CL   UNL     1      -5.460   0.079 128.053  0.00  0.00    +0.000 Cl
ENDBRANCH  10  11
ENDBRANCH   1  10
TORSDOF 5
ENDMDL
MODEL 9
REMARK VINA RESULT:      -4.9      7.918      9.433
REMARK  Name = Zytron
REMARK  8 active torsions:
REMARK  status: ('A' for Active; 'I' for Inactive)
REMARK    1  A    between atoms: C_1  and  O_2
REMARK    2  A    between atoms: O_2  and  P_3
REMARK    3  A    between atoms: P_3  and  N_5
REMARK    4  A    between atoms: P_3  and  O_9
REMARK    5  A    between atoms: N_5  and  C_6
REMARK    6  A    between atoms: C_6  and  C_7
REMARK    7  A    between atoms: C_6  and  C_8
REMARK    8  A    between atoms: O_9  and  C_10
REMARK                            x       y       z     vdW  Elec       q    Type
REMARK                         _______ _______ _______ _____ _____    ______ ____
ROOT
ATOM      1  P   UNL     1      -4.418   4.049 126.290  0.00  0.00    +0.000 P 
ATOM      2  S   UNL     1      -4.658   2.045 126.451  0.00  0.00    +0.000 S 
ENDROOT
BRANCH   1   4
ATOM      3  C   UNL     1      -1.894   3.079 126.727  0.00  0.00    +0.000 C 
ATOM      4  O   UNL     1      -2.905   4.060 127.129  0.00  0.00    +0.000 OA
ENDBRANCH   1   4
BRANCH   1   5
ATOM      5  N   UNL     1      -4.881   5.152 127.526  0.00  0.00    +0.000 NA
ATOM      6  H   UNL     1      -5.662   4.701 127.997  0.00  0.00    +0.000 HD
BRANCH   5   7
ATOM      7  C   UNL     1      -3.996   5.672 128.606  0.00  0.00    +0.000 C 
ATOM      8  C   UNL     1      -3.472   7.106 128.447  0.00  0.00    +0.000 C 
ATOM      9  C   UNL     1      -4.562   5.429 130.000  0.00  0.00    +0.000 C 
ENDBRANCH   5   7
ENDBRANCH   1   5
BRANCH   1  10
ATOM     10  O   UNL     1      -5.931   4.039 125.451  0.00  0.00    +0.000 OA
BRANCH  10  11
ATOM     11  C   UNL     1      -6.081   3.941 124.062  0.00  0.00    +0.000 A 
ATOM     12  C   UNL     1      -5.099   4.323 123.138  0.00  0.00    +0.000 A 
ATOM     13  C   UNL     1      -5.340   4.390 121.765  0.00  0.00    +0.000 A 
ATOM     14  C   UNL     1      -6.530   3.870 121.270  0.00  0.00    +0.000 A 
ATOM     15 CL   UNL     1      -6.772   3.818 119.569  0.00  0.00    +0.000 Cl
ATOM     16  C   UNL     1      -7.467   3.341 122.147  0.00  0.00    +0.000 A 
ATOM     17  C   UNL     1      -7.262   3.390 123.535  0.00  0.00    +0.000 A 
ATOM     18 CL   UNL     1      -8.473   2.712 124.559  0.00  0.00    +0.000 Cl
ENDBRANCH  10  11
ENDBRANCH   1  10
TORSDOF 5
ENDMDL
