REMARK  Name = NuBBE_1521
REMARK  19 active torsions:
REMARK  status: ('A' for Active; 'I' for Inactive)
REMARK    1  A    between atoms: C_1  and  C_2
REMARK    2  A    between atoms: C_6  and  C_10
REMARK    3  A    between atoms: C_12  and  O_14
REMARK    4  A    between atoms: O_14  and  C_15
REMARK    5  A    between atoms: C_17  and  C_20
REMARK    6  A    between atoms: C_20  and  C_22
REMARK    7  A    between atoms: C_20  and  O_26
REMARK    8  A    between atoms: C_22  and  C_23
REMARK    9  A    between atoms: C_22  and  C_24
REMARK   10  A    between atoms: C_22  and  O_25
REMARK   11  A    between atoms: C_31  and  C_32
REMARK   12  A    between atoms: C_36  and  O_38
REMARK   13  A    between atoms: C_39  and  C_40
REMARK   14  A    between atoms: C_39  and  C_41
REMARK   15  A    between atoms: C_42  and  O_46
REMARK   16  A    between atoms: O_46  and  C_47
REMARK   17  A    between atoms: C_47  and  C_49
REMARK   18  A    between atoms: C_50  and  N_51
REMARK   19  A    between atoms: N_51  and  C_52
REMARK                            x       y       z     vdW  Elec       q    Type
REMARK                         _______ _______ _______ _____ _____    ______ ____
ROOT
ATOM      1  C   LIG A   1      -2.112   0.565  -0.880  0.00  0.00    +0.014 C 
ATOM      2  C   LIG A   1      -1.048   0.698   0.248  0.00  0.00    +0.003 C 
ATOM      3  C   LIG A   1      -0.795   2.180   0.495  0.00  0.00    -0.015 C 
ATOM      4  C   LIG A   1       0.262   2.924  -0.272  0.00  0.00    -0.019 C 
ATOM      5  C   LIG A   1       0.496   2.540   1.175  0.00  0.00    +0.016 C 
ATOM      6  C   LIG A   1      -0.281   4.310  -0.619  0.00  0.00    +0.004 C 
ATOM      7  C   LIG A   1      -1.804   4.153  -0.440  0.00  0.00    +0.005 C 
ATOM      8  C   LIG A   1      -1.985   3.113   0.667  0.00  0.00    +0.008 C 
ATOM      9  C   LIG A   1       0.856   2.141  -1.427  0.00  0.00    +0.008 C 
ATOM     10  C   LIG A   1       1.219   0.681  -1.116  0.00  0.00    +0.005 C 
ATOM     11  C   LIG A   1       0.299  -0.064  -0.099  0.00  0.00    +0.004 C 
ATOM     12  C   LIG A   1       0.088  -1.610  -0.342  0.00  0.00    -0.025 C 
ATOM     13  C   LIG A   1      -0.516  -1.825  -1.745  0.00  0.00    +0.012 C 
ATOM     14  C   LIG A   1      -0.701  -2.213   0.889  0.00  0.00    +0.007 C 
ATOM     15  C   LIG A   1      -1.888  -1.376   1.430  0.00  0.00    +0.036 C 
ATOM     16  C   LIG A   1      -1.613   0.106   1.570  0.00  0.00    +0.122 C 
ATOM     17  C   LIG A   1      -1.058  -3.746   0.796  0.00  0.00    +0.006 C 
ATOM     18  C   LIG A   1      -2.556  -3.933   0.435  0.00  0.00    +0.015 C 
ATOM     19  C   LIG A   1      -0.906  -4.350   2.220  0.00  0.00    +0.015 C 
ATOM     20  C   LIG A   1      -0.100  -4.555  -0.148  0.00  0.00    +0.183 C 
ATOM     21  C   LIG A   1       1.292  -3.908  -0.423  0.00  0.00    +0.046 C 
ATOM     22  C   LIG A   1       1.437  -2.375  -0.302  0.00  0.00    +0.011 C 
ENDROOT
BRANCH   6  23
ATOM     23  C   LIG A   1       0.327   5.532   0.121  0.00  0.00    +0.051 C 
ATOM     24  C   LIG A   1       0.244   5.608   1.648  0.00  0.00    +0.254 C 
ATOM     25  O   LIG A   1       1.516   5.177   2.151  0.00  0.00    -0.345 OA
ATOM     26  C   LIG A   1       2.520   5.516   1.190  0.00  0.00    +0.153 C 
ATOM     27  C   LIG A   1       1.821   5.664  -0.155  0.00  0.00    +0.043 C 
BRANCH  24  28
ATOM     28  O   LIG A   1      -0.010   6.961   2.049  0.00  0.00    -0.354 OA
ATOM     29  C   LIG A   1      -0.180   7.073   3.460  0.00  0.00    +0.197 C 
ENDBRANCH  24  28
BRANCH  26  30
ATOM     30  C   LIG A   1       3.734   4.548   1.173  0.00  0.00    +0.174 C 
BRANCH  30  31
ATOM     31  C   LIG A   1       4.537   4.447   2.509  0.00  0.00    +0.089 C 
ATOM     32  C   LIG A   1       4.957   5.829   3.014  0.00  0.00    +0.044 C 
ATOM     33  C   LIG A   1       3.813   3.680   3.618  0.00  0.00    +0.044 C 
BRANCH  31  34
ATOM     34  O   LIG A   1       5.741   3.699   2.223  0.00  0.00    -0.387 OA
ATOM     35  H   LIG A   1       6.218   3.566   3.062  0.00  0.00    +0.210 HD
ENDBRANCH  31  34
ENDBRANCH  30  31
BRANCH  30  36
ATOM     36  O   LIG A   1       3.342   3.243   0.719  0.00  0.00    -0.386 OA
ATOM     37  H   LIG A   1       3.952   2.601   1.124  0.00  0.00    +0.210 HD
ENDBRANCH  30  36
ENDBRANCH  26  30
ENDBRANCH   6  23
BRANCH  16  38
ATOM     38  O   LIG A   1      -0.766   0.309   2.708  0.00  0.00    -0.391 OA
ATOM     39  H   LIG A   1       0.089  -0.123   2.559  0.00  0.00    +0.210 HD
ENDBRANCH  16  38
BRANCH  20  40
ATOM     40  O   LIG A   1      -0.719  -4.787  -1.454  0.00  0.00    -0.457 OA
BRANCH  40  41
ATOM     41  C   LIG A   1      -1.511  -5.901  -1.621  0.00  0.00    +0.341 C 
ATOM     42  O   LIG A   1      -1.805  -6.739  -0.802  0.00  0.00    -0.245 OA
BRANCH  41  43
ATOM     43  C   LIG A   1      -1.982  -5.904  -3.036  0.00  0.00    +0.080 A 
ATOM     44  C   LIG A   1      -2.258  -7.114  -3.712  0.00  0.00    +0.041 A 
ATOM     45  C   LIG A   1      -2.631  -7.010  -5.065  0.00  0.00    +0.024 A 
ATOM     46  C   LIG A   1      -2.783  -5.769  -5.698  0.00  0.00    +0.002 A 
ATOM     47  C   LIG A   1      -2.568  -4.592  -4.998  0.00  0.00    +0.001 A 
ATOM     48  C   LIG A   1      -2.179  -4.663  -3.670  0.00  0.00    +0.017 A 
BRANCH  44  49
ATOM     49  N   LIG A   1      -2.017  -8.369  -3.120  0.00  0.00    -0.346 N 
ATOM     50  C   LIG A   1      -2.799  -9.516  -3.559  0.00  0.00    +0.125 C 
ATOM     51  H   LIG A   1      -1.981  -8.295  -2.096  0.00  0.00    +0.146 HD
ENDBRANCH  44  49
ENDBRANCH  41  43
ENDBRANCH  40  41
ENDBRANCH  20  40
TORSDOF 11
