@<TRIPOS>MOLECULE
NuBBE_1238
 42 44 0 0 0
SMALL
GASTEIGER

@<TRIPOS>ATOM
      1 H          -1.9978   -3.9170   -0.8332 H       1  LIG1        0.0638
      2 C          -0.9245   -3.8396   -0.6945 C.ar    1  LIG1       -0.0374
      3 C          -0.2741   -2.5984   -0.5723 C.ar    1  LIG1        0.0561
      4 N          -0.9424   -1.3492   -0.5515 N.ar    1  LIG1       -0.3060
      5 C          -2.3287   -1.3151   -0.0402 C.3     1  LIG1        0.1700
      6 O          -2.3238   -1.0806    1.3744 O.3     1  LIG1       -0.4432
      7 C          -3.0593   -0.0204    1.7957 C.2     1  LIG1        0.3056
      8 C          -2.9371    0.1346    3.2812 C.3     1  LIG1        0.0333
      9 O          -3.7161    0.7205    1.0870 O.2     1  LIG1       -0.2511
     10 C          -0.2395   -0.1099   -0.5391 C.ar    1  LIG1        0.0633
     11 C          -0.8774    1.1402   -0.5724 C.ar    1  LIG1        0.0083
     12 C          -0.1716    2.3582   -0.5640 C.ar    1  LIG1        0.1672
     13 O          -1.0058    3.4498   -0.5446 O.3     1  LIG1       -0.4913
     14 C          -0.5327    4.6378   -1.1670 C.3     1  LIG1        0.0790
     15 C           1.2292    2.3635   -0.5171 C.ar    1  LIG1        0.2041
     16 O           1.8499    3.5841   -0.4952 O.3     1  LIG1       -0.4885
     17 C           3.0983    3.6787    0.1797 C.3     1  LIG1        0.0791
     18 C           1.8923    1.1274   -0.5360 C.ar    1  LIG1        0.1752
     19 O           3.2675    1.1129   -0.5891 O.3     1  LIG1       -0.5027
     20 C           1.1646   -0.0868   -0.5316 C.ar    1  LIG1        0.0911
     21 C           1.8855   -1.3762   -0.4965 C.ar    1  LIG1        0.2007
     22 O           3.1152   -1.3872   -0.4613 O.2     1  LIG1       -0.2864
     23 C           1.1293   -2.6388   -0.5181 C.ar    1  LIG1        0.0460
     24 C           1.8451   -3.8469   -0.4944 C.ar    1  LIG1       -0.0489
     25 C           1.1677   -5.0561   -0.5667 C.ar    1  LIG1       -0.0610
     26 C          -0.2159   -5.0510   -0.6852 C.ar    1  LIG1       -0.0598
     27 H          -2.8593   -2.2596   -0.1814 H       1  LIG1        0.0944
     28 H          -2.9381   -0.6066   -0.6125 H       1  LIG1        0.0944
     29 H          -2.9979   -0.8425    3.7678 H       1  LIG1        0.0342
     30 H          -3.7723    0.7412    3.6432 H       1  LIG1        0.0342
     31 H          -1.9937    0.6269    3.5290 H       1  LIG1        0.0342
     32 H          -1.9591    1.2252   -0.6273 H       1  LIG1        0.0676
     33 H          -1.4055    5.2515   -1.4116 H       1  LIG1        0.0660
     34 H          -0.0051    4.4303   -2.1039 H       1  LIG1        0.0660
     35 H           0.0830    5.2186   -0.4739 H       1  LIG1        0.0660
     36 H           3.9192    3.3853   -0.4807 H       1  LIG1        0.0660
     37 H           3.1065    3.1131    1.1176 H       1  LIG1        0.0660
     38 H           3.2562    4.7324    0.4304 H       1  LIG1        0.0660
     39 H           3.5714    0.1767   -0.5895 H       1  LIG1        0.2923
     40 H           2.9310   -3.8411   -0.4257 H       1  LIG1        0.0625
     41 H           1.7181   -5.9931   -0.5507 H       1  LIG1        0.0618
     42 H          -0.7525   -5.9927   -0.7789 H       1  LIG1        0.0618
@<TRIPOS>BOND
     1     1     2    1
     2     2     3   ar
     3     3     4   ar
     4     4     5    1
     5     5     6    1
     6     6     7    1
     7     7     8    1
     8     7     9    2
     9     4    10   ar
    10    10    11   ar
    11    11    12   ar
    12    12    13    1
    13    13    14    1
    14    12    15   ar
    15    15    16    1
    16    16    17    1
    17    15    18   ar
    18    18    19    1
    19    10    20   ar
    20    18    20   ar
    21    20    21   ar
    22    21    22    2
    23     3    23   ar
    24    21    23   ar
    25    23    24   ar
    26    24    25   ar
    27    25    26   ar
    28     2    26   ar
    29     5    27    1
    30     5    28    1
    31     8    29    1
    32     8    30    1
    33     8    31    1
    34    11    32    1
    35    14    33    1
    36    14    34    1
    37    14    35    1
    38    17    36    1
    39    17    37    1
    40    17    38    1
    41    19    39    1
    42    24    40    1
    43    25    41    1
    44    26    42    1
