REMARK  Name = NuBBE_398
REMARK  7 active torsions:
REMARK  status: ('A' for Active; 'I' for Inactive)
REMARK    1  A    between atoms: C_1  and  C_2
REMARK    2  A    between atoms: C_2  and  C_3
REMARK    3  A    between atoms: C_3  and  S_4
REMARK    4  A    between atoms: S_4  and  S_5
REMARK    5  A    between atoms: S_5  and  C_6
REMARK    6  A    between atoms: C_6  and  C_7
REMARK    7  A    between atoms: C_7  and  C_8
REMARK                            x       y       z     vdW  Elec       q    Type
REMARK                         _______ _______ _______ _____ _____    ______ ____
ROOT
ATOM      1  S   LIG A   1       0.662   0.301  -1.723  0.00  0.00    -0.093 S 
ENDROOT
BRANCH   1   2
ATOM      2  C   LIG A   1      -1.003   1.042  -1.867  0.00  0.00    +0.080 C 
BRANCH   2   4
ATOM      3  C   LIG A   1      -0.260   3.438  -1.349  0.00  0.00    +0.004 C 
ATOM      4  C   LIG A   1      -1.221   2.302  -1.027  0.00  0.00    +0.008 C 
ENDBRANCH   2   4
ENDBRANCH   1   2
BRANCH   1   5
ATOM      5  S   LIG A   1       0.797  -0.176   0.273  0.00  0.00    -0.093 S 
BRANCH   5   6
ATOM      6  C   LIG A   1       0.239  -1.911   0.298  0.00  0.00    +0.080 C 
BRANCH   6   7
ATOM      7  C   LIG A   1       0.232  -2.502   1.710  0.00  0.00    +0.008 C 
ATOM      8  C   LIG A   1       1.590  -2.501   2.398  0.00  0.00    +0.004 C 
ENDBRANCH   6   7
ENDBRANCH   5   6
ENDBRANCH   1   5
TORSDOF 5
