REMARK  Name = NuBBE_369
REMARK  14 active torsions:
REMARK  status: ('A' for Active; 'I' for Inactive)
REMARK    1  A    between atoms: O_1  and  C_2
REMARK    2  A    between atoms: C_8  and  O_39
REMARK    3  A    between atoms: C_9  and  C_10
REMARK    4  A    between atoms: C_13  and  C_35
REMARK    5  A    between atoms: C_15  and  O_34
REMARK    6  A    between atoms: C_17  and  O_33
REMARK    7  A    between atoms: C_19  and  O_21
REMARK    8  A    between atoms: O_21  and  C_22
REMARK    9  A    between atoms: C_22  and  C_23
REMARK   10  A    between atoms: C_24  and  C_25
REMARK   11  A    between atoms: C_28  and  O_31
REMARK   12  A    between atoms: C_35  and  O_36
REMARK   13  A    between atoms: C_37  and  O_38
REMARK   14  A    between atoms: C_45  and  O_46
REMARK                            x       y       z     vdW  Elec       q    Type
REMARK                         _______ _______ _______ _____ _____    ______ ____
ROOT
ATOM      1  C   LIG A   1       0.896   0.882  -1.942  0.00  0.00    +0.199 C 
ATOM      2  O   LIG A   1       1.469   1.004  -3.260  0.00  0.00    -0.360 OA
ATOM      3  C   LIG A   1       0.862   2.061  -4.012  0.00  0.00    +0.175 C 
ATOM      4  C   LIG A   1       1.228   3.414  -3.384  0.00  0.00    +0.177 C 
ATOM      5  C   LIG A   1       0.635   3.465  -1.979  0.00  0.00    +0.189 C 
ATOM      6  C   LIG A   1       0.986   2.216  -1.141  0.00  0.00    +0.241 C 
ENDROOT
BRANCH   1  14
ATOM      7  C   LIG A   1       2.751  -6.760   2.265  0.00  0.00    +0.162 A 
ATOM      8  C   LIG A   1       3.424  -5.630   1.801  0.00  0.00    +0.096 A 
ATOM      9  C   LIG A   1       2.710  -4.622   1.148  0.00  0.00    +0.143 A 
ATOM     10  O   LIG A   1       3.434  -3.540   0.709  0.00  0.00    -0.454 OA
ATOM     11  C   LIG A   1       2.765  -2.517   0.079  0.00  0.00    +0.146 A 
ATOM     12  C   LIG A   1       3.542  -1.438  -0.340  0.00  0.00    +0.093 A 
ATOM     13  C   LIG A   1       2.942  -0.348  -0.984  0.00  0.00    +0.130 A 
ATOM     14  C   LIG A   1       1.558  -0.300  -1.228  0.00  0.00    +0.068 A 
ATOM     15  C   LIG A   1       0.794  -1.405  -0.797  0.00  0.00    +0.141 A 
ATOM     16  C   LIG A   1       1.395  -2.504  -0.154  0.00  0.00    +0.106 A 
ATOM     17  C   LIG A   1       0.614  -3.673   0.284  0.00  0.00    +0.204 A 
ATOM     18  O   LIG A   1      -0.593  -3.735   0.074  0.00  0.00    -0.286 OA
ATOM     19  C   LIG A   1       1.334  -4.753   0.971  0.00  0.00    +0.068 A 
ATOM     20  C   LIG A   1       0.653  -5.885   1.435  0.00  0.00    +0.064 A 
ATOM     21  C   LIG A   1       1.371  -6.887   2.082  0.00  0.00    +0.159 A 
BRANCH   7  22
ATOM     22  O   LIG A   1       3.433  -7.757   2.904  0.00  0.00    -0.503 OA
ATOM     23  H   LIG A   1       4.376  -7.535   2.943  0.00  0.00    +0.292 HD
ENDBRANCH   7  22
BRANCH  15  24
ATOM     24  O   LIG A   1      -0.561  -1.384  -1.021  0.00  0.00    -0.505 OA
ATOM     25  H   LIG A   1      -0.946  -2.237  -0.714  0.00  0.00    +0.292 HD
ENDBRANCH  15  24
BRANCH  13  26
ATOM     26  O   LIG A   1       3.729   0.696  -1.385  0.00  0.00    -0.506 OA
ATOM     27  H   LIG A   1       4.663   0.476  -1.230  0.00  0.00    +0.292 HD
ENDBRANCH  13  26
BRANCH  21  28
ATOM     28  O   LIG A   1       0.736  -8.005   2.544  0.00  0.00    -0.503 OA
ATOM     29  H   LIG A   1      -0.209  -7.955   2.329  0.00  0.00    +0.292 HD
ENDBRANCH  21  28
ENDBRANCH   1  14
BRANCH   5  30
ATOM     30  O   LIG A   1       1.095   4.660  -1.316  0.00  0.00    -0.385 OA
ATOM     31  H   LIG A   1       0.924   5.380  -1.956  0.00  0.00    +0.210 HD
ENDBRANCH   5  30
BRANCH   4  32
ATOM     32  O   LIG A   1       0.703   4.540  -4.103  0.00  0.00    -0.387 OA
ATOM     33  H   LIG A   1       0.913   4.394  -5.051  0.00  0.00    +0.210 HD
ENDBRANCH   4  32
BRANCH   6  34
ATOM     34  O   LIG A   1       0.181   2.201   0.067  0.00  0.00    -0.453 OA
BRANCH  34  35
ATOM     35  C   LIG A   1      -1.159   2.083  -0.093  0.00  0.00    +0.332 C 
ATOM     36  O   LIG A   1      -1.764   1.863  -1.124  0.00  0.00    -0.246 OA
BRANCH  35  37
ATOM     37  C   LIG A   1      -1.790   2.350   1.205  0.00  0.00    +0.092 C 
ATOM     38  C   LIG A   1      -3.060   1.961   1.374  0.00  0.00    +0.015 C 
BRANCH  38  39
ATOM     39  C   LIG A   1      -3.844   2.216   2.582  0.00  0.00    -0.025 A 
ATOM     40  C   LIG A   1      -3.643   3.350   3.383  0.00  0.00    +0.011 A 
ATOM     41  C   LIG A   1      -4.446   3.576   4.502  0.00  0.00    +0.046 A 
ATOM     42  C   LIG A   1      -5.457   2.672   4.809  0.00  0.00    +0.117 A 
ATOM     43  C   LIG A   1      -5.684   1.556   4.015  0.00  0.00    +0.046 A 
ATOM     44  C   LIG A   1      -4.880   1.330   2.900  0.00  0.00    +0.011 A 
BRANCH  42  45
ATOM     45  O   LIG A   1      -6.262   2.855   5.893  0.00  0.00    -0.507 OA
ATOM     46  H   LIG A   1      -5.971   3.656   6.358  0.00  0.00    +0.292 HD
ENDBRANCH  42  45
ENDBRANCH  38  39
ENDBRANCH  35  37
ENDBRANCH  34  35
ENDBRANCH   6  34
BRANCH   3  47
ATOM     47  C   LIG A   1       1.340   1.958  -5.462  0.00  0.00    +0.190 C 
BRANCH  47  48
ATOM     48  O   LIG A   1       0.772   2.986  -6.271  0.00  0.00    -0.392 OA
ATOM     49  H   LIG A   1      -0.174   2.770  -6.382  0.00  0.00    +0.209 HD
ENDBRANCH  47  48
ENDBRANCH   3  47
TORSDOF 14
