REMARK  Name = NuBBE_1921
REMARK  6 active torsions:
REMARK  status: ('A' for Active; 'I' for Inactive)
REMARK    1  A    between atoms: C_1  and  C_8
REMARK    2  A    between atoms: C_1  and  C_10
REMARK    3  A    between atoms: C_2  and  C_3
REMARK    4  A    between atoms: C_3  and  C_4
REMARK    5  A    between atoms: C_5  and  C_6
REMARK    6  A    between atoms: C_5  and  C_7
REMARK                            x       y       z     vdW  Elec       q    Type
REMARK                         _______ _______ _______ _____ _____    ______ ____
ROOT
ATOM      1  C   LIG A   1      -0.108  -0.915   1.856  0.00  0.00    -0.055 C 
ATOM      2  C   LIG A   1       0.138  -0.010   0.885  0.00  0.00    -0.020 C 
ATOM      3  C   LIG A   1       0.412  -2.330   1.855  0.00  0.00    +0.043 C 
ENDROOT
BRANCH   1   4
ATOM      4  C   LIG A   1      -0.921  -0.514   3.008  0.00  0.00    -0.005 C 
ATOM      5  C   LIG A   1      -1.225  -1.280   4.061  0.00  0.00    +0.008 C 
ENDBRANCH   1   4
BRANCH   2   6
ATOM      6  C   LIG A   1       1.012  -0.150  -0.331  0.00  0.00    +0.054 C 
BRANCH   6   7
ATOM      7  C   LIG A   1       0.250   0.005  -1.619  0.00  0.00    -0.024 C 
ATOM      8  C   LIG A   1       0.106   1.124  -2.360  0.00  0.00    -0.079 C 
ATOM      9  C   LIG A   1       0.599   2.485  -1.953  0.00  0.00    +0.038 C 
ATOM     10  C   LIG A   1      -0.593   1.083  -3.694  0.00  0.00    +0.038 C 
ENDBRANCH   6   7
ENDBRANCH   2   6
TORSDOF 3
