@<TRIPOS>MOLECULE
NuBBE_2411
 52 55 0 0 0
SMALL
GASTEIGER

@<TRIPOS>ATOM
      1 C           1.3152    1.7554   -2.1499 C.2     1  LIG1       -0.0884
      2 C           2.0102    0.9589   -1.3188 C.2     1  LIG1        0.0329
      3 C           3.2356    0.2794   -1.8646 C.2     1  LIG1        0.3346
      4 O           3.7605   -0.6858   -1.3376 O.2     1  LIG1       -0.2453
      5 O           3.6876    0.9285   -2.9660 O.3     1  LIG1       -0.4647
      6 C           4.8812    0.4305   -3.5683 C.3     1  LIG1        0.0820
      7 C           1.7241    0.6954    0.1666 C.3     1  LIG1       -0.0042
      8 H           2.7092    0.5245    0.6259 H       1  LIG1        0.0354
      9 C           0.9400   -0.6265    0.3665 C.3     1  LIG1       -0.0287
     10 C          -0.4903   -0.5039    0.9565 C.3     1  LIG1        0.0290
     11 H          -0.4384   -0.5386    2.0519 H       1  LIG1        0.0476
     12 N          -1.1515    0.7403    0.5383 N.3     1  LIG1       -0.2977
     13 C          -1.7310    0.5260   -0.7873 C.3     1  LIG1        0.0005
     14 C          -1.8335   -0.9863   -0.9610 C.3     1  LIG1       -0.0206
     15 C          -1.4774   -1.5664    0.4212 C.3     1  LIG1        0.0904
     16 C          -0.9661   -3.0275    0.2300 C.2     1  LIG1        0.2293
     17 O           0.1357   -3.4171   -0.0689 O.2     1  LIG1       -0.2744
     18 N          -2.0781   -3.8506    0.4075 N.am    1  LIG1       -0.2845
     19 C          -3.1452   -3.1564    0.9614 C.ar    1  LIG1        0.0376
     20 C          -4.3732   -3.6721    1.3183 C.ar    1  LIG1       -0.0402
     21 C          -5.2686   -2.8038    1.9427 C.ar    1  LIG1       -0.0600
     22 C          -4.9050   -1.4715    2.2124 C.ar    1  LIG1       -0.0614
     23 C          -3.6631   -0.9649    1.8088 C.ar    1  LIG1       -0.0558
     24 C          -2.7943   -1.8181    1.1447 C.ar    1  LIG1       -0.0097
     25 C          -0.4229    1.9852    0.7330 C.3     1  LIG1        0.0026
     26 C           1.0873    1.8297    1.0019 C.3     1  LIG1       -0.0214
     27 H           1.1801    1.5169    2.0541 H       1  LIG1        0.0319
     28 C           1.8149    3.1910    0.9050 C.3     1  LIG1       -0.0513
     29 C           3.3088    3.1177    1.2015 C.3     1  LIG1       -0.0650
     30 H           1.5703    1.8675   -3.2007 H       1  LIG1        0.0540
     31 H           0.4557    2.3278   -1.8387 H       1  LIG1        0.0540
     32 H           4.7615    0.5097   -4.6532 H       1  LIG1        0.0661
     33 H           5.0911   -0.6122   -3.3196 H       1  LIG1        0.0661
     34 H           5.7175    1.0673   -3.2666 H       1  LIG1        0.0661
     35 H           1.5135   -1.2512    1.0670 H       1  LIG1        0.0287
     36 H           0.9348   -1.1781   -0.5787 H       1  LIG1        0.0287
     37 H          -1.1368    0.9271   -1.6075 H       1  LIG1        0.0427
     38 H          -2.7203    0.9917   -0.8407 H       1  LIG1        0.0427
     39 H          -2.8240   -1.2786   -1.3278 H       1  LIG1        0.0291
     40 H          -1.1062   -1.3212   -1.7124 H       1  LIG1        0.0291
     41 H          -2.0310   -4.8511    0.2929 H       1  LIG1        0.1548
     42 H          -4.6425   -4.7012    1.1137 H       1  LIG1        0.0636
     43 H          -6.2550   -3.1610    2.2297 H       1  LIG1        0.0618
     44 H          -5.6099   -0.8195    2.7245 H       1  LIG1        0.0618
     45 H          -3.4083    0.0742    1.9911 H       1  LIG1        0.0621
     46 H          -0.8584    2.4756    1.6141 H       1  LIG1        0.0429
     47 H          -0.6188    2.6923   -0.0804 H       1  LIG1        0.0429
     48 H           1.6742    3.6406   -0.0838 H       1  LIG1        0.0266
     49 H           1.3586    3.8851    1.6219 H       1  LIG1        0.0266
     50 H           3.8460    2.5444    0.4400 H       1  LIG1        0.0230
     51 H           3.4951    2.6573    2.1767 H       1  LIG1        0.0230
     52 H           3.7413    4.1234    1.2129 H       1  LIG1        0.0230
@<TRIPOS>BOND
     1     1     2    2
     2     2     3    1
     3     3     4    2
     4     3     5    1
     5     5     6    1
     6     7     9    1
     7     9    10    1
     8    10    12    1
     9    12    13    1
    10    13    14    1
    11    14    15    1
    12    10    15    1
    13    15    16    1
    14    16    17    2
    15    16    18   am
    16    18    19    1
    17    19    20   ar
    18    20    21   ar
    19    21    22   ar
    20    22    23   ar
    21    23    24   ar
    22    19    24   ar
    23    15    24    1
    24    12    25    1
    25    25    26    1
    26     7    26    1
    27    28    29    1
    28     2     7    1
    29     7     8    1
    30    10    11    1
    31    26    27    1
    32    26    28    1
    33     1    30    1
    34     1    31    1
    35     6    32    1
    36     6    33    1
    37     6    34    1
    38     9    35    1
    39     9    36    1
    40    13    37    1
    41    13    38    1
    42    14    39    1
    43    14    40    1
    44    18    41    1
    45    20    42    1
    46    21    43    1
    47    22    44    1
    48    23    45    1
    49    25    46    1
    50    25    47    1
    51    28    48    1
    52    28    49    1
    53    29    50    1
    54    29    51    1
    55    29    52    1
