REMARK  Name = NuBBE_1258
REMARK  1 active torsions:
REMARK  status: ('A' for Active; 'I' for Inactive)
REMARK    1  A    between atoms: C_16  and  O_17
REMARK                            x       y       z     vdW  Elec       q    Type
REMARK                         _______ _______ _______ _____ _____    ______ ____
ROOT
ATOM      1  O   LIG A   1      -3.592   2.042  -0.268  0.00  0.00    -0.267 OA
ATOM      2  C   LIG A   1      -2.363   1.965  -0.257  0.00  0.00    +0.262 A 
ATOM      3  C   LIG A   1      -1.553   3.198  -0.301  0.00  0.00    +0.065 A 
ATOM      4  C   LIG A   1      -0.179   3.080  -0.095  0.00  0.00    +0.079 A 
ATOM      5  C   LIG A   1       0.594   4.239  -0.005  0.00  0.00    +0.028 A 
ATOM      6  C   LIG A   1       0.003   5.498  -0.136  0.00  0.00    +0.002 A 
ATOM      7  C   LIG A   1      -1.364   5.604  -0.392  0.00  0.00    +0.001 A 
ATOM      8  C   LIG A   1      -2.148   4.453  -0.476  0.00  0.00    +0.015 A 
ATOM      9  N   LIG A   1       0.458   1.842   0.033  0.00  0.00    -0.227 NA
ATOM     10  C   LIG A   1      -0.278   0.783  -0.009  0.00  0.00    +0.161 A 
ATOM     11  C   LIG A   1       0.351  -0.503   0.077  0.00  0.00    +0.087 A 
ATOM     12  C   LIG A   1      -0.283  -1.711  -0.123  0.00  0.00    -0.010 A 
ATOM     13  C   LIG A   1       0.681  -2.740   0.042  0.00  0.00    +0.004 A 
ATOM     14  C   LIG A   1       0.652  -4.147  -0.029  0.00  0.00    +0.014 A 
ATOM     15  C   LIG A   1       1.831  -4.873   0.192  0.00  0.00    +0.046 A 
ATOM     16  C   LIG A   1       3.019  -4.208   0.475  0.00  0.00    +0.119 A 
ATOM     17  C   LIG A   1       3.084  -2.818   0.547  0.00  0.00    +0.071 A 
ATOM     18  C   LIG A   1       1.898  -2.110   0.328  0.00  0.00    +0.051 A 
ATOM     19  N   LIG A   1       1.670  -0.753   0.331  0.00  0.00    -0.351 N 
ATOM     20  H   LIG A   1       2.365  -0.037   0.492  0.00  0.00    +0.166 HD
ATOM     21  C   LIG A   1      -1.729  -1.741  -0.472  0.00  0.00    +0.059 C 
ATOM     22  C   LIG A   1      -2.415  -0.473   0.076  0.00  0.00    +0.131 C 
ATOM     23  N   LIG A   1      -1.660   0.775  -0.154  0.00  0.00    -0.291 N 
ENDROOT
BRANCH  16  24
ATOM     24  O   LIG A   1       4.179  -4.896   0.693  0.00  0.00    -0.507 OA
ATOM     25  H   LIG A   1       3.993  -5.845   0.619  0.00  0.00    +0.292 HD
ENDBRANCH  16  24
TORSDOF 1
