REMARK  Name = NuBBE_989
REMARK  3 active torsions:
REMARK  status: ('A' for Active; 'I' for Inactive)
REMARK    1  A    between atoms: C_1  and  C_2
REMARK    2  A    between atoms: C_9  and  O_20
REMARK    3  A    between atoms: C_11  and  O_19
REMARK                            x       y       z     vdW  Elec       q    Type
REMARK                         _______ _______ _______ _____ _____    ______ ____
ROOT
ATOM      1  C   LIG A   1      -2.413   1.422   2.458  0.00  0.00    +0.012 C 
ATOM      2  C   LIG A   1      -0.911   1.089   2.383  0.00  0.00    -0.022 C 
ATOM      3  C   LIG A   1      -0.004   2.200   1.584  0.00  0.00    +0.006 C 
ATOM      4  C   LIG A   1       0.273   1.657  -0.048  0.00  0.00    -0.003 C 
ATOM      5  C   LIG A   1       0.752   2.299  -1.417  0.00  0.00    +0.004 C 
ATOM      6  C   LIG A   1       0.510   1.280  -2.717  0.00  0.00    +0.004 C 
ATOM      7  C   LIG A   1       1.047  -0.207  -2.580  0.00  0.00    +0.001 C 
ATOM      8  C   LIG A   1       0.443  -1.502  -3.503  0.00  0.00    +0.041 C 
ATOM      9  C   LIG A   1      -0.355  -2.751  -2.736  0.00  0.00    +0.174 C 
ATOM     10  C   LIG A   1      -0.568  -2.483  -1.234  0.00  0.00    +0.194 C 
ATOM     11  C   LIG A   1      -0.710  -1.010  -1.250  0.00  0.00    +0.077 C 
ATOM     12  C   LIG A   1       0.769  -0.621  -1.161  0.00  0.00    +0.005 C 
ATOM     13  C   LIG A   1       1.062   0.344  -0.013  0.00  0.00    +0.001 C 
ATOM     14  C   LIG A   1       0.746  -0.375   1.282  0.00  0.00    +0.005 C 
ATOM     15  C   LIG A   1      -0.732  -0.188   1.615  0.00  0.00    +0.007 C 
ATOM     16  C   LIG A   1       1.588  -1.908  -0.896  0.00  0.00    +0.171 C 
ATOM     17  O   LIG A   1       0.593  -2.840  -0.495  0.00  0.00    -0.346 OA
ATOM     18  C   LIG A   1       1.120   2.423   2.653  0.00  0.00    +0.078 C 
ATOM     19  C   LIG A   1       0.958   1.368   3.739  0.00  0.00    +0.134 C 
ATOM     20  C   LIG A   1      -0.344   0.686   3.755  0.00  0.00    +0.081 C 
ATOM     21  O   LIG A   1       1.868   1.057   4.566  0.00  0.00    -0.297 OA
ENDROOT
BRANCH  10  22
ATOM     22  O   LIG A   1      -1.722  -3.084  -0.676  0.00  0.00    -0.363 OA
ATOM     23  H   LIG A   1      -1.961  -2.538   0.098  0.00  0.00    +0.213 HD
ENDBRANCH  10  22
BRANCH   9  24
ATOM     24  O   LIG A   1      -1.662  -2.952  -3.299  0.00  0.00    -0.387 OA
ATOM     25  H   LIG A   1      -2.183  -3.351  -2.560  0.00  0.00    +0.210 HD
ENDBRANCH   9  24
TORSDOF 2
