REMARK  Name = NuBBE_2301
REMARK  5 active torsions:
REMARK  status: ('A' for Active; 'I' for Inactive)
REMARK    1  A    between atoms: C_1  and  C_2
REMARK    2  A    between atoms: C_1  and  C_3
REMARK    3  A    between atoms: C_17  and  O_18
REMARK    4  A    between atoms: O_18  and  C_19
REMARK    5  A    between atoms: C_20  and  C_22
REMARK                            x       y       z     vdW  Elec       q    Type
REMARK                         _______ _______ _______ _____ _____    ______ ____
ROOT
ATOM      1  C   LIG A   1      -1.212  -0.778  -2.007  0.00  0.00    -0.013 C 
ATOM      2  C   LIG A   1       0.148  -1.082  -1.383  0.00  0.00    +0.075 C 
ATOM      3  C   LIG A   1       0.652  -0.204  -0.246  0.00  0.00    +0.034 C 
ATOM      4  C   LIG A   1       0.128   1.226  -0.450  0.00  0.00    +0.094 C 
ATOM      5  C   LIG A   1       0.023   1.607  -1.920  0.00  0.00    +0.024 C 
ATOM      6  C   LIG A   1      -1.052   0.682  -2.616  0.00  0.00    +0.010 C 
ATOM      7  N   LIG A   1       0.715   1.986   0.655  0.00  0.00    -0.264 N 
ATOM      8  C   LIG A   1       0.596   1.088   1.772  0.00  0.00    +0.082 A 
ATOM      9  C   LIG A   1       0.429  -0.233   1.255  0.00  0.00    -0.013 A 
ATOM     10  C   LIG A   1       0.270  -1.333   2.085  0.00  0.00    +0.006 A 
ATOM     11  C   LIG A   1       0.284  -1.123   3.458  0.00  0.00    +0.004 A 
ATOM     12  C   LIG A   1       0.409   0.173   3.983  0.00  0.00    +0.047 A 
ATOM     13  C   LIG A   1       0.544   1.298   3.149  0.00  0.00    +0.142 A 
ATOM     14  C   LIG A   1       1.006   3.328   0.578  0.00  0.00    +0.217 C 
ATOM     15  O   LIG A   1       0.742   3.999  -0.418  0.00  0.00    -0.276 OA
ATOM     16  C   LIG A   1       1.764   3.992   1.694  0.00  0.00    +0.110 C 
ATOM     17  C   LIG A   1       2.133  -0.640  -0.381  0.00  0.00    +0.030 C 
ATOM     18  C   LIG A   1       2.003  -2.183  -0.658  0.00  0.00    +0.086 C 
ATOM     19  N   LIG A   1       0.562  -2.410  -0.972  0.00  0.00    -0.298 NA
ATOM     20  C   LIG A   1       0.315  -3.409  -2.010  0.00  0.00    +0.085 C 
ATOM     21  C   LIG A   1      -1.090  -3.266  -2.631  0.00  0.00    +0.016 C 
ATOM     22  C   LIG A   1      -1.366  -1.838  -3.141  0.00  0.00    +0.009 C 
ENDROOT
BRANCH   1  23
ATOM     23  C   LIG A   1      -2.387  -0.899  -0.995  0.00  0.00    +0.005 C 
ATOM     24  C   LIG A   1      -3.777  -0.615  -1.563  0.00  0.00    +0.004 C 
ENDBRANCH   1  23
BRANCH  13  25
ATOM     25  O   LIG A   1       0.464   2.570   3.635  0.00  0.00    -0.493 OA
ATOM     26  C   LIG A   1       1.045   2.792   4.918  0.00  0.00    +0.277 C 
ENDBRANCH  13  25
TORSDOF 2
