REMARK  Name = NuBBE_350
REMARK  7 active torsions:
REMARK  status: ('A' for Active; 'I' for Inactive)
REMARK    1  A    between atoms: C_2  and  C_3
REMARK    2  A    between atoms: C_2  and  C_13
REMARK    3  A    between atoms: C_4  and  O_5
REMARK    4  A    between atoms: C_7  and  O_8
REMARK    5  A    between atoms: O_8  and  C_9
REMARK    6  A    between atoms: C_11  and  O_12
REMARK    7  A    between atoms: C_14  and  C_15
REMARK                            x       y       z     vdW  Elec       q    Type
REMARK                         _______ _______ _______ _____ _____    ______ ____
ROOT
ATOM      1  C   LIG A   1       1.023   0.182  -1.225  0.00  0.00    +0.157 C 
ATOM      2  C   LIG A   1       0.870   0.767  -2.651  0.00  0.00    +0.159 C 
ATOM      3  C   LIG A   1       0.381  -0.202  -3.692  0.00  0.00    +0.050 C 
ATOM      4  C   LIG A   1       0.375  -1.532  -3.494  0.00  0.00    +0.122 C 
ATOM      5  C   LIG A   1       0.913  -2.088  -2.270  0.00  0.00    +0.087 C 
ATOM      6  C   LIG A   1       1.224  -1.318  -1.215  0.00  0.00    +0.111 C 
ENDROOT
BRANCH   1   8
ATOM      7  O   LIG A   1      -1.347   0.610  -0.896  0.00  0.00    -0.292 OA
ATOM      8  C   LIG A   1      -0.226   0.498  -0.400  0.00  0.00    +0.169 C 
BRANCH   8   9
ATOM      9  C   LIG A   1      -0.030   0.651   1.075  0.00  0.00    +0.048 C 
ATOM     10  C   LIG A   1      -1.064   0.942   1.878  0.00  0.00    +0.011 C 
BRANCH  10  11
ATOM     11  C   LIG A   1      -0.956   1.089   3.337  0.00  0.00    -0.025 A 
ATOM     12  C   LIG A   1      -2.059   0.755   4.136  0.00  0.00    +0.008 A 
ATOM     13  C   LIG A   1      -2.003   0.894   5.525  0.00  0.00    +0.001 A 
ATOM     14  C   LIG A   1      -0.847   1.381   6.132  0.00  0.00    +0.000 A 
ATOM     15  C   LIG A   1       0.248   1.738   5.349  0.00  0.00    +0.001 A 
ATOM     16  C   LIG A   1       0.192   1.599   3.959  0.00  0.00    +0.008 A 
ENDBRANCH  10  11
ENDBRANCH   8   9
ENDBRANCH   1   8
BRANCH   2  17
ATOM     17  O   LIG A   1       2.137   1.260  -3.111  0.00  0.00    -0.387 OA
ATOM     18  H   LIG A   1       2.703   0.482  -3.262  0.00  0.00    +0.210 HD
ENDBRANCH   2  17
BRANCH   4  19
ATOM     19  O   LIG A   1      -0.053  -2.500  -4.367  0.00  0.00    -0.495 OA
ATOM     20  C   LIG A   1      -0.585  -2.072  -5.615  0.00  0.00    +0.277 C 
ENDBRANCH   4  19
BRANCH   6  21
ATOM     21  O   LIG A   1       1.785  -1.835  -0.064  0.00  0.00    -0.510 OA
ATOM     22  H   LIG A   1       1.859  -2.802  -0.158  0.00  0.00    +0.292 HD
ENDBRANCH   6  21
TORSDOF 6
