REMARK  Name = NuBBE_2356
REMARK  9 active torsions:
REMARK  status: ('A' for Active; 'I' for Inactive)
REMARK    1  A    between atoms: C_1  and  C_2
REMARK    2  A    between atoms: C_2  and  C_3
REMARK    3  A    between atoms: C_2  and  C_4
REMARK    4  A    between atoms: C_5  and  O_6
REMARK    5  A    between atoms: C_7  and  C_8
REMARK    6  A    between atoms: C_16  and  C_17
REMARK    7  A    between atoms: C_21  and  C_22
REMARK    8  A    between atoms: C_21  and  C_25
REMARK    9  A    between atoms: C_22  and  O_23
REMARK                            x       y       z     vdW  Elec       q    Type
REMARK                         _______ _______ _______ _____ _____    ______ ____
ROOT
ATOM      1  C   LIG A   1      -1.966   0.674  -1.640  0.00  0.00    +0.000 A 
ATOM      2  C   LIG A   1      -2.597  -0.510  -2.073  0.00  0.00    +0.123 A 
ATOM      3  C   LIG A   1      -2.328  -1.749  -1.496  0.00  0.00    -0.009 A 
ATOM      4  C   LIG A   1      -3.032  -3.009  -1.914  0.00  0.00    +0.048 C 
ATOM      5  C   LIG A   1      -1.351  -1.823  -0.502  0.00  0.00    +0.011 A 
ATOM      6  C   LIG A   1      -0.621  -0.694  -0.074  0.00  0.00    -0.037 A 
ATOM      7  C   LIG A   1      -0.923   0.559  -0.665  0.00  0.00    -0.037 A 
ATOM      8  C   LIG A   1      -0.147   1.772  -0.207  0.00  0.00    +0.036 C 
ATOM      9  C   LIG A   1       1.272   1.399   0.195  0.00  0.00    +0.010 C 
ATOM     10  C   LIG A   1       1.255   0.434   1.390  0.00  0.00    +0.016 C 
ATOM     11  C   LIG A   1       0.411  -0.861   1.079  0.00  0.00    -0.003 C 
ATOM     12  C   LIG A   1      -0.438  -1.209   2.335  0.00  0.00    +0.016 C 
ATOM     13  C   LIG A   1       1.382  -2.023   0.753  0.00  0.00    +0.012 C 
ATOM     14  C   LIG A   1       2.396  -2.339   1.850  0.00  0.00    +0.002 C 
ATOM     15  C   LIG A   1       2.809  -1.147   2.704  0.00  0.00    +0.018 C 
ATOM     16  C   LIG A   1       2.721   0.203   1.968  0.00  0.00    +0.068 C 
ATOM     17  C   LIG A   1       3.833   0.261   0.892  0.00  0.00    +0.023 C 
ENDROOT
BRANCH   1  19
ATOM     18  C   LIG A   1      -1.635   2.430  -3.434  0.00  0.00    +0.012 C 
ATOM     19  C   LIG A   1      -2.397   2.051  -2.162  0.00  0.00    +0.017 C 
ATOM     20  C   LIG A   1      -3.908   2.238  -2.375  0.00  0.00    +0.012 C 
ENDBRANCH   1  19
BRANCH   2  21
ATOM     21  O   LIG A   1      -3.494  -0.503  -3.104  0.00  0.00    -0.506 OA
ATOM     22  H   LIG A   1      -3.019  -0.127  -3.867  0.00  0.00    +0.292 HD
ENDBRANCH   2  21
BRANCH  16  23
ATOM     23  C   LIG A   1       3.040   1.299   2.988  0.00  0.00    +0.311 C 
ATOM     24  O   LIG A   1       2.322   2.238   3.320  0.00  0.00    -0.250 OA
BRANCH  23  25
ATOM     25  O   LIG A   1       4.261   1.163   3.561  0.00  0.00    -0.480 OA
ATOM     26  H   LIG A   1       4.312   1.927   4.180  0.00  0.00    +0.295 HD
ENDBRANCH  23  25
ENDBRANCH  16  23
TORSDOF 4
