@<TRIPOS>MOLECULE
NuBBE_1418
 49 53 0 0 0
SMALL
GASTEIGER

@<TRIPOS>ATOM
      1 H          -0.7190   -0.4120   -1.8242 H       1  LIG1        0.0356
      2 C           0.2935   -0.1295   -1.5140 C.3     1  LIG1        0.0205
      3 C           0.4643    1.3508   -1.1999 C.3     1  LIG1        0.0891
      4 H           1.0069    1.8724   -1.9979 H       1  LIG1        0.0650
      5 C          -0.8582    2.0631   -0.9844 C.ar    1  LIG1       -0.0149
      6 C          -1.5128    2.6572   -2.0717 C.ar    1  LIG1       -0.0524
      7 C          -2.7310    3.3297   -1.9009 C.ar    1  LIG1       -0.0160
      8 C          -3.3336    3.4155   -0.6403 C.ar    1  LIG1        0.1615
      9 C          -2.7020    2.7995    0.4542 C.ar    1  LIG1        0.1618
     10 O          -3.1255    2.8111    1.7615 O.3     1  LIG1       -0.4914
     11 C          -4.5295    2.8331    1.9942 C.3     1  LIG1        0.0790
     12 C          -1.4702    2.1454    0.2739 C.ar    1  LIG1       -0.0107
     13 O          -4.4821    4.1138   -0.3963 O.3     1  LIG1       -0.4915
     14 C          -5.2097    4.6599   -1.4838 C.3     1  LIG1        0.0790
     15 O           1.2912    1.4291   -0.0206 O.3     1  LIG1       -0.3712
     16 C           1.7603    0.1094    0.3015 C.3     1  LIG1        0.0544
     17 C           0.7166   -0.8425   -0.2553 C.3     1  LIG1        0.0205
     18 C           1.1971   -2.1926   -0.7646 C.3     1  LIG1        0.0891
     19 H           0.3359   -2.8637   -0.8776 H       1  LIG1        0.0650
     20 C           2.2204   -2.8991    0.0976 C.ar    1  LIG1       -0.0149
     21 C           3.4930   -3.2445   -0.4206 C.ar    1  LIG1       -0.0524
     22 C           4.4504   -3.9050    0.3546 C.ar    1  LIG1       -0.0158
     23 C           4.1048   -4.2194    1.6524 C.ar    1  LIG1        0.1662
     24 C           2.8699   -3.9085    2.1653 C.ar    1  LIG1        0.1666
     25 O           2.7333   -4.3134    3.4591 O.3     1  LIG1       -0.4526
     26 C           4.0378   -4.8783    3.7046 C.3     1  LIG1        0.2332
     27 O           4.9045   -4.8492    2.5476 O.3     1  LIG1       -0.4526
     28 C           1.9040   -3.2608    1.4208 C.ar    1  LIG1       -0.0105
     29 O           1.6768   -1.9696   -2.1075 O.3     1  LIG1       -0.3712
     30 C           1.2921   -0.6569   -2.5334 C.3     1  LIG1        0.0544
     31 H          -0.1081   -0.9371    0.4603 H       1  LIG1        0.0356
     32 H          -1.0669    2.6250   -3.0642 H       1  LIG1        0.0622
     33 H          -3.1723    3.8001   -2.7739 H       1  LIG1        0.0655
     34 H          -4.6880    2.6710    3.0652 H       1  LIG1        0.0660
     35 H          -5.0380    2.0267    1.4546 H       1  LIG1        0.0660
     36 H          -4.9710    3.8083    1.7743 H       1  LIG1        0.0660
     37 H          -0.9816    1.7078    1.1426 H       1  LIG1        0.0659
     38 H          -6.1134    5.1202   -1.0706 H       1  LIG1        0.0660
     39 H          -5.5247    3.8780   -2.1813 H       1  LIG1        0.0660
     40 H          -4.6398    5.4452   -1.9892 H       1  LIG1        0.0660
     41 H           1.8677    0.0239    1.3870 H       1  LIG1        0.0564
     42 H           2.7504   -0.0146   -0.1510 H       1  LIG1        0.0564
     43 H           3.7533   -2.9952   -1.4535 H       1  LIG1        0.0622
     44 H           5.4193   -4.1604   -0.0442 H       1  LIG1        0.0655
     45 H           3.9177   -5.9189    4.0252 H       1  LIG1        0.1166
     46 H           4.5173   -4.3134    4.5126 H       1  LIG1        0.1166
     47 H           0.9393   -3.0370    1.8512 H       1  LIG1        0.0659
     48 H           0.8572   -0.7236   -3.5351 H       1  LIG1        0.0564
     49 H           2.2027   -0.0512   -2.6042 H       1  LIG1        0.0564
@<TRIPOS>BOND
     1     2     3    1
     2     5     6   ar
     3     6     7   ar
     4     7     8   ar
     5     8     9   ar
     6     9    10    1
     7    10    11    1
     8     9    12   ar
     9     5    12   ar
    10     8    13    1
    11    13    14    1
    12     3    15    1
    13    15    16    1
    14    16    17    1
    15    17    18    1
    16    20    21   ar
    17    21    22   ar
    18    22    23   ar
    19    23    24   ar
    20    24    25    1
    21    25    26    1
    22    26    27    1
    23    23    27    1
    24    24    28   ar
    25    20    28   ar
    26    18    29    1
    27    29    30    1
    28     2    30    1
    29     2    17    1
    30     1     2    1
    31     3     4    1
    32     3     5    1
    33    17    31    1
    34    18    20    1
    35    18    19    1
    36     6    32    1
    37     7    33    1
    38    11    34    1
    39    11    35    1
    40    11    36    1
    41    12    37    1
    42    14    38    1
    43    14    39    1
    44    14    40    1
    45    16    41    1
    46    16    42    1
    47    21    43    1
    48    22    44    1
    49    26    45    1
    50    26    46    1
    51    28    47    1
    52    30    48    1
    53    30    49    1
