@<TRIPOS>MOLECULE
NuBBE_1083
 39 41 0 0 0
SMALL
GASTEIGER

@<TRIPOS>ATOM
      1 C          -0.4047   -2.1616    2.5171 C.3     1  LIG1       -0.0619
      2 C          -0.9252   -1.3689    1.3144 C.3     1  LIG1       -0.0371
      3 H          -2.0105   -1.2497    1.4335 H       1  LIG1        0.0304
      4 C          -0.3316    0.0255    1.2478 C.3     1  LIG1       -0.0128
      5 C           0.1082    0.6020   -0.0942 C.3     1  LIG1       -0.0242
      6 H          -0.0769    1.6568   -0.2705 H       1  LIG1        0.0315
      7 C           1.1421    0.2565    0.9568 C.3     1  LIG1       -0.0101
      8 H           1.7934   -0.5981    0.8287 H       1  LIG1        0.0354
      9 C           1.5606    1.2910    1.9242 C.2     1  LIG1       -0.0726
     10 C           0.5573    1.7238    2.7101 C.2     1  LIG1       -0.0842
     11 C          -0.7240    1.0088    2.3556 C.3     1  LIG1       -0.0278
     12 C           2.9707    1.7668    1.9594 C.3     1  LIG1       -0.0435
     13 C           0.0431   -0.2242   -1.3636 C.3     1  LIG1       -0.0348
     14 H           1.0320   -0.6879   -1.4905 H       1  LIG1        0.0306
     15 C          -0.9830   -1.3591   -1.2189 C.3     1  LIG1       -0.0494
     16 C          -0.6913   -2.1833    0.0321 C.3     1  LIG1       -0.0497
     17 C          -0.1862    0.6709   -2.6148 C.3     1  LIG1       -0.0436
     18 C           0.1302   -0.0819   -3.9115 C.3     1  LIG1       -0.0624
     19 C          -1.5948    1.2679   -2.7003 C.3     1  LIG1       -0.0624
     20 H           0.6831   -2.2823    2.4747 H       1  LIG1        0.0233
     21 H          -0.8552   -3.1595    2.5483 H       1  LIG1        0.0233
     22 H          -0.6430   -1.6648    3.4621 H       1  LIG1        0.0233
     23 H           0.6345    2.4778    3.4790 H       1  LIG1        0.0572
     24 H          -1.4742    1.7177    1.9898 H       1  LIG1        0.0313
     25 H          -1.1240    0.5034    3.2387 H       1  LIG1        0.0313
     26 H           3.2554    2.1857    0.9890 H       1  LIG1        0.0274
     27 H           3.6469    0.9376    2.1904 H       1  LIG1        0.0274
     28 H           3.1163    2.5426    2.7180 H       1  LIG1        0.0274
     29 H          -0.9425   -2.0175   -2.0933 H       1  LIG1        0.0268
     30 H          -2.0036   -0.9651   -1.1531 H       1  LIG1        0.0268
     31 H           0.3415   -2.5524   -0.0087 H       1  LIG1        0.0268
     32 H          -1.3393   -3.0683    0.0428 H       1  LIG1        0.0268
     33 H           0.5204    1.5103   -2.5554 H       1  LIG1        0.0298
     34 H          -0.5749   -0.8995   -4.0904 H       1  LIG1        0.0232
     35 H           1.1412   -0.5015   -3.8832 H       1  LIG1        0.0232
     36 H           0.0771    0.5953   -4.7710 H       1  LIG1        0.0232
     37 H          -2.3507    0.5001   -2.8939 H       1  LIG1        0.0232
     38 H          -1.6503    1.9932   -3.5197 H       1  LIG1        0.0232
     39 H          -1.8677    1.7919   -1.7795 H       1  LIG1        0.0232
@<TRIPOS>BOND
     1     2     4    1
     2     4     5    1
     3     5     6    1
     4     5     7    1
     5     7     8    1
     6     4     7    1
     7     7     9    1
     8     9    10    2
     9    10    11    1
    10     4    11    1
    11     9    12    1
    12     5    13    1
    13    13    14    1
    14    13    15    1
    15    15    16    1
    16     2    16    1
    17    13    17    1
    18    17    18    1
    19    17    19    1
    20     2     3    1
    21     2     1    1
    22     1    20    1
    23     1    21    1
    24     1    22    1
    25    10    23    1
    26    11    24    1
    27    11    25    1
    28    12    26    1
    29    12    27    1
    30    12    28    1
    31    15    29    1
    32    15    30    1
    33    16    31    1
    34    16    32    1
    35    17    33    1
    36    18    34    1
    37    18    35    1
    38    18    36    1
    39    19    37    1
    40    19    38    1
    41    19    39    1
