@<TRIPOS>MOLECULE
NuBBE_1538
 39 41 0 0 0
SMALL
GASTEIGER

@<TRIPOS>ATOM
      1 C          -0.5915    2.6678   -1.9835 C.3     1  LIG1       -0.0619
      2 C          -1.0132    1.7405   -0.8408 C.3     1  LIG1       -0.0374
      3 H          -2.1085    1.7765   -0.7659 H       1  LIG1        0.0304
      4 C          -0.6349    0.3000   -1.1151 C.3     1  LIG1       -0.0160
      5 C          -0.0836   -0.5653    0.0118 C.3     1  LIG1       -0.0245
      6 H          -0.4456   -1.5875    0.0502 H       1  LIG1        0.0315
      7 C           0.8040   -0.1654   -1.1405 C.3     1  LIG1       -0.0104
      8 H           1.5920    0.5625   -0.9930 H       1  LIG1        0.0354
      9 C           0.9404   -1.0645   -2.2953 C.2     1  LIG1       -0.0727
     10 C           1.9437   -1.9206   -2.5222 C.2     1  LIG1       -0.0992
     11 C          -0.2803   -0.9426   -3.1777 C.3     1  LIG1       -0.0312
     12 C          -1.3741   -0.4058   -2.2406 C.3     1  LIG1       -0.0426
     13 C           0.2141    0.0060    1.3877 C.3     1  LIG1       -0.0348
     14 H           1.2681    0.3176    1.4111 H       1  LIG1        0.0306
     15 C          -0.6428    1.2626    1.6217 C.3     1  LIG1       -0.0494
     16 C          -0.4510    2.2661    0.4863 C.3     1  LIG1       -0.0497
     17 C           0.0263   -1.0732    2.4957 C.3     1  LIG1       -0.0436
     18 C           0.1059   -0.4998    3.9149 C.3     1  LIG1       -0.0624
     19 C           1.0792   -2.1847    2.3619 C.3     1  LIG1       -0.0624
     20 H           0.4948    2.6590   -2.1240 H       1  LIG1        0.0233
     21 H          -0.8990    3.6991   -1.7805 H       1  LIG1        0.0233
     22 H          -1.0473    2.3666   -2.9319 H       1  LIG1        0.0233
     23 H           2.7825   -1.9894   -1.8370 H       1  LIG1        0.0534
     24 H           1.9479   -2.5695   -3.3915 H       1  LIG1        0.0534
     25 H          -0.5796   -1.8893   -3.6372 H       1  LIG1        0.0310
     26 H          -0.0796   -0.2122   -3.9702 H       1  LIG1        0.0310
     27 H          -1.9708   -1.2318   -1.8347 H       1  LIG1        0.0274
     28 H          -2.0601    0.2517   -2.7840 H       1  LIG1        0.0274
     29 H          -0.3488    1.7530    2.5559 H       1  LIG1        0.0268
     30 H          -1.7030    0.9951    1.7092 H       1  LIG1        0.0268
     31 H           0.6168    2.5001    0.3874 H       1  LIG1        0.0268
     32 H          -0.9536    3.2064    0.7445 H       1  LIG1        0.0268
     33 H          -0.9639   -1.5333    2.3791 H       1  LIG1        0.0298
     34 H           1.0344    0.0615    4.0643 H       1  LIG1        0.0232
     35 H           0.0715   -1.3004    4.6620 H       1  LIG1        0.0232
     36 H          -0.7384    0.1641    4.1244 H       1  LIG1        0.0232
     37 H           2.0923   -1.7833    2.4744 H       1  LIG1        0.0232
     38 H           1.0217   -2.6869    1.3918 H       1  LIG1        0.0232
     39 H           0.9336   -2.9507    3.1314 H       1  LIG1        0.0232
@<TRIPOS>BOND
     1     2     4    1
     2     4     5    1
     3     5     7    1
     4     4     7    1
     5     7     9    1
     6     9    11    1
     7    11    12    1
     8     4    12    1
     9     5    13    1
    10    13    15    1
    11    15    16    1
    12     2    16    1
    13    17    18    1
    14    17    19    1
    15     5     6    1
    16     7     8    1
    17     9    10    2
    18     2     3    1
    19     2     1    1
    20    13    17    1
    21    13    14    1
    22     1    20    1
    23     1    21    1
    24     1    22    1
    25    10    23    1
    26    10    24    1
    27    11    25    1
    28    11    26    1
    29    12    27    1
    30    12    28    1
    31    15    29    1
    32    15    30    1
    33    16    31    1
    34    16    32    1
    35    17    33    1
    36    18    34    1
    37    18    35    1
    38    18    36    1
    39    19    37    1
    40    19    38    1
    41    19    39    1
