REMARK  Name = NuBBE_2073
REMARK  2 active torsions:
REMARK  status: ('A' for Active; 'I' for Inactive)
REMARK    1  A    between atoms: C_3  and  C_4
REMARK    2  A    between atoms: C_5  and  O_6
REMARK                            x       y       z     vdW  Elec       q    Type
REMARK                         _______ _______ _______ _____ _____    ______ ____
ROOT
ATOM      1  O   LIG A   1      -4.222  -1.448   0.633  0.00  0.00    -0.250 OA
ATOM      2  C   LIG A   1      -3.043  -1.291   0.697  0.00  0.00    +0.319 C 
ATOM      3  C   LIG A   1      -2.264  -0.013   0.970  0.00  0.00    +0.125 C 
ATOM      4  C   LIG A   1      -2.356  -0.096   2.547  0.00  0.00    +0.029 C 
ATOM      5  C   LIG A   1      -2.413   1.465   0.548  0.00  0.00    +0.183 C 
ATOM      6  C   LIG A   1      -1.795   2.162  -0.701  0.00  0.00    +0.066 C 
ATOM      7  C   LIG A   1      -0.382   1.677  -0.974  0.00  0.00    +0.015 C 
ATOM      8  C   LIG A   1       0.025   0.678   0.147  0.00  0.00    +0.005 C 
ATOM      9  C   LIG A   1      -0.164   1.562   1.440  0.00  0.00    +0.170 C 
ATOM     10  O   LIG A   1      -1.541   2.130   1.526  0.00  0.00    -0.347 OA
ATOM     11  C   LIG A   1       1.450   0.059  -0.059  0.00  0.00    +0.008 C 
ATOM     12  C   LIG A   1       1.419  -1.451  -0.404  0.00  0.00    +0.062 C 
ATOM     13  C   LIG A   1       0.493  -2.268   0.532  0.00  0.00    +0.056 C 
ATOM     14  C   LIG A   1      -0.916  -1.867   0.139  0.00  0.00    +0.182 C 
ATOM     15  O   LIG A   1      -2.089  -2.334   0.785  0.00  0.00    -0.461 OA
ATOM     16  C   LIG A   1      -1.090  -0.384   0.099  0.00  0.00    +0.060 C 
ATOM     17  C   LIG A   1       2.225   0.792  -1.180  0.00  0.00    +0.005 C 
ATOM     18  C   LIG A   1       3.552   0.210  -1.638  0.00  0.00    +0.008 C 
ATOM     19  C   LIG A   1       3.694  -1.302  -1.574  0.00  0.00    +0.075 C 
ATOM     20  C   LIG A   1       2.850  -1.948  -0.494  0.00  0.00    +0.137 C 
ATOM     21  O   LIG A   1       3.271  -2.886   0.177  0.00  0.00    -0.297 OA
ENDROOT
BRANCH   5  22
ATOM     22  O   LIG A   1      -3.778   1.803   0.502  0.00  0.00    -0.364 OA
ATOM     23  H   LIG A   1      -4.093   1.437  -0.353  0.00  0.00    +0.213 HD
ENDBRANCH   5  22
TORSDOF 1
