@<TRIPOS>MOLECULE
NuBBE_1960
 57 61 0 0 0
SMALL
GASTEIGER

@<TRIPOS>ATOM
      1 C          -2.8789    2.6182   -2.2818 C.3     1  LIG1       -0.0647
      2 C          -2.2603    1.3510   -1.6874 C.3     1  LIG1       -0.0488
      3 C          -2.1829    1.2835   -0.1102 C.3     1  LIG1       -0.0129
      4 C          -1.5372   -0.0950    0.3588 C.3     1  LIG1        0.0274
      5 C           0.0060   -0.0431    0.5407 C.3     1  LIG1        0.0337
      6 C           0.2556    0.0705    2.0668 C.3     1  LIG1       -0.0273
      7 C          -1.1113   -0.0273    2.7131 C.3     1  LIG1        0.0001
      8 N          -1.9595   -0.6071    1.6804 N.3     1  LIG1       -0.2979
      9 C          -3.3807   -0.4981    1.9659 C.3     1  LIG1       -0.0008
     10 C          -3.9115    0.9151    1.7947 C.3     1  LIG1       -0.0396
     11 C          -3.6621    1.3976    0.3762 C.3     1  LIG1       -0.0448
     12 C           0.8531   -1.1932    0.0337 C.ar    1  LIG1       -0.0127
     13 C           0.5295   -2.5460    0.1069 C.ar    1  LIG1       -0.0525
     14 C           1.4660   -3.4827   -0.3171 C.ar    1  LIG1       -0.0159
     15 C           2.7133   -3.0538   -0.7782 C.ar    1  LIG1        0.1632
     16 O           3.7065   -3.8900   -1.2387 O.3     1  LIG1       -0.4914
     17 C           3.7117   -5.2016   -0.6858 C.3     1  LIG1        0.0790
     18 C           3.0297   -1.6772   -0.8462 C.ar    1  LIG1        0.1806
     19 O           4.2715   -1.3767   -1.3225 O.3     1  LIG1       -0.5021
     20 C           2.1005   -0.7248   -0.4485 C.ar    1  LIG1        0.0858
     21 N           2.0826    0.7108   -0.4332 N.am    1  LIG1       -0.2641
     22 C           2.9966    1.6610   -0.8503 C.2     1  LIG1        0.2170
     23 C           4.3307    1.2677   -1.4080 C.3     1  LIG1        0.0127
     24 O           2.7448    2.8661   -0.7970 O.2     1  LIG1       -0.2755
     25 C           0.6507    1.0699   -0.2867 C.3     1  LIG1        0.0424
     26 H           0.3416    0.9684   -1.3301 H       1  LIG1        0.0514
     27 C           0.1634    2.4523    0.1469 C.3     1  LIG1       -0.0325
     28 C          -1.3541    2.4811    0.4463 C.3     1  LIG1       -0.0442
     29 H          -2.9577    2.5140   -3.3696 H       1  LIG1        0.0230
     30 H          -2.2589    3.4984   -2.0885 H       1  LIG1        0.0230
     31 H          -3.8863    2.8083   -1.9038 H       1  LIG1        0.0230
     32 H          -1.2847    1.2487   -2.1562 H       1  LIG1        0.0268
     33 H          -2.8361    0.4911   -2.0552 H       1  LIG1        0.0268
     34 H          -1.8058   -0.8614   -0.3797 H       1  LIG1        0.0477
     35 H           0.7453    1.0049    2.3591 H       1  LIG1        0.0287
     36 H           0.8891   -0.7408    2.4495 H       1  LIG1        0.0287
     37 H          -1.4365    0.9652    3.0382 H       1  LIG1        0.0427
     38 H          -1.0798   -0.6637    3.6046 H       1  LIG1        0.0427
     39 H          -3.5951   -0.8572    2.9800 H       1  LIG1        0.0427
     40 H          -3.9247   -1.1733    1.2932 H       1  LIG1        0.0427
     41 H          -4.9901    0.9228    1.9936 H       1  LIG1        0.0278
     42 H          -3.4650    1.6043    2.5189 H       1  LIG1        0.0278
     43 H          -4.0087    2.4352    0.3017 H       1  LIG1        0.0271
     44 H          -4.3127    0.8075   -0.2846 H       1  LIG1        0.0271
     45 H          -0.4306   -2.8675    0.5027 H       1  LIG1        0.0622
     46 H           1.1981   -4.5330   -0.2818 H       1  LIG1        0.0655
     47 H           4.6416   -5.6865   -0.9983 H       1  LIG1        0.0660
     48 H           2.8806   -5.7982   -1.0733 H       1  LIG1        0.0660
     49 H           3.7020   -5.1685    0.4087 H       1  LIG1        0.0660
     50 H           4.6744   -2.2332   -1.5680 H       1  LIG1        0.2924
     51 H           4.9289    0.7521   -0.6560 H       1  LIG1        0.0323
     52 H           4.8817    2.1719   -1.6899 H       1  LIG1        0.0323
     53 H           4.1911    0.6981   -2.3291 H       1  LIG1        0.0323
     54 H           0.3586    3.1755   -0.6537 H       1  LIG1        0.0284
     55 H           0.7124    2.8159    1.0229 H       1  LIG1        0.0284
     56 H          -1.7618    3.4287    0.0749 H       1  LIG1        0.0272
     57 H          -1.4845    2.5442    1.5310 H       1  LIG1        0.0272
@<TRIPOS>BOND
     1     1     2    1
     2     2     3    1
     3     3     4    1
     4     4     5    1
     5     5     6    1
     6     6     7    1
     7     7     8    1
     8     4     8    1
     9     8     9    1
    10     9    10    1
    11    10    11    1
    12     3    11    1
    13     5    12    1
    14    12    13   ar
    15    13    14   ar
    16    14    15   ar
    17    15    16    1
    18    16    17    1
    19    15    18   ar
    20    18    19    1
    21    18    20   ar
    22    12    20   ar
    23    20    21    1
    24    21    22   am
    25    22    23    1
    26    22    24    2
    27    21    25    1
    28    25    26    1
    29     5    25    1
    30    25    27    1
    31    27    28    1
    32     3    28    1
    33     1    29    1
    34     1    30    1
    35     1    31    1
    36     2    32    1
    37     2    33    1
    38     4    34    1
    39     6    35    1
    40     6    36    1
    41     7    37    1
    42     7    38    1
    43     9    39    1
    44     9    40    1
    45    10    41    1
    46    10    42    1
    47    11    43    1
    48    11    44    1
    49    13    45    1
    50    14    46    1
    51    17    47    1
    52    17    48    1
    53    17    49    1
    54    19    50    1
    55    23    51    1
    56    23    52    1
    57    23    53    1
    58    27    54    1
    59    27    55    1
    60    28    56    1
    61    28    57    1
