REMARK  Name = NuBBE_1673
REMARK  9 active torsions:
REMARK  status: ('A' for Active; 'I' for Inactive)
REMARK    1  A    between atoms: O_1  and  C_2
REMARK    2  A    between atoms: O_1  and  C_3
REMARK    3  A    between atoms: C_6  and  C_20
REMARK    4  A    between atoms: C_8  and  C_11
REMARK    5  A    between atoms: C_13  and  O_14
REMARK    6  A    between atoms: O_14  and  C_15
REMARK    7  A    between atoms: C_16  and  O_19
REMARK    8  A    between atoms: C_22  and  C_24
REMARK    9  A    between atoms: C_25  and  C_26
REMARK                            x       y       z     vdW  Elec       q    Type
REMARK                         _______ _______ _______ _____ _____    ______ ____
ROOT
ATOM      1  C   LIG A   1      -1.636   1.098   1.147  0.00  0.00    +0.162 A 
ATOM      2  C   LIG A   1      -0.742   0.044   1.249  0.00  0.00    +0.166 A 
ATOM      3  C   LIG A   1       0.628   0.263   1.317  0.00  0.00    +0.005 A 
ATOM      4  C   LIG A   1       1.351  -1.039   1.390  0.00  0.00    +0.065 C 
ATOM      5  C   LIG A   1       0.174  -2.018   1.140  0.00  0.00    +0.211 C 
ATOM      6  O   LIG A   1      -1.071  -1.288   1.280  0.00  0.00    -0.480 OA
ATOM      7  C   LIG A   1       1.986  -1.252   2.762  0.00  0.00    +0.016 C 
ATOM      8  C   LIG A   1       1.153   1.551   1.305  0.00  0.00    +0.015 A 
ATOM      9  C   LIG A   1       0.278   2.643   1.195  0.00  0.00    -0.021 A 
ATOM     10  C   LIG A   1      -1.108   2.399   1.130  0.00  0.00    +0.057 A 
ENDROOT
BRANCH   5  11
ATOM     11  C   LIG A   1       0.168  -2.717  -0.216  0.00  0.00    -0.003 A 
ATOM     12  C   LIG A   1       0.133  -1.980  -1.416  0.00  0.00    +0.056 A 
ATOM     13  C   LIG A   1       0.108  -2.622  -2.656  0.00  0.00    +0.162 A 
ATOM     14  C   LIG A   1       0.124  -4.019  -2.694  0.00  0.00    +0.159 A 
ATOM     15  C   LIG A   1       0.141  -4.772  -1.528  0.00  0.00    +0.049 A 
ATOM     16  C   LIG A   1       0.156  -4.122  -0.292  0.00  0.00    +0.011 A 
BRANCH  13  17
ATOM     17  O   LIG A   1       0.064  -2.005  -3.881  0.00  0.00    -0.491 OA
ATOM     18  C   LIG A   1       0.055  -0.581  -3.865  0.00  0.00    +0.277 C 
ENDBRANCH  13  17
BRANCH  14  19
ATOM     19  O   LIG A   1       0.123  -4.679  -3.893  0.00  0.00    -0.503 OA
ATOM     20  H   LIG A   1       0.121  -3.973  -4.569  0.00  0.00    +0.292 HD
ENDBRANCH  14  19
ENDBRANCH   5  11
BRANCH   9  21
ATOM     21  C   LIG A   1       0.834   4.009   1.192  0.00  0.00    +0.003 C 
ATOM     22  C   LIG A   1       0.270   5.054   0.576  0.00  0.00    -0.030 C 
ATOM     23  C   LIG A   1       0.847   6.435   0.557  0.00  0.00    +0.035 C 
ENDBRANCH   9  21
BRANCH   1  24
ATOM     24  O   LIG A   1      -2.996   1.046   1.036  0.00  0.00    -0.491 OA
ATOM     25  C   LIG A   1      -3.597  -0.241   1.018  0.00  0.00    +0.277 C 
ENDBRANCH   1  24
TORSDOF 5
