@<TRIPOS>MOLECULE
NuBBE_2130
 39 39 0 0 0
SMALL
GASTEIGER

@<TRIPOS>ATOM
      1 C          -5.3608    3.9834    1.1550 C.3     1  LIG1       -0.0653
      2 C          -3.8653    3.7604    1.3129 C.3     1  LIG1       -0.0559
      3 C          -3.3982    2.5029    0.5786 C.3     1  LIG1       -0.0533
      4 C          -1.8926    2.2934    0.7516 C.3     1  LIG1       -0.0531
      5 C          -1.4085    1.0397    0.0218 C.3     1  LIG1       -0.0531
      6 C           0.0904    0.8208    0.2385 C.3     1  LIG1       -0.0530
      7 C           0.5823   -0.4321   -0.4875 C.3     1  LIG1       -0.0528
      8 C           2.0682   -0.6838   -0.2167 C.3     1  LIG1       -0.0502
      9 C           2.5983   -1.9136   -0.9567 C.3     1  LIG1       -0.0410
     10 C           4.0778   -2.1741   -0.6810 C.3     1  LIG1       -0.0502
     11 C           4.2620   -3.6062   -1.1553 C.3     1  LIG1       -0.0528
     12 C           2.9865   -4.3177   -0.7202 C.3     1  LIG1       -0.0528
     13 C           1.9245   -3.2295   -0.5540 C.3     1  LIG1       -0.0502
     14 H          -5.6644    4.8930    1.6830 H       1  LIG1        0.0230
     15 H          -5.9293    3.1450    1.5695 H       1  LIG1        0.0230
     16 H          -5.6324    4.0966    0.1006 H       1  LIG1        0.0230
     17 H          -3.6262    3.6782    2.3796 H       1  LIG1        0.0263
     18 H          -3.3298    4.6355    0.9273 H       1  LIG1        0.0263
     19 H          -3.6386    2.5878   -0.4882 H       1  LIG1        0.0265
     20 H          -3.9383    1.6297    0.9637 H       1  LIG1        0.0265
     21 H          -1.6566    2.2096    1.8197 H       1  LIG1        0.0265
     22 H          -1.3537    3.1689    0.3698 H       1  LIG1        0.0265
     23 H          -1.6168    1.1333   -1.0511 H       1  LIG1        0.0265
     24 H          -1.9628    0.1655    0.3842 H       1  LIG1        0.0265
     25 H           0.2933    0.7254    1.3124 H       1  LIG1        0.0265
     26 H           0.6472    1.6951   -0.1193 H       1  LIG1        0.0265
     27 H           0.4186   -0.3201   -1.5663 H       1  LIG1        0.0265
     28 H          -0.0083   -1.2943   -0.1579 H       1  LIG1        0.0265
     29 H           2.2261   -0.8023    0.8632 H       1  LIG1        0.0268
     30 H           2.6480    0.1954   -0.5244 H       1  LIG1        0.0268
     31 H           2.4644   -1.7665   -2.0377 H       1  LIG1        0.0301
     32 H           4.2999   -2.0991    0.3908 H       1  LIG1        0.0268
     33 H           4.7299   -1.4772   -1.2159 H       1  LIG1        0.0268
     34 H           5.1593   -4.0720   -0.7385 H       1  LIG1        0.0265
     35 H           4.3464   -3.6307   -2.2485 H       1  LIG1        0.0265
     36 H           3.1422   -4.8310    0.2358 H       1  LIG1        0.0265
     37 H           2.6832   -5.0735   -1.4516 H       1  LIG1        0.0265
     38 H           1.5871   -3.2043    0.4894 H       1  LIG1        0.0268
     39 H           1.0467   -3.4318   -1.1766 H       1  LIG1        0.0268
@<TRIPOS>BOND
     1     1     2    1
     2     2     3    1
     3     3     4    1
     4     4     5    1
     5     5     6    1
     6     6     7    1
     7     7     8    1
     8     8     9    1
     9     9    10    1
    10    10    11    1
    11    11    12    1
    12    12    13    1
    13     9    13    1
    14     1    14    1
    15     1    15    1
    16     1    16    1
    17     2    17    1
    18     2    18    1
    19     3    19    1
    20     3    20    1
    21     4    21    1
    22     4    22    1
    23     5    23    1
    24     5    24    1
    25     6    25    1
    26     6    26    1
    27     7    27    1
    28     7    28    1
    29     8    29    1
    30     8    30    1
    31     9    31    1
    32    10    32    1
    33    10    33    1
    34    11    34    1
    35    11    35    1
    36    12    36    1
    37    12    37    1
    38    13    38    1
    39    13    39    1
