REMARK  Name = NuBBE_1850
REMARK  6 active torsions:
REMARK  status: ('A' for Active; 'I' for Inactive)
REMARK    1  A    between atoms: C_1  and  C_2
REMARK    2  A    between atoms: C_6  and  C_23
REMARK    3  A    between atoms: C_6  and  O_26
REMARK    4  A    between atoms: C_12  and  C_14
REMARK    5  A    between atoms: C_23  and  C_24
REMARK    6  A    between atoms: O_26  and  C_27
REMARK                            x       y       z     vdW  Elec       q    Type
REMARK                         _______ _______ _______ _____ _____    ______ ____
ROOT
ATOM      1  C   LIG A   1      -3.007   0.899   0.032  0.00  0.00    +0.016 C 
ATOM      2  C   LIG A   1      -1.501   0.820   0.275  0.00  0.00    +0.065 C 
ATOM      3  C   LIG A   1      -0.889  -0.270  -0.536  0.00  0.00    +0.000 C 
ATOM      4  C   LIG A   1      -0.994  -1.594  -0.386  0.00  0.00    +0.023 C 
ATOM      5  C   LIG A   1      -0.249  -2.561  -1.285  0.00  0.00    +0.153 C 
ATOM      6  C   LIG A   1       0.671  -1.846  -2.341  0.00  0.00    +0.195 C 
ATOM      7  O   LIG A   1       1.427  -2.454  -3.104  0.00  0.00    -0.289 OA
ATOM      8  C   LIG A   1       0.649  -0.361  -2.433  0.00  0.00    +0.095 C 
ATOM      9  C   LIG A   1      -0.110   0.327  -1.571  0.00  0.00    +0.128 C 
ATOM     10  O   LIG A   1      -0.164   1.702  -1.537  0.00  0.00    -0.483 OA
ATOM     11  C   LIG A   1      -0.757   2.059  -0.259  0.00  0.00    +0.211 C 
ENDROOT
BRANCH  11  12
ATOM     12  C   LIG A   1       0.310   2.594   0.691  0.00  0.00    -0.003 A 
ATOM     13  C   LIG A   1       1.643   2.152   0.611  0.00  0.00    +0.056 A 
ATOM     14  C   LIG A   1       2.571   2.688   1.475  0.00  0.00    +0.167 A 
ATOM     15  C   LIG A   1       2.230   3.631   2.411  0.00  0.00    +0.166 A 
ATOM     16  C   LIG A   1       0.935   4.083   2.541  0.00  0.00    +0.050 A 
ATOM     17  C   LIG A   1      -0.033   3.555   1.675  0.00  0.00    +0.011 A 
ATOM     18  O   LIG A   1       3.297   4.032   3.152  0.00  0.00    -0.453 OA
ATOM     19  C   LIG A   1       4.349   3.233   2.568  0.00  0.00    +0.466 C 
ATOM     20  O   LIG A   1       3.892   2.370   1.508  0.00  0.00    -0.453 OA
ENDBRANCH  11  12
BRANCH   5  21
ATOM     21  O   LIG A   1       0.491  -3.473  -0.457  0.00  0.00    -0.364 OA
ATOM     22  C   LIG A   1       1.481  -2.867   0.370  0.00  0.00    +0.195 C 
ENDBRANCH   5  21
BRANCH   5  23
ATOM     23  C   LIG A   1      -1.277  -3.381  -2.121  0.00  0.00    +0.074 C 
BRANCH  23  24
ATOM     24  C   LIG A   1      -2.229  -4.232  -1.309  0.00  0.00    -0.031 C 
ATOM     25  C   LIG A   1      -3.562  -4.112  -1.336  0.00  0.00    +0.004 C 
ENDBRANCH  23  24
ENDBRANCH   5  23
TORSDOF 4
