@<TRIPOS>MOLECULE
NuBBE_1335
 72 77 0 0 0
SMALL
GASTEIGER

@<TRIPOS>ATOM
      1 C           0.9704   -2.8726   -4.4030 C.3     1  LIG1       -0.0248
      2 C           1.1875   -1.4881   -3.7674 C.3     1  LIG1        0.1125
      3 C           2.5597   -0.9907   -4.2551 C.3     1  LIG1       -0.0248
      4 O           0.1652   -0.6074   -4.2608 O.3     1  LIG1       -0.4577
      5 C          -0.2449    0.2681   -3.2924 C.2     1  LIG1        0.3185
      6 C           0.5123    0.0345   -1.9802 C.3     1  LIG1        0.1001
      7 C           1.6235    1.1078   -2.0010 C.2     1  LIG1       -0.0598
      8 C           1.3937    2.4391   -2.0806 C.2     1  LIG1        0.0196
      9 C           2.4667    3.4504   -1.9441 C.2     1  LIG1        0.3314
     10 O           1.8215    4.6298   -1.6950 O.3     1  LIG1       -0.4649
     11 C           2.6234    5.6809   -1.1506 C.3     1  LIG1        0.0820
     12 O           3.6695    3.2500   -1.9779 O.2     1  LIG1       -0.2456
     13 C           1.0066   -1.4147   -2.2243 C.3     1  LIG1        0.0248
     14 C           0.0524   -2.5244   -1.7119 C.3     1  LIG1        0.0142
     15 C          -0.8096   -2.2311   -0.4975 C.2     1  LIG1        0.1429
     16 C          -1.4697   -0.8616   -0.4337 C.3     1  LIG1        0.0662
     17 C          -2.5111   -0.8756   -1.5931 C.3     1  LIG1       -0.0496
     18 C          -0.3558    0.2167   -0.6715 C.3     1  LIG1        0.0306
     19 C           0.5481    0.3134    0.6050 C.3     1  LIG1        0.1089
     20 H           1.3470    1.0489    0.4753 H       1  LIG1        0.0737
     21 O           1.0993   -0.9894    0.8726 O.3     1  LIG1       -0.4612
     22 C           2.4416   -1.1808    0.9028 C.2     1  LIG1        0.3042
     23 C           2.7469   -2.6540    0.8971 C.3     1  LIG1        0.0332
     24 O           3.2814   -0.2991    0.8238 O.2     1  LIG1       -0.2512
     25 C          -0.2859    0.7956    1.7989 C.3     1  LIG1       -0.0034
     26 C          -1.4433   -0.1424    2.1979 C.3     1  LIG1        0.0455
     27 C          -0.9034   -1.3596    2.9933 C.3     1  LIG1       -0.0529
     28 C          -2.2093   -0.5885    0.9292 C.3     1  LIG1        0.1285
     29 O          -3.4138    0.1706    0.6837 O.3     1  LIG1       -0.3512
     30 C          -3.5931   -1.1369    1.2384 C.3     1  LIG1        0.1861
     31 H          -3.9800   -1.9320    0.6141 H       1  LIG1        0.0743
     32 C          -4.1529   -1.1239    2.6141 C.2     1  LIG1        0.3398
     33 O          -3.5724   -0.2725    3.5107 O.3     1  LIG1       -0.4539
     34 C          -2.4877    0.6153    3.1255 C.3     1  LIG1        0.1392
     35 H          -2.9510    1.4454    2.5727 H       1  LIG1        0.0793
     36 C          -1.9085    1.2484    4.3660 C.ar    1  LIG1        0.0310
     37 C          -1.8954    0.7297    5.6475 C.ar    1  LIG1        0.0984
     38 O          -1.3224    1.5963    6.5194 O.2     1  LIG1       -0.4706
     39 C          -0.9802    2.7003    5.8114 C.ar    1  LIG1        0.0921
     40 C          -1.3277    2.5471    4.4902 C.ar    1  LIG1       -0.0172
     41 O          -5.0714   -1.8629    2.9170 O.2     1  LIG1       -0.2478
     42 O          -1.0779   -3.1267    0.3028 O.2     1  LIG1       -0.2967
     43 O          -1.0973    1.1240   -3.4767 O.2     1  LIG1       -0.2498
     44 H          -0.0771   -3.1879   -4.3759 H       1  LIG1        0.0268
     45 H           1.5946   -3.6343   -3.9251 H       1  LIG1        0.0268
     46 H           1.2166   -2.8578   -5.4719 H       1  LIG1        0.0268
     47 H           2.6948    0.0855   -4.1353 H       1  LIG1        0.0268
     48 H           2.6758   -1.1666   -5.3324 H       1  LIG1        0.0268
     49 H           3.3737   -1.5178   -3.7464 H       1  LIG1        0.0268
     50 H           2.6535    0.7767   -1.8543 H       1  LIG1        0.0585
     51 H           0.3839    2.8351   -2.1659 H       1  LIG1        0.0686
     52 H           2.6266    5.5741   -0.0620 H       1  LIG1        0.0661
     53 H           2.1515    6.6352   -1.3984 H       1  LIG1        0.0661
     54 H           3.6485    5.6847   -1.5345 H       1  LIG1        0.0661
     55 H           1.9771   -1.5752   -1.7435 H       1  LIG1        0.0357
     56 H           0.6517   -3.4169   -1.4929 H       1  LIG1        0.0346
     57 H          -0.6714   -2.8187   -2.4753 H       1  LIG1        0.0346
     58 H          -2.0957   -1.1767   -2.5556 H       1  LIG1        0.0240
     59 H          -2.9776    0.1054   -1.7290 H       1  LIG1        0.0240
     60 H          -3.3064   -1.6053   -1.4068 H       1  LIG1        0.0240
     61 H          -0.8746    1.1833   -0.7611 H       1  LIG1        0.0361
     62 H           3.4088   -2.9085    1.7258 H       1  LIG1        0.0342
     63 H           3.2102   -2.9150   -0.0593 H       1  LIG1        0.0342
     64 H           1.8297   -3.2444    0.9938 H       1  LIG1        0.0342
     65 H          -0.6887    1.7857    1.5458 H       1  LIG1        0.0308
     66 H           0.3843    0.9379    2.6560 H       1  LIG1        0.0308
     67 H          -0.2323   -1.0359    3.7975 H       1  LIG1        0.0237
     68 H          -0.3477   -2.0654    2.3788 H       1  LIG1        0.0237
     69 H          -1.7037   -1.9412    3.4619 H       1  LIG1        0.0237
     70 H          -2.2541   -0.1951    6.0800 H       1  LIG1        0.1033
     71 H          -0.5184    3.4960    6.3799 H       1  LIG1        0.1029
     72 H          -1.1856    3.2857    3.7135 H       1  LIG1        0.0653
@<TRIPOS>BOND
     1     2     4    1
     2     4     5    1
     3     5     6    1
     4     7     8    2
     5     8     9    1
     6     9    10    1
     7    10    11    1
     8     9    12    2
     9     6    13    1
    10     2    13    1
    11    13    14    1
    12    14    15    1
    13    15    16    1
    14    16    18    1
    15     6    18    1
    16    18    19    1
    17    21    22    1
    18    22    23    1
    19    22    24    2
    20    19    25    1
    21    25    26    1
    22    26    28    1
    23    28    29    1
    24    16    28    1
    25    28    30    1
    26    29    30    1
    27    30    32    1
    28    32    33    1
    29    33    34    1
    30    26    34    1
    31    36    37   ar
    32    37    38   ar
    33    38    39   ar
    34    39    40   ar
    35    36    40   ar
    36     1     2    1
    37     2     3    1
    38     5    43    2
    39     6     7    1
    40    15    42    2
    41    16    17    1
    42    19    20    1
    43    19    21    1
    44    26    27    1
    45    30    31    1
    46    32    41    2
    47    34    36    1
    48    34    35    1
    49     1    44    1
    50     1    45    1
    51     1    46    1
    52     3    47    1
    53     3    48    1
    54     3    49    1
    55     7    50    1
    56     8    51    1
    57    11    52    1
    58    11    53    1
    59    11    54    1
    60    13    55    1
    61    14    56    1
    62    14    57    1
    63    17    58    1
    64    17    59    1
    65    17    60    1
    66    18    61    1
    67    23    62    1
    68    23    63    1
    69    23    64    1
    70    25    65    1
    71    25    66    1
    72    27    67    1
    73    27    68    1
    74    27    69    1
    75    37    70    1
    76    39    71    1
    77    40    72    1
