REMARK  Name = NuBBE_1958
REMARK  15 active torsions:
REMARK  status: ('A' for Active; 'I' for Inactive)
REMARK    1  A    between atoms: O_1  and  C_2
REMARK    2  A    between atoms: O_1  and  C_3
REMARK    3  A    between atoms: C_6  and  C_23
REMARK    4  A    between atoms: C_8  and  C_11
REMARK    5  A    between atoms: C_13  and  O_14
REMARK    6  A    between atoms: O_14  and  C_15
REMARK    7  A    between atoms: C_16  and  O_21
REMARK    8  A    between atoms: C_17  and  O_19
REMARK    9  A    between atoms: O_19  and  C_20
REMARK   10  A    between atoms: O_21  and  C_22
REMARK   11  A    between atoms: C_25  and  O_31
REMARK   12  A    between atoms: C_26  and  O_27
REMARK   13  A    between atoms: O_27  and  C_28
REMARK   14  A    between atoms: C_28  and  C_29
REMARK   15  A    between atoms: O_31  and  C_32
REMARK                            x       y       z     vdW  Elec       q    Type
REMARK                         _______ _______ _______ _____ _____    ______ ____
ROOT
ATOM      1  C   LIG A   1      -0.735   1.576  -1.489  0.00  0.00    +0.208 A 
ATOM      2  C   LIG A   1       0.017   0.414  -1.607  0.00  0.00    +0.170 A 
ATOM      3  C   LIG A   1       1.399   0.413  -1.527  0.00  0.00    +0.008 A 
ATOM      4  C   LIG A   1       1.908  -0.975  -1.682  0.00  0.00    +0.065 C 
ATOM      5  C   LIG A   1       0.607  -1.728  -1.330  0.00  0.00    +0.211 C 
ATOM      6  O   LIG A   1      -0.486  -0.866  -1.732  0.00  0.00    -0.479 OA
ATOM      7  C   LIG A   1       2.333  -1.151  -3.139  0.00  0.00    +0.016 C 
ATOM      8  C   LIG A   1       2.103   1.582  -1.378  0.00  0.00    +0.057 A 
ATOM      9  C   LIG A   1       1.397   2.788  -1.267  0.00  0.00    +0.166 A 
ATOM     10  C   LIG A   1      -0.029   2.798  -1.312  0.00  0.00    +0.208 A 
ENDROOT
BRANCH   5  11
ATOM     11  C   LIG A   1       0.474  -2.103   0.149  0.00  0.00    +0.000 A 
ATOM     12  C   LIG A   1       0.965  -3.316   0.620  0.00  0.00    +0.057 A 
ATOM     13  C   LIG A   1       0.879  -3.640   1.988  0.00  0.00    +0.166 A 
ATOM     14  C   LIG A   1       0.301  -2.734   2.939  0.00  0.00    +0.203 A 
ATOM     15  C   LIG A   1      -0.170  -1.497   2.477  0.00  0.00    +0.166 A 
ATOM     16  C   LIG A   1      -0.089  -1.234   1.094  0.00  0.00    +0.057 A 
BRANCH  13  17
ATOM     17  O   LIG A   1       1.405  -4.817   2.486  0.00  0.00    -0.491 OA
ATOM     18  C   LIG A   1       1.520  -5.912   1.579  0.00  0.00    +0.277 C 
ENDBRANCH  13  17
BRANCH  15  19
ATOM     19  O   LIG A   1      -0.671  -0.370   3.058  0.00  0.00    -0.491 OA
ATOM     20  C   LIG A   1      -0.841  -0.181   4.437  0.00  0.00    +0.277 C 
ENDBRANCH  15  19
BRANCH  14  21
ATOM     21  O   LIG A   1       0.416  -3.155   4.242  0.00  0.00    -0.488 OA
ATOM     22  C   LIG A   1      -0.736  -3.136   5.068  0.00  0.00    +0.277 C 
ENDBRANCH  14  21
ENDBRANCH   5  11
BRANCH   1  23
ATOM     23  O   LIG A   1      -2.100   1.587  -1.482  0.00  0.00    -0.488 OA
ATOM     24  C   LIG A   1      -2.823   0.377  -1.646  0.00  0.00    +0.277 C 
ENDBRANCH   1  23
BRANCH   9  25
ATOM     25  O   LIG A   1       2.270   3.842  -1.240  0.00  0.00    -0.491 OA
ATOM     26  C   LIG A   1       1.973   5.052  -0.572  0.00  0.00    +0.277 C 
ENDBRANCH   9  25
BRANCH  10  27
ATOM     27  O   LIG A   1      -0.622   4.029  -1.163  0.00  0.00    -0.481 OA
BRANCH  27  28
ATOM     28  C   LIG A   1      -1.981   4.274  -1.512  0.00  0.00    +0.256 C 
BRANCH  28  29
ATOM     29  C   LIG A   1      -2.125   4.392  -3.002  0.00  0.00    +0.006 C 
ATOM     30  C   LIG A   1      -3.231   4.149  -3.650  0.00  0.00    +0.007 C 
ENDBRANCH  28  29
ENDBRANCH  27  28
ENDBRANCH  10  27
TORSDOF 9
