@<TRIPOS>MOLECULE
NuBBE_654
 25 25 0 0 0
SMALL
GASTEIGER

@<TRIPOS>ATOM
      1 O           0.1944    0.7463    3.4924 O.3     1  LIG1       -0.3918
      2 C          -0.3068    0.4088    2.2036 C.3     1  LIG1        0.0553
      3 H          -1.4010    0.4298    2.2661 H       1  LIG1        0.0593
      4 C           0.1544   -0.9959    1.8257 C.3     1  LIG1       -0.0266
      5 C          -0.2864   -1.3681    0.4140 C.3     1  LIG1       -0.0479
      6 C           0.1864   -0.3385   -0.6281 C.3     1  LIG1       -0.0411
      7 H           1.2850   -0.3526   -0.6418 H       1  LIG1        0.0301
      8 C          -0.3169   -0.7477   -2.0249 C.3     1  LIG1       -0.0531
      9 C           0.2261    0.1225   -3.1493 C.3     1  LIG1       -0.0650
     10 C          -0.2696    1.0767   -0.2338 C.3     1  LIG1       -0.0479
     11 C           0.1641    1.4415    1.1837 C.3     1  LIG1       -0.0266
     12 H           1.1658    0.7305    3.4499 H       1  LIG1        0.2098
     13 H          -0.2403   -1.7215    2.5471 H       1  LIG1        0.0290
     14 H           1.2472   -1.0642    1.9046 H       1  LIG1        0.0290
     15 H          -1.3808   -1.4479    0.3877 H       1  LIG1        0.0269
     16 H           0.1097   -2.3599    0.1649 H       1  LIG1        0.0269
     17 H          -0.0183   -1.7847   -2.2228 H       1  LIG1        0.0265
     18 H          -1.4132   -0.7252   -2.0520 H       1  LIG1        0.0265
     19 H           1.3197    0.1602   -3.1248 H       1  LIG1        0.0230
     20 H          -0.1590    1.1444   -3.0892 H       1  LIG1        0.0230
     21 H          -0.0768   -0.2863   -4.1187 H       1  LIG1        0.0230
     22 H          -1.3622    1.1488   -0.3075 H       1  LIG1        0.0269
     23 H           0.1465    1.8187   -0.9239 H       1  LIG1        0.0269
     24 H          -0.2253    2.4309    1.4527 H       1  LIG1        0.0290
     25 H           1.2574    1.5333    1.2243 H       1  LIG1        0.0290
@<TRIPOS>BOND
     1     2     4    1
     2     4     5    1
     3     5     6    1
     4     8     9    1
     5     6    10    1
     6    10    11    1
     7     2    11    1
     8     2     3    1
     9     2     1    1
    10     6     8    1
    11     6     7    1
    12     1    12    1
    13     4    13    1
    14     4    14    1
    15     5    15    1
    16     5    16    1
    17     8    17    1
    18     8    18    1
    19     9    19    1
    20     9    20    1
    21     9    21    1
    22    10    22    1
    23    10    23    1
    24    11    24    1
    25    11    25    1
