REMARK  Name = NuBBE_1947
REMARK  6 active torsions:
REMARK  status: ('A' for Active; 'I' for Inactive)
REMARK    1  A    between atoms: C_1  and  C_2
REMARK    2  A    between atoms: C_9  and  C_18
REMARK    3  A    between atoms: C_9  and  C_20
REMARK    4  A    between atoms: C_13  and  C_16
REMARK    5  A    between atoms: C_13  and  O_17
REMARK    6  A    between atoms: C_18  and  O_19
REMARK                            x       y       z     vdW  Elec       q    Type
REMARK                         _______ _______ _______ _____ _____    ______ ____
ROOT
ATOM      1  C   LIG A   1      -1.746   3.009   1.356  0.00  0.00    +0.008 C 
ATOM      2  C   LIG A   1      -0.609   2.479   0.496  0.00  0.00    -0.008 C 
ATOM      3  C   LIG A   1      -0.367   0.961   0.506  0.00  0.00    -0.023 C 
ATOM      4  C   LIG A   1       0.609   0.892  -0.686  0.00  0.00    +0.004 C 
ATOM      5  C   LIG A   1      -0.159   1.575  -1.793  0.00  0.00    +0.005 C 
ATOM      6  C   LIG A   1      -0.811   2.764  -1.029  0.00  0.00    +0.004 C 
ATOM      7  C   LIG A   1       1.260  -0.508  -0.674  0.00  0.00    -0.000 C 
ATOM      8  C   LIG A   1       0.837  -1.046   0.762  0.00  0.00    +0.029 C 
ATOM      9  C   LIG A   1       0.506   0.278   1.544  0.00  0.00    +0.014 C 
ATOM     10  C   LIG A   1      -0.403  -1.977   0.839  0.00  0.00    +0.067 C 
ATOM     11  C   LIG A   1      -1.638  -1.332   0.200  0.00  0.00    +0.035 C 
ATOM     12  C   LIG A   1      -1.716   0.182   0.415  0.00  0.00    +0.010 C 
ATOM     13  C   LIG A   1      -0.162  -3.382   0.281  0.00  0.00    +0.041 C 
ATOM     14  C   LIG A   1       0.926  -1.320  -1.927  0.00  0.00    +0.014 C 
ENDROOT
BRANCH  10  15
ATOM     15  O   LIG A   1      -0.670  -2.214   2.237  0.00  0.00    -0.389 OA
ATOM     16  H   LIG A   1      -1.314  -1.558   2.552  0.00  0.00    +0.210 HD
ENDBRANCH  10  15
BRANCH   7  17
ATOM     17  C   LIG A   1       2.815  -0.327  -0.676  0.00  0.00    +0.163 C 
BRANCH  17  18
ATOM     18  O   LIG A   1       3.497  -1.575  -0.731  0.00  0.00    -0.394 OA
ATOM     19  H   LIG A   1       3.351  -2.037   0.111  0.00  0.00    +0.209 HD
ENDBRANCH  17  18
ENDBRANCH   7  17
TORSDOF 3
