@<TRIPOS>MOLECULE
NuBBE_984
 42 42 0 0 0
SMALL
GASTEIGER

@<TRIPOS>ATOM
      1 C          -2.5247    1.7244   -2.2567 C.3     1  LIG1       -0.0361
      2 C          -2.4432    0.5814   -1.2319 C.3     1  LIG1        0.0634
      3 C          -3.3660    0.8766   -0.0422 C.3     1  LIG1       -0.0361
      4 O          -2.9556   -0.5871   -1.8969 O.3     1  LIG1       -0.3888
      5 C          -0.9632    0.2646   -0.8029 C.3     1  LIG1       -0.0097
      6 H          -0.4389    0.0111   -1.7334 H       1  LIG1        0.0329
      7 C          -0.9259   -0.9820    0.1210 C.3     1  LIG1       -0.0176
      8 C           0.2647   -1.9476   -0.0306 C.3     1  LIG1        0.0764
      9 O           1.3256   -1.4352   -0.8144 O.3     1  LIG1       -0.3875
     10 C          -0.2757    1.4863   -0.1233 C.3     1  LIG1       -0.0434
     11 C           1.1292    1.8254   -0.6415 C.3     1  LIG1       -0.0246
     12 C           2.4068    1.3155   -0.0190 C.2     1  LIG1       -0.0121
     13 C           3.6295    1.7738   -0.7684 C.2     1  LIG1        0.1460
     14 H           4.5817    1.2955   -0.4844 H       1  LIG1        0.1078
     15 O           3.6001    2.6383   -1.6390 O.2     1  LIG1       -0.2960
     16 C           2.6956    0.5432    1.0463 C.2     1  LIG1       -0.0775
     17 C           1.8191   -0.1428    2.0556 C.3     1  LIG1       -0.0304
     18 C           1.9400   -1.6759    1.9757 C.3     1  LIG1       -0.0261
     19 C           0.7896   -2.4139    1.3144 C.2     1  LIG1       -0.0482
     20 C           0.2509   -3.4936    1.9126 C.2     1  LIG1       -0.0970
     21 H          -3.5303    1.7869   -2.6899 H       1  LIG1        0.0257
     22 H          -1.8410    1.5449   -3.0937 H       1  LIG1        0.0257
     23 H          -2.2966    2.7022   -1.8245 H       1  LIG1        0.0257
     24 H          -4.3843    1.0916   -0.3871 H       1  LIG1        0.0257
     25 H          -3.0202    1.7315    0.5459 H       1  LIG1        0.0257
     26 H          -3.4543    0.0097    0.6212 H       1  LIG1        0.0257
     27 H          -3.8609   -0.3922   -2.1943 H       1  LIG1        0.2101
     28 H          -1.8157   -1.6031   -0.0508 H       1  LIG1        0.0297
     29 H          -1.0529   -0.6685    1.1647 H       1  LIG1        0.0297
     30 H          -0.1023   -2.8213   -0.5865 H       1  LIG1        0.0640
     31 H           1.9649   -2.1592   -0.9217 H       1  LIG1        0.2102
     32 H          -0.3079    1.4300    0.9655 H       1  LIG1        0.0272
     33 H          -0.8703    2.3812   -0.3354 H       1  LIG1        0.0272
     34 H           1.2015    2.9223   -0.5865 H       1  LIG1        0.0314
     35 H           1.1558    1.5913   -1.7147 H       1  LIG1        0.0314
     36 H           3.7482    0.3477    1.2626 H       1  LIG1        0.0576
     37 H           0.7840    0.1805    2.0356 H       1  LIG1        0.0311
     38 H           2.1898    0.1731    3.0407 H       1  LIG1        0.0311
     39 H           2.0454   -2.0418    3.0067 H       1  LIG1        0.0314
     40 H           2.8695   -1.9661    1.4683 H       1  LIG1        0.0314
     41 H           0.6088   -3.8564    2.8717 H       1  LIG1        0.0535
     42 H          -0.5711   -4.0426    1.4612 H       1  LIG1        0.0535
@<TRIPOS>BOND
     1     1     2    1
     2     2     3    1
     3     2     4    1
     4     2     5    1
     5     5     6    1
     6     5     7    1
     7     7     8    1
     8     8     9    1
     9     5    10    1
    10    10    11    1
    11    11    12    1
    12    12    13    1
    13    13    14    1
    14    13    15    2
    15    12    16    2
    16    16    17    1
    17    17    18    1
    18    18    19    1
    19     8    19    1
    20    19    20    2
    21     1    21    1
    22     1    22    1
    23     1    23    1
    24     3    24    1
    25     3    25    1
    26     3    26    1
    27     4    27    1
    28     7    28    1
    29     7    29    1
    30     8    30    1
    31     9    31    1
    32    10    32    1
    33    10    33    1
    34    11    34    1
    35    11    35    1
    36    16    36    1
    37    17    37    1
    38    17    38    1
    39    18    39    1
    40    18    40    1
    41    20    41    1
    42    20    42    1
