REMARK  Name = NuBBE_2132
REMARK  5 active torsions:
REMARK  status: ('A' for Active; 'I' for Inactive)
REMARK    1  A    between atoms: C_1  and  C_2
REMARK    2  A    between atoms: C_2  and  C_3
REMARK    3  A    between atoms: C_3  and  C_4
REMARK    4  A    between atoms: C_4  and  C_5
REMARK    5  A    between atoms: C_5  and  C_6
REMARK                            x       y       z     vdW  Elec       q    Type
REMARK                         _______ _______ _______ _____ _____    ______ ____
ROOT
ATOM      1  C   LIG A   1      -0.344   0.176   0.171  0.00  0.00    +0.003 C 
ENDROOT
BRANCH   1   2
ATOM      2  C   LIG A   1       1.038  -0.269   0.650  0.00  0.00    -0.011 C 
ATOM      3  C   LIG A   1       2.148   0.754   0.398  0.00  0.00    +0.003 C 
ATOM      4  C   LIG A   1       3.142   0.493   1.518  0.00  0.00    +0.000 C 
ATOM      5  C   LIG A   1       2.242   0.262   2.719  0.00  0.00    +0.000 C 
ATOM      6  C   LIG A   1       1.064  -0.534   2.167  0.00  0.00    +0.003 C 
ENDBRANCH   1   2
BRANCH   1   7
ATOM      7  C   LIG A   1      -0.421   0.386  -1.343  0.00  0.00    +0.000 C 
BRANCH   7   8
ATOM      8  C   LIG A   1      -1.814   0.825  -1.813  0.00  0.00    -0.000 C 
BRANCH   8  10
ATOM      9  C   LIG A   1      -2.778  -1.523  -2.083  0.00  0.00    +0.004 C 
ATOM     10  C   LIG A   1      -2.954  -0.140  -1.474  0.00  0.00    -0.003 C 
ENDBRANCH   8  10
ENDBRANCH   7   8
ENDBRANCH   1   7
TORSDOF 4
