REMARK  Name = NuBBE_1454
REMARK  7 active torsions:
REMARK  status: ('A' for Active; 'I' for Inactive)
REMARK    1  A    between atoms: C_1  and  C_2
REMARK    2  A    between atoms: C_2  and  C_3
REMARK    3  A    between atoms: C_13  and  O_14
REMARK    4  A    between atoms: O_14  and  C_15
REMARK    5  A    between atoms: C_16  and  O_17
REMARK    6  A    between atoms: O_17  and  C_18
REMARK    7  A    between atoms: C_27  and  O_28
REMARK                            x       y       z     vdW  Elec       q    Type
REMARK                         _______ _______ _______ _____ _____    ______ ____
ROOT
ATOM      1  C   LIG A   1      -1.717   5.267  -3.420  0.00  0.00    +0.060 C 
ATOM      2  C   LIG A   1      -0.362   5.120  -2.714  0.00  0.00    +0.123 C 
ATOM      3  C   LIG A   1       0.472   6.387  -2.938  0.00  0.00    +0.060 C 
ATOM      4  C   LIG A   1      -0.574   4.914  -1.232  0.00  0.00    +0.020 C 
ATOM      5  C   LIG A   1      -0.452   3.718  -0.646  0.00  0.00    +0.015 C 
ATOM      6  C   LIG A   1      -0.114   2.573  -1.486  0.00  0.00    +0.059 A 
ATOM      7  C   LIG A   1      -0.186   1.252  -1.016  0.00  0.00    +0.146 A 
ATOM      8  C   LIG A   1       0.172   0.190  -1.844  0.00  0.00    +0.102 A 
ATOM      9  C   LIG A   1       0.060  -1.185  -1.323  0.00  0.00    +0.181 C 
ATOM     10  C   LIG A   1      -0.788  -1.418  -0.091  0.00  0.00    +0.138 C 
ATOM     11  C   LIG A   1      -0.196  -2.247   1.030  0.00  0.00    +0.012 A 
ATOM     12  C   LIG A   1       0.925  -3.074   0.922  0.00  0.00    +0.057 A 
ATOM     13  C   LIG A   1       1.308  -3.922   1.978  0.00  0.00    +0.162 A 
ATOM     14  C   LIG A   1       0.521  -4.000   3.140  0.00  0.00    +0.165 A 
ATOM     15  C   LIG A   1      -0.590  -3.160   3.261  0.00  0.00    +0.095 A 
ATOM     16  C   LIG A   1      -0.923  -2.292   2.224  0.00  0.00    +0.128 A 
ATOM     17  O   LIG A   1      -2.039  -1.508   2.385  0.00  0.00    -0.488 OA
ATOM     18  C   LIG A   1      -1.756  -0.185   1.926  0.00  0.00    +0.274 C 
ATOM     19  C   LIG A   1      -1.407  -0.113   0.432  0.00  0.00    +0.226 C 
ATOM     20  O   LIG A   1      -0.565   1.038   0.281  0.00  0.00    -0.483 OA
ATOM     21  O   LIG A   1       0.575  -2.093  -1.976  0.00  0.00    -0.291 OA
ATOM     22  C   LIG A   1       0.620   0.442  -3.146  0.00  0.00    +0.134 A 
ATOM     23  C   LIG A   1       0.674   1.745  -3.629  0.00  0.00    +0.092 A 
ATOM     24  C   LIG A   1       0.289   2.805  -2.808  0.00  0.00    +0.136 A 
ATOM     25  O   LIG A   1       0.361   4.053  -3.365  0.00  0.00    -0.481 OA
ENDROOT
BRANCH  13  26
ATOM     26  O   LIG A   1       2.421  -4.672   1.689  0.00  0.00    -0.491 OA
ATOM     27  C   LIG A   1       3.251  -5.027   2.788  0.00  0.00    +0.277 C 
ENDBRANCH  13  26
BRANCH  14  28
ATOM     28  O   LIG A   1       0.876  -4.890   4.119  0.00  0.00    -0.491 OA
ATOM     29  C   LIG A   1      -0.188  -5.419   4.904  0.00  0.00    +0.277 C 
ENDBRANCH  14  28
BRANCH  22  30
ATOM     30  O   LIG A   1       1.009  -0.548  -4.007  0.00  0.00    -0.506 OA
ATOM     31  H   LIG A   1       1.010  -1.400  -3.515  0.00  0.00    +0.292 HD
ENDBRANCH  22  30
TORSDOF 3
