REMARK  Name = NuBBE_1029
REMARK  13 active torsions:
REMARK  status: ('A' for Active; 'I' for Inactive)
REMARK    1  A    between atoms: O_1  and  C_2
REMARK    2  A    between atoms: C_5  and  C_6
REMARK    3  A    between atoms: C_8  and  O_20
REMARK    4  A    between atoms: C_12  and  O_19
REMARK    5  A    between atoms: C_14  and  O_18
REMARK    6  A    between atoms: O_20  and  C_21
REMARK    7  A    between atoms: C_23  and  O_45
REMARK    8  A    between atoms: C_25  and  O_34
REMARK    9  A    between atoms: C_27  and  O_33
REMARK   10  A    between atoms: C_29  and  C_32
REMARK   11  A    between atoms: O_34  and  C_35
REMARK   12  A    between atoms: C_35  and  C_36
REMARK   13  A    between atoms: C_37  and  C_38
REMARK                            x       y       z     vdW  Elec       q    Type
REMARK                         _______ _______ _______ _____ _____    ______ ____
ROOT
ATOM      1  O   LIG A   1      -0.615  -0.730  -1.595  0.00  0.00    -0.341 OA
ENDROOT
BRANCH   1   3
ATOM      2  C   LIG A   1      -1.887   0.790  -2.960  0.00  0.00    +0.233 C 
ATOM      3  C   LIG A   1      -1.402   0.487  -1.514  0.00  0.00    +0.171 C 
ATOM      4  C   LIG A   1      -0.622   1.749  -1.102  0.00  0.00    +0.078 C 
ATOM      5  C   LIG A   1       0.549   1.891  -2.039  0.00  0.00    +0.038 A 
ATOM      6  C   LIG A   1       1.807   2.314  -1.591  0.00  0.00    +0.127 A 
ATOM      7  C   LIG A   1       2.950   2.058  -2.337  0.00  0.00    +0.091 A 
ATOM      8  C   LIG A   1       2.822   1.428  -3.570  0.00  0.00    +0.124 A 
ATOM      9  C   LIG A   1       1.569   1.151  -4.109  0.00  0.00    +0.091 A 
ATOM     10  C   LIG A   1       0.428   1.372  -3.337  0.00  0.00    +0.132 A 
ATOM     11  O   LIG A   1      -0.769   0.962  -3.875  0.00  0.00    -0.481 OA
BRANCH   2  15
ATOM     12  C   LIG A   1      -4.748   4.054  -3.126  0.00  0.00    +0.117 A 
ATOM     13  C   LIG A   1      -5.052   2.905  -2.406  0.00  0.00    +0.046 A 
ATOM     14  C   LIG A   1      -4.129   1.854  -2.368  0.00  0.00    +0.011 A 
ATOM     15  C   LIG A   1      -2.892   1.946  -3.035  0.00  0.00    -0.005 A 
ATOM     16  C   LIG A   1      -2.608   3.128  -3.739  0.00  0.00    +0.011 A 
ATOM     17  C   LIG A   1      -3.535   4.172  -3.790  0.00  0.00    +0.046 A 
BRANCH  12  18
ATOM     18  O   LIG A   1      -5.623   5.097  -3.210  0.00  0.00    -0.507 OA
ATOM     19  H   LIG A   1      -6.418   4.884  -2.695  0.00  0.00    +0.292 HD
ENDBRANCH  12  18
ENDBRANCH   2  15
BRANCH   8  20
ATOM     20  O   LIG A   1       3.928   0.996  -4.245  0.00  0.00    -0.506 OA
ATOM     21  H   LIG A   1       4.637   0.876  -3.587  0.00  0.00    +0.292 HD
ENDBRANCH   8  20
BRANCH   6  22
ATOM     22  O   LIG A   1       1.985   2.867  -0.354  0.00  0.00    -0.506 OA
ATOM     23  H   LIG A   1       1.150   3.295  -0.099  0.00  0.00    +0.292 HD
ENDBRANCH   6  22
ENDBRANCH   1   3
BRANCH   1  24
ATOM     24  C   LIG A   1      -0.162  -1.369  -0.400  0.00  0.00    +0.283 C 
ATOM     25  C   LIG A   1       0.902  -0.559   0.363  0.00  0.00    +0.213 C 
ATOM     26  C   LIG A   1       2.217  -1.270   0.662  0.00  0.00    +0.241 C 
ATOM     27  C   LIG A   1       2.732  -1.989  -0.573  0.00  0.00    +0.186 C 
ATOM     28  C   LIG A   1       1.617  -2.755  -1.327  0.00  0.00    +0.151 C 
ATOM     29  O   LIG A   1       0.320  -2.675  -0.721  0.00  0.00    -0.343 OA
ATOM     30  C   LIG A   1       2.000  -4.239  -1.410  0.00  0.00    +0.040 C 
BRANCH  27  31
ATOM     31  O   LIG A   1       3.318  -1.006  -1.446  0.00  0.00    -0.386 OA
ATOM     32  H   LIG A   1       3.405  -1.397  -2.333  0.00  0.00    +0.210 HD
ENDBRANCH  27  31
BRANCH  25  33
ATOM     33  O   LIG A   1       0.348   0.066   1.527  0.00  0.00    -0.383 OA
ATOM     34  H   LIG A   1       1.060   0.598   1.924  0.00  0.00    +0.210 HD
ENDBRANCH  25  33
BRANCH  26  35
ATOM     35  O   LIG A   1       2.252  -2.047   1.869  0.00  0.00    -0.453 OA
BRANCH  35  36
ATOM     36  C   LIG A   1       1.310  -2.993   2.080  0.00  0.00    +0.332 C 
ATOM     37  O   LIG A   1       1.177  -4.014   1.447  0.00  0.00    -0.246 OA
BRANCH  36  38
ATOM     38  C   LIG A   1       0.492  -2.671   3.243  0.00  0.00    +0.092 C 
ATOM     39  C   LIG A   1       0.969  -1.844   4.175  0.00  0.00    +0.015 C 
BRANCH  39  40
ATOM     40  C   LIG A   1       0.259  -1.569   5.416  0.00  0.00    -0.025 A 
ATOM     41  C   LIG A   1      -0.521  -2.551   6.026  0.00  0.00    +0.008 A 
ATOM     42  C   LIG A   1      -1.181  -2.274   7.217  0.00  0.00    +0.001 A 
ATOM     43  C   LIG A   1      -1.038  -1.024   7.811  0.00  0.00    +0.000 A 
ATOM     44  C   LIG A   1      -0.232  -0.049   7.227  0.00  0.00    +0.001 A 
ATOM     45  C   LIG A   1       0.422  -0.326   6.027  0.00  0.00    +0.008 A 
ENDBRANCH  39  40
ENDBRANCH  36  38
ENDBRANCH  35  36
ENDBRANCH  26  35
ENDBRANCH   1  24
TORSDOF 12
