REMARK  Name = NuBBE_403
REMARK  4 active torsions:
REMARK  status: ('A' for Active; 'I' for Inactive)
REMARK    1  A    between atoms: O_1  and  C_2
REMARK    2  A    between atoms: C_2  and  S_3
REMARK    3  A    between atoms: S_3  and  C_4
REMARK    4  A    between atoms: C_4  and  C_5
REMARK                            x       y       z     vdW  Elec       q    Type
REMARK                         _______ _______ _______ _____ _____    ______ ____
ROOT
ATOM      1  C   LIG A   1      -0.472  -0.418   0.548  0.00  0.00    -0.037 A 
ATOM      2  C   LIG A   1      -1.331   0.692   0.511  0.00  0.00    +0.004 A 
ATOM      3  C   LIG A   1      -1.062   1.822   1.286  0.00  0.00    +0.000 A 
ATOM      4  C   LIG A   1       0.064   1.858   2.104  0.00  0.00    +0.000 A 
ATOM      5  C   LIG A   1       0.920   0.759   2.157  0.00  0.00    +0.000 A 
ATOM      6  C   LIG A   1       0.649  -0.375   1.389  0.00  0.00    +0.004 A 
ENDROOT
BRANCH   1   7
ATOM      7  C   LIG A   1      -0.768  -1.634  -0.295  0.00  0.00    +0.106 C 
BRANCH   7   8
ATOM      8  S   LIG A   1       0.546  -2.043  -1.489  0.00  0.00    -0.129 S 
BRANCH   8   9
ATOM      9  C   LIG A   1       0.541  -0.518  -2.455  0.00  0.00    +0.225 C 
BRANCH   9  10
ATOM     10  O   LIG A   1       1.494  -0.623  -3.498  0.00  0.00    -0.385 OA
ATOM     11  H   LIG A   1       2.205  -1.169  -3.120  0.00  0.00    +0.210 HD
ENDBRANCH   9  10
ENDBRANCH   8   9
ENDBRANCH   7   8
ENDBRANCH   1   7
TORSDOF 4
