REMARK  Name = NuBBE_15
REMARK  12 active torsions:
REMARK  status: ('A' for Active; 'I' for Inactive)
REMARK    1  A    between atoms: C_1  and  O_2
REMARK    2  A    between atoms: O_2  and  C_3
REMARK    3  A    between atoms: C_4  and  O_5
REMARK    4  A    between atoms: O_5  and  C_6
REMARK    5  A    between atoms: C_8  and  C_9
REMARK    6  A    between atoms: C_15  and  C_21
REMARK    7  A    between atoms: C_23  and  O_24
REMARK    8  A    between atoms: O_24  and  C_25
REMARK    9  A    between atoms: C_26  and  O_29
REMARK   10  A    between atoms: O_29  and  C_30
REMARK   11  A    between atoms: C_32  and  O_33
REMARK   12  A    between atoms: O_33  and  C_34
REMARK                            x       y       z     vdW  Elec       q    Type
REMARK                         _______ _______ _______ _____ _____    ______ ____
ROOT
ATOM      1  C   LIG A   1       0.856   0.646   1.402  0.00  0.00    +0.154 C 
ATOM      2  C   LIG A   1      -0.015   0.745   0.146  0.00  0.00    +0.056 C 
ATOM      3  C   LIG A   1       0.518   1.700  -0.890  0.00  0.00    +0.167 C 
ATOM      4  O   LIG A   1       1.609   1.023  -1.518  0.00  0.00    -0.371 OA
ATOM      5  C   LIG A   1       1.400  -0.406  -1.405  0.00  0.00    +0.154 C 
ATOM      6  C   LIG A   1       0.168  -0.594  -0.510  0.00  0.00    +0.056 C 
ATOM      7  C   LIG A   1       0.427  -1.523   0.648  0.00  0.00    +0.167 C 
ATOM      8  O   LIG A   1       1.136  -0.753   1.623  0.00  0.00    -0.371 OA
ENDROOT
BRANCH   1  12
ATOM      9  C   LIG A   1      -1.263   2.356   4.780  0.00  0.00    +0.203 A 
ATOM     10  C   LIG A   1      -1.346   0.974   4.521  0.00  0.00    +0.166 A 
ATOM     11  C   LIG A   1      -0.671   0.440   3.418  0.00  0.00    +0.056 A 
ATOM     12  C   LIG A   1       0.146   1.231   2.602  0.00  0.00    -0.011 A 
ATOM     13  C   LIG A   1       0.252   2.597   2.880  0.00  0.00    +0.056 A 
ATOM     14  C   LIG A   1      -0.467   3.167   3.938  0.00  0.00    +0.166 A 
BRANCH   9  16
ATOM     15  C   LIG A   1      -3.072   2.484   6.345  0.00  0.00    +0.277 C 
ATOM     16  O   LIG A   1      -1.851   3.009   5.839  0.00  0.00    -0.488 OA
ENDBRANCH   9  16
BRANCH  10  17
ATOM     17  O   LIG A   1      -2.114   0.182   5.331  0.00  0.00    -0.491 OA
ATOM     18  C   LIG A   1      -1.735  -1.184   5.462  0.00  0.00    +0.277 C 
ENDBRANCH  10  17
BRANCH  14  19
ATOM     19  O   LIG A   1      -0.422   4.516   4.215  0.00  0.00    -0.491 OA
ATOM     20  C   LIG A   1      -0.179   5.367   3.097  0.00  0.00    +0.277 C 
ENDBRANCH  14  19
ENDBRANCH   1  12
BRANCH   5  21
ATOM     21  C   LIG A   1       1.265  -1.029  -2.785  0.00  0.00    -0.015 A 
ATOM     22  C   LIG A   1       0.562  -2.235  -2.992  0.00  0.00    +0.055 A 
ATOM     23  C   LIG A   1       0.415  -2.787  -4.278  0.00  0.00    +0.162 A 
ATOM     24  C   LIG A   1       1.025  -2.153  -5.363  0.00  0.00    +0.162 A 
ATOM     25  C   LIG A   1       1.755  -0.974  -5.163  0.00  0.00    +0.050 A 
ATOM     26  C   LIG A   1       1.875  -0.428  -3.882  0.00  0.00    +0.010 A 
BRANCH  23  27
ATOM     27  O   LIG A   1      -0.348  -3.931  -4.289  0.00  0.00    -0.491 OA
ATOM     28  C   LIG A   1      -0.556  -4.566  -5.545  0.00  0.00    +0.277 C 
ENDBRANCH  23  27
BRANCH  24  29
ATOM     29  O   LIG A   1       0.826  -2.618  -6.638  0.00  0.00    -0.491 OA
ATOM     30  C   LIG A   1       2.000  -2.693  -7.438  0.00  0.00    +0.277 C 
ENDBRANCH  24  29
ENDBRANCH   5  21
TORSDOF 7
