@<TRIPOS>MOLECULE
NuBBE_1449
 53 57 0 0 0
SMALL
GASTEIGER

@<TRIPOS>ATOM
      1 O          -2.7477    1.8540   -0.1646 O.3     1  LIG1       -0.3728
      2 C          -1.7153    0.9154    0.1897 C.3     1  LIG1        0.1969
      3 C          -1.8162   -0.2227   -0.8396 C.2     1  LIG1        0.2099
      4 C          -0.6424   -0.5010   -1.6808 C.ar    1  LIG1        0.1042
      5 C          -0.5154   -1.7034   -2.4019 C.ar    1  LIG1        0.1344
      6 C           0.6187   -1.9554   -3.1777 C.ar    1  LIG1        0.0228
      7 C           1.5993   -0.9862   -3.2128 C.ar    1  LIG1        0.1317
      8 C           1.4660    0.2170   -2.5388 C.ar    1  LIG1        0.0406
      9 C           2.6418    1.0733   -2.8124 C.3     1  LIG1        0.0204
     10 C           3.5713    0.0321   -3.4623 C.3     1  LIG1        0.1249
     11 O           2.7713   -1.0960   -3.9146 O.3     1  LIG1       -0.4837
     12 C           4.3835    0.5971   -4.6110 C.2     1  LIG1       -0.0395
     13 C           3.7601    0.5649   -5.9793 C.3     1  LIG1       -0.0406
     14 C           5.6117    1.1099   -4.4178 C.2     1  LIG1       -0.0962
     15 C           0.3454    0.4726   -1.7712 C.ar    1  LIG1        0.1421
     16 O           0.2439    1.6922   -1.1726 O.3     1  LIG1       -0.4805
     17 C          -0.3485    1.6283    0.1385 C.3     1  LIG1        0.1739
     18 C           0.6791    1.0526    1.1340 C.3     1  LIG1        0.1299
     19 O           0.3599   -0.2831    1.5493 O.3     1  LIG1       -0.4877
     20 C          -0.8502   -0.2562    2.1934 C.ar    1  LIG1        0.1308
     21 C          -1.9362    0.3812    1.5917 C.ar    1  LIG1        0.0405
     22 C          -3.1325    0.4475    2.3132 C.ar    1  LIG1       -0.0064
     23 C          -3.2378   -0.1061    3.6068 C.ar    1  LIG1        0.1621
     24 C          -2.1289   -0.7619    4.1756 C.ar    1  LIG1        0.1650
     25 O          -2.2403   -1.3411    5.4126 O.3     1  LIG1       -0.4913
     26 C          -1.0679   -1.3010    6.2226 C.3     1  LIG1        0.0790
     27 C          -0.9425   -0.8565    3.4413 C.ar    1  LIG1        0.0258
     28 O          -4.4754    0.1022    4.1609 O.3     1  LIG1       -0.4914
     29 C          -4.7141   -0.3482    5.4868 C.3     1  LIG1        0.0790
     30 O          -1.4800   -2.6769   -2.3945 O.3     1  LIG1       -0.5058
     31 O          -2.8489   -0.8895   -1.0068 O.2     1  LIG1       -0.2882
     32 H          -3.5383    1.3227   -0.3849 H       1  LIG1        0.2114
     33 H           0.7260   -2.8818   -3.7302 H       1  LIG1        0.0691
     34 H           3.0883    1.4807   -1.8994 H       1  LIG1        0.0355
     35 H           2.3742    1.8921   -3.4876 H       1  LIG1        0.0355
     36 H           4.2534   -0.3720   -2.6994 H       1  LIG1        0.0784
     37 H           2.8129    1.1129   -5.9830 H       1  LIG1        0.0275
     38 H           3.5706   -0.4672   -6.2917 H       1  LIG1        0.0275
     39 H           4.4098    1.0181   -6.7358 H       1  LIG1        0.0275
     40 H           6.0691    1.1431   -3.4334 H       1  LIG1        0.0535
     41 H           6.1925    1.5177   -5.2405 H       1  LIG1        0.0535
     42 H          -0.4897    2.6829    0.4093 H       1  LIG1        0.0805
     43 H           0.7399    1.6888    2.0282 H       1  LIG1        0.0735
     44 H           1.6864    1.0288    0.7038 H       1  LIG1        0.0735
     45 H          -4.0050    0.9413    1.8899 H       1  LIG1        0.0660
     46 H          -1.3621   -1.5491    7.2468 H       1  LIG1        0.0660
     47 H          -0.6216   -0.3001    6.2351 H       1  LIG1        0.0660
     48 H          -0.3408   -2.0519    5.8987 H       1  LIG1        0.0660
     49 H          -0.0726   -1.3787    3.8234 H       1  LIG1        0.0692
     50 H          -4.7048   -1.4416    5.5364 H       1  LIG1        0.0660
     51 H          -5.7171   -0.0186    5.7754 H       1  LIG1        0.0660
     52 H          -4.0158    0.1035    6.1992 H       1  LIG1        0.0660
     53 H          -2.2671   -2.3268   -1.9182 H       1  LIG1        0.2922
@<TRIPOS>BOND
     1     1     2    1
     2     2     3    1
     3     3     4    1
     4     4     5   ar
     5     5     6   ar
     6     6     7   ar
     7     7     8   ar
     8     8     9    1
     9     9    10    1
    10    10    11    1
    11     7    11    1
    12    10    12    1
    13    12    13    1
    14    12    14    2
    15     8    15   ar
    16     4    15   ar
    17    15    16    1
    18    16    17    1
    19     2    17    1
    20    17    18    1
    21    18    19    1
    22    19    20    1
    23    20    21   ar
    24     2    21    1
    25    21    22   ar
    26    22    23   ar
    27    23    24   ar
    28    24    25    1
    29    25    26    1
    30    24    27   ar
    31    20    27   ar
    32    23    28    1
    33    28    29    1
    34     5    30    1
    35     3    31    2
    36     1    32    1
    37     6    33    1
    38     9    34    1
    39     9    35    1
    40    10    36    1
    41    13    37    1
    42    13    38    1
    43    13    39    1
    44    14    40    1
    45    14    41    1
    46    17    42    1
    47    18    43    1
    48    18    44    1
    49    22    45    1
    50    26    46    1
    51    26    47    1
    52    26    48    1
    53    27    49    1
    54    29    50    1
    55    29    51    1
    56    29    52    1
    57    30    53    1
