@<TRIPOS>MOLECULE
NuBBE_1816
 43 45 0 0 0
SMALL
GASTEIGER

@<TRIPOS>ATOM
      1 O          -1.7470    1.1620    1.9757 O.3     1  LIG1       -0.5059
      2 C          -2.7482    1.6707    1.1986 C.ar    1  LIG1        0.1312
      3 C          -4.0269    1.7269    1.7424 C.ar    1  LIG1        0.0222
      4 C          -5.0882    2.2871    1.0350 C.ar    1  LIG1        0.1236
      5 O          -6.3636    2.3527    1.5347 O.3     1  LIG1       -0.4950
      6 C          -6.6827    1.3384    2.4941 C.3     1  LIG1        0.0788
      7 C          -4.8440    2.8533   -0.2199 C.ar    1  LIG1       -0.0190
      8 C          -3.5581    2.7867   -0.7776 C.ar    1  LIG1       -0.0438
      9 C          -2.5089    2.1640   -0.0799 C.ar    1  LIG1        0.0669
     10 C          -1.1761    2.0950   -0.7183 C.2     1  LIG1        0.2308
     11 C          -0.3869    0.8245   -0.6344 C.2     1  LIG1        0.1687
     12 C           0.9140    0.8757   -0.9623 C.2     1  LIG1       -0.0084
     13 C           1.7434   -0.3174   -0.8792 C.ar    1  LIG1       -0.0114
     14 C           1.1417   -1.5240   -0.5264 C.ar    1  LIG1        0.0005
     15 C           1.9274   -2.6813   -0.4288 C.ar    1  LIG1       -0.0093
     16 C           3.3039   -2.6414   -0.6954 C.ar    1  LIG1        0.1619
     17 O           3.9316   -3.8568   -0.5747 O.3     1  LIG1       -0.4914
     18 C           5.2951   -3.8215   -0.1611 C.3     1  LIG1        0.0790
     19 C           3.8930   -1.4346   -1.1060 C.ar    1  LIG1        0.1621
     20 O           5.1874   -1.4572   -1.5526 O.3     1  LIG1       -0.4914
     21 C           5.9644   -0.2957   -1.2917 C.3     1  LIG1        0.0790
     22 C           3.1087   -0.2761   -1.1782 C.ar    1  LIG1       -0.0087
     23 C          -0.3538   -1.5764   -0.3670 C.3     1  LIG1        0.1155
     24 O          -1.0416   -0.3266   -0.2419 O.2     1  LIG1       -0.4835
     25 O          -0.7684    3.0804   -1.3643 O.2     1  LIG1       -0.2833
     26 H          -2.1248    0.8387    2.8115 H       1  LIG1        0.2922
     27 H          -4.1641    1.3487    2.7448 H       1  LIG1        0.0691
     28 H          -7.6776    1.5349    2.9013 H       1  LIG1        0.0660
     29 H          -6.0107    1.3375    3.3585 H       1  LIG1        0.0660
     30 H          -6.6853    0.3542    2.0125 H       1  LIG1        0.0660
     31 H          -5.6445    3.3384   -0.7759 H       1  LIG1        0.0654
     32 H          -3.3719    3.2209   -1.7615 H       1  LIG1        0.0627
     33 H           1.3823    1.8075   -1.2674 H       1  LIG1        0.0661
     34 H           1.4689   -3.6312   -0.1600 H       1  LIG1        0.0659
     35 H           5.9583   -3.5278   -0.9786 H       1  LIG1        0.0660
     36 H           5.5871   -4.8392    0.1159 H       1  LIG1        0.0660
     37 H           5.4342   -3.1830    0.7187 H       1  LIG1        0.0660
     38 H           7.0056   -0.5421   -1.5218 H       1  LIG1        0.0660
     39 H           5.9098   -0.0139   -0.2353 H       1  LIG1        0.0660
     40 H           5.6744    0.5350   -1.9411 H       1  LIG1        0.0660
     41 H           3.5356    0.6607   -1.5204 H       1  LIG1        0.0661
     42 H          -0.6111   -2.1670    0.5194 H       1  LIG1        0.0748
     43 H          -0.7821   -2.0806   -1.2410 H       1  LIG1        0.0748
@<TRIPOS>BOND
     1     1     2    1
     2     2     3   ar
     3     3     4   ar
     4     4     5    1
     5     5     6    1
     6     4     7   ar
     7     7     8   ar
     8     8     9   ar
     9     2     9   ar
    10     9    10    1
    11    10    11    1
    12    11    12    2
    13    12    13    1
    14    13    14   ar
    15    14    15   ar
    16    15    16   ar
    17    16    17    1
    18    17    18    1
    19    16    19   ar
    20    19    20    1
    21    20    21    1
    22    19    22   ar
    23    13    22   ar
    24    14    23    1
    25    23    24    1
    26    11    24    1
    27    10    25    2
    28     1    26    1
    29     3    27    1
    30     6    28    1
    31     6    29    1
    32     6    30    1
    33     7    31    1
    34     8    32    1
    35    12    33    1
    36    15    34    1
    37    18    35    1
    38    18    36    1
    39    18    37    1
    40    21    38    1
    41    21    39    1
    42    21    40    1
    43    22    41    1
    44    23    42    1
    45    23    43    1
