@<TRIPOS>MOLECULE
NuBBE_661
 35 37 0 0 0
SMALL
GASTEIGER

@<TRIPOS>ATOM
      1 O           2.7634   -2.9271   -0.9080 O.2     1  LIG1       -0.2452
      2 C           2.2225   -2.4194    0.0617 C.ar    1  LIG1        0.3372
      3 O           1.4418   -1.2761   -0.0349 O.2     1  LIG1       -0.4217
      4 C           0.8188   -0.6881    1.0956 C.ar    1  LIG1        0.1483
      5 C           0.0606    0.4817    0.8865 C.ar    1  LIG1        0.0681
      6 C          -0.5090    1.0701    2.0418 C.ar    1  LIG1        0.1294
      7 O          -1.1710    2.2644    1.8716 O.3     1  LIG1       -0.4946
      8 C          -2.2029    2.5425    2.8163 C.3     1  LIG1        0.0788
      9 C          -0.3331    0.4874    3.3083 C.ar    1  LIG1       -0.0188
     10 C           0.4047   -0.6832    3.4620 C.ar    1  LIG1       -0.0476
     11 C           0.9937   -1.2740    2.3528 C.ar    1  LIG1        0.0182
     12 C           1.7978   -2.4756    2.4851 C.ar    1  LIG1       -0.0443
     13 C           2.3745   -3.0063    1.4038 C.ar    1  LIG1        0.0236
     14 C          -0.0956    1.0857   -0.4970 C.3     1  LIG1        0.1173
     15 H           0.5822    1.9032   -0.7249 H       1  LIG1        0.0675
     16 O          -1.4360    1.1996   -1.0080 O.3     1  LIG1       -0.3628
     17 C          -0.5915    0.2656   -1.6864 C.3     1  LIG1        0.0923
     18 C          -0.2643    0.6598   -3.1067 C.3     1  LIG1       -0.0176
     19 C           0.7183   -0.3291   -3.7364 C.3     1  LIG1       -0.0602
     20 C          -1.5347    0.7462   -3.9552 C.3     1  LIG1       -0.0602
     21 H          -0.8208   -0.7855   -1.5665 H       1  LIG1        0.0628
     22 H          -2.6437    3.5120    2.5673 H       1  LIG1        0.0660
     23 H          -1.8190    2.6323    3.8373 H       1  LIG1        0.0660
     24 H          -2.9899    1.7829    2.7607 H       1  LIG1        0.0660
     25 H          -0.7390    0.9358    4.2085 H       1  LIG1        0.0654
     26 H           0.5233   -1.1066    4.4561 H       1  LIG1        0.0626
     27 H           1.9237   -2.9216    3.4657 H       1  LIG1        0.0627
     28 H           2.9861   -3.8968    1.4649 H       1  LIG1        0.0689
     29 H           0.2099    1.6492   -3.1102 H       1  LIG1        0.0321
     30 H           0.2954   -1.3389   -3.7842 H       1  LIG1        0.0233
     31 H           1.6448   -0.3837   -3.1556 H       1  LIG1        0.0233
     32 H           0.9771   -0.0248   -4.7570 H       1  LIG1        0.0233
     33 H          -2.0705   -0.2090   -3.9713 H       1  LIG1        0.0233
     34 H          -1.2991    1.0250   -4.9880 H       1  LIG1        0.0233
     35 H          -2.2185    1.5027   -3.5555 H       1  LIG1        0.0233
@<TRIPOS>BOND
     1     1     2    2
     2     2     3   ar
     3     3     4   ar
     4     4     5   ar
     5     5     6   ar
     6     6     7    1
     7     7     8    1
     8     6     9   ar
     9     9    10   ar
    10    10    11   ar
    11     4    11   ar
    12    11    12   ar
    13    12    13   ar
    14     2    13   ar
    15    14    16    1
    16    16    17    1
    17    17    18    1
    18    18    19    1
    19    18    20    1
    20    14    17    1
    21    17    21    1
    22    14    15    1
    23    14     5    1
    24     8    22    1
    25     8    23    1
    26     8    24    1
    27     9    25    1
    28    10    26    1
    29    12    27    1
    30    13    28    1
    31    18    29    1
    32    19    30    1
    33    19    31    1
    34    19    32    1
    35    20    33    1
    36    20    34    1
    37    20    35    1
