@<TRIPOS>MOLECULE
NuBBE_2287
 51 54 0 0 0
SMALL
GASTEIGER

@<TRIPOS>ATOM
      1 C           1.1863    2.8442    0.0628 C.3     1  LIG1       -0.0556
      2 C           0.8791    1.3698    0.5051 C.3     1  LIG1       -0.0072
      3 C          -0.6533    1.1728    0.3299 C.2     1  LIG1       -0.0584
      4 C          -1.5345    1.0622    1.3528 C.2     1  LIG1       -0.0550
      5 C          -2.5585   -0.0622    1.3132 C.3     1  LIG1        0.0801
      6 H          -2.1884   -0.7831    2.0554 H       1  LIG1        0.0644
      7 C          -2.6670   -0.8314   -0.0495 C.3     1  LIG1        0.0103
      8 H          -3.0240   -1.8539    0.1160 H       1  LIG1        0.0374
      9 C          -1.3423   -0.8172   -0.7704 C.3     1  LIG1       -0.0342
     10 C          -1.1280    0.6643   -1.0449 C.3     1  LIG1       -0.0033
     11 C          -2.5620    1.1236   -1.4747 C.3     1  LIG1       -0.0222
     12 C          -3.3946   -0.0785   -1.1061 C.2     1  LIG1       -0.0699
     13 C          -4.4210   -0.6037   -1.8187 C.2     1  LIG1       -0.0991
     14 C          -0.1166    0.9334   -2.1493 C.3     1  LIG1       -0.0430
     15 C           1.2545    0.3368   -1.8543 C.3     1  LIG1       -0.0481
     16 C           1.6714    0.2805   -0.3612 C.3     1  LIG1       -0.0267
     17 H           2.6958    0.6934   -0.3779 H       1  LIG1        0.0314
     18 C           1.9904   -1.2298    0.2227 C.3     1  LIG1       -0.0313
     19 C           2.9731   -1.9551   -0.7698 C.3     1  LIG1       -0.0595
     20 C           0.9609   -2.3714    0.5363 C.3     1  LIG1       -0.0595
     21 C           2.6728   -1.0401    1.5878 C.3     1  LIG1       -0.0476
     22 C           2.2502    0.1453    2.4394 C.3     1  LIG1       -0.0518
     23 C           1.4133    1.3203    1.9553 C.3     1  LIG1       -0.0436
     24 O          -3.8195    0.3823    1.7752 O.3     1  LIG1       -0.3872
     25 H           0.7738    3.1436   -0.8999 H       1  LIG1        0.0238
     26 H           2.2678    3.0260    0.0208 H       1  LIG1        0.0238
     27 H           0.7744    3.5585    0.7928 H       1  LIG1        0.0238
     28 H          -1.3594    1.4761    2.3386 H       1  LIG1        0.0598
     29 H          -1.2911   -1.4439   -1.6679 H       1  LIG1        0.0280
     30 H          -0.6081   -1.1472   -0.0802 H       1  LIG1        0.0280
     31 H          -2.6249    1.3363   -2.5468 H       1  LIG1        0.0318
     32 H          -2.8979    2.0078   -0.9217 H       1  LIG1        0.0318
     33 H          -4.8070   -0.0973   -2.6875 H       1  LIG1        0.0535
     34 H          -4.8175   -1.5778   -1.5715 H       1  LIG1        0.0535
     35 H          -0.0365    2.0114   -2.3331 H       1  LIG1        0.0274
     36 H          -0.4697    0.5255   -3.1044 H       1  LIG1        0.0274
     37 H           1.9969    0.9431   -2.3943 H       1  LIG1        0.0269
     38 H           1.2866   -0.6545   -2.3120 H       1  LIG1        0.0269
     39 H           2.5818   -2.9272   -1.1054 H       1  LIG1        0.0235
     40 H           3.9497   -2.1561   -0.3234 H       1  LIG1        0.0235
     41 H           3.1543   -1.3874   -1.6848 H       1  LIG1        0.0235
     42 H           0.4309   -2.7489   -0.3473 H       1  LIG1        0.0235
     43 H           0.2612   -2.1169    1.3429 H       1  LIG1        0.0235
     44 H           1.4839   -3.2682    0.9122 H       1  LIG1        0.0235
     45 H           3.7608   -1.0229    1.4672 H       1  LIG1        0.0271
     46 H           2.5140   -1.9271    2.2227 H       1  LIG1        0.0271
     47 H           1.7418   -0.2496    3.3247 H       1  LIG1        0.0266
     48 H           3.1925    0.5783    2.7966 H       1  LIG1        0.0266
     49 H           2.0517    2.2013    2.1274 H       1  LIG1        0.0274
     50 H           0.6189    1.4921    2.6869 H       1  LIG1        0.0274
     51 H          -4.4668   -0.2777    1.4721 H       1  LIG1        0.2102
@<TRIPOS>BOND
     1     1     2    1
     2     2     3    1
     3     3     4    2
     4     4     5    1
     5     5     7    1
     6     7     8    1
     7     7     9    1
     8     9    10    1
     9     3    10    1
    10    10    11    1
    11    11    12    1
    12     7    12    1
    13    12    13    2
    14    10    14    1
    15    14    15    1
    16    15    16    1
    17    16    17    1
    18     2    16    1
    19    16    18    1
    20    18    19    1
    21    18    20    1
    22    18    21    1
    23    21    22    1
    24    22    23    1
    25     2    23    1
    26     5    24    1
    27     5     6    1
    28     1    25    1
    29     1    26    1
    30     1    27    1
    31     4    28    1
    32     9    29    1
    33     9    30    1
    34    11    31    1
    35    11    32    1
    36    13    33    1
    37    13    34    1
    38    14    35    1
    39    14    36    1
    40    15    37    1
    41    15    38    1
    42    19    39    1
    43    19    40    1
    44    19    41    1
    45    20    42    1
    46    20    43    1
    47    20    44    1
    48    21    45    1
    49    21    46    1
    50    22    47    1
    51    22    48    1
    52    23    49    1
    53    23    50    1
    54    24    51    1
