REMARK  Name = NuBBE_120
REMARK  5 active torsions:
REMARK  status: ('A' for Active; 'I' for Inactive)
REMARK    1  A    between atoms: O_1  and  C_2
REMARK    2  A    between atoms: C_5  and  C_8
REMARK    3  A    between atoms: C_9  and  O_10
REMARK    4  A    between atoms: C_13  and  O_14
REMARK    5  A    between atoms: C_16  and  O_17
REMARK                            x       y       z     vdW  Elec       q    Type
REMARK                         _______ _______ _______ _____ _____    ______ ____
ROOT
ATOM      1  C   LIG A   1      -0.447  -0.469   0.074  0.00  0.00    +0.181 A 
ATOM      2  C   LIG A   1       0.189  -1.618  -0.223  0.00  0.00    +0.208 A 
ATOM      3  C   LIG A   1       1.632  -1.562  -0.551  0.00  0.00    +0.238 A 
ATOM      4  C   LIG A   1       2.281  -0.251  -0.532  0.00  0.00    +0.109 A 
ATOM      5  C   LIG A   1       3.640  -0.098  -0.825  0.00  0.00    +0.135 A 
ATOM      6  C   LIG A   1       4.225   1.167  -0.799  0.00  0.00    +0.091 A 
ATOM      7  C   LIG A   1       3.439   2.271  -0.479  0.00  0.00    +0.124 A 
ATOM      8  C   LIG A   1       2.085   2.128  -0.186  0.00  0.00    +0.092 A 
ATOM      9  C   LIG A   1       1.506   0.860  -0.214  0.00  0.00    +0.146 A 
ATOM     10  O   LIG A   1       0.169   0.778   0.080  0.00  0.00    -0.451 OA
ATOM     11  O   LIG A   1       2.250  -2.588  -0.831  0.00  0.00    -0.283 OA
ENDROOT
BRANCH   1  15
ATOM     12  C   LIG A   1      -4.607  -0.191   1.049  0.00  0.00    +0.117 A 
ATOM     13  C   LIG A   1      -4.050   0.693   0.132  0.00  0.00    +0.046 A 
ATOM     14  C   LIG A   1      -2.692   0.588  -0.184  0.00  0.00    +0.015 A 
ATOM     15  C   LIG A   1      -1.886  -0.400   0.406  0.00  0.00    +0.021 A 
ATOM     16  C   LIG A   1      -2.473  -1.272   1.336  0.00  0.00    +0.015 A 
ATOM     17  C   LIG A   1      -3.830  -1.170   1.653  0.00  0.00    +0.046 A 
BRANCH  12  18
ATOM     18  O   LIG A   1      -5.925  -0.126   1.389  0.00  0.00    -0.507 OA
ATOM     19  H   LIG A   1      -6.340   0.595   0.886  0.00  0.00    +0.292 HD
ENDBRANCH  12  18
ENDBRANCH   1  15
BRANCH   2  20
ATOM     20  O   LIG A   1      -0.418  -2.859  -0.261  0.00  0.00    -0.501 OA
ATOM     21  H   LIG A   1       0.287  -3.486  -0.528  0.00  0.00    +0.292 HD
ENDBRANCH   2  20
BRANCH   5  22
ATOM     22  O   LIG A   1       4.458  -1.147  -1.146  0.00  0.00    -0.506 OA
ATOM     23  H   LIG A   1       3.925  -1.974  -1.131  0.00  0.00    +0.292 HD
ENDBRANCH   5  22
BRANCH   7  24
ATOM     24  O   LIG A   1       3.965   3.528  -0.441  0.00  0.00    -0.506 OA
ATOM     25  H   LIG A   1       4.912   3.480  -0.658  0.00  0.00    +0.292 HD
ENDBRANCH   7  24
TORSDOF 5
