@<TRIPOS>MOLECULE
NuBBE_291
 39 39 0 0 0
SMALL
GASTEIGER

@<TRIPOS>ATOM
      1 O           3.9356   -0.5158   -1.9569 O.3     1  LIG1       -0.5061
      2 C           3.6687   -0.2455   -0.6409 C.ar    1  LIG1        0.1279
      3 C           2.4871   -0.6540    0.0045 C.ar    1  LIG1        0.0664
      4 C           1.4494   -1.3790   -0.7893 C.2     1  LIG1        0.1896
      5 C           0.0237   -1.2867   -0.3531 C.2     1  LIG1       -0.0152
      6 C          -1.0521   -1.8014   -0.9817 C.2     1  LIG1       -0.0687
      7 C          -1.0310   -2.6281   -2.2382 C.3     1  LIG1       -0.0434
      8 C          -2.4376   -1.5163   -0.4193 C.3     1  LIG1       -0.0282
      9 C          -3.0898   -0.2558   -1.0049 C.3     1  LIG1       -0.0308
     10 C          -2.2843    0.9864   -0.7245 C.2     1  LIG1       -0.0850
     11 C          -2.3797    1.8049    0.3405 C.2     1  LIG1       -0.0796
     12 C          -3.3545    1.6360    1.4719 C.3     1  LIG1       -0.0440
     13 C          -1.4551    2.9851    0.4822 C.3     1  LIG1       -0.0440
     14 O           1.7928   -1.9521   -1.8149 O.2     1  LIG1       -0.2872
     15 C           2.3270   -0.3685    1.3683 C.ar    1  LIG1       -0.0059
     16 C           3.3129    0.3527    2.0431 C.ar    1  LIG1        0.1178
     17 O           3.1904    0.6641    3.3653 O.3     1  LIG1       -0.5067
     18 C           4.4627    0.7816    1.3904 C.ar    1  LIG1       -0.0167
     19 C           4.6448    0.4763    0.0444 C.ar    1  LIG1       -0.0160
     20 H           3.2599   -1.1572   -2.2755 H       1  LIG1        0.2922
     21 H          -0.1603   -0.6567    0.5099 H       1  LIG1        0.0655
     22 H          -1.1124   -1.9817   -3.1179 H       1  LIG1        0.0274
     23 H          -1.8754   -3.3259   -2.2572 H       1  LIG1        0.0274
     24 H          -0.1336   -3.2442   -2.3250 H       1  LIG1        0.0274
     25 H          -2.3817   -1.4234    0.6741 H       1  LIG1        0.0313
     26 H          -3.0922   -2.3785   -0.5973 H       1  LIG1        0.0313
     27 H          -4.1073   -0.1558   -0.6115 H       1  LIG1        0.0310
     28 H          -3.2023   -0.3601   -2.0913 H       1  LIG1        0.0310
     29 H          -1.5229    1.1971   -1.4768 H       1  LIG1        0.0572
     30 H          -3.9715    0.7389    1.3814 H       1  LIG1        0.0274
     31 H          -4.0262    2.4993    1.5179 H       1  LIG1        0.0274
     32 H          -2.8181    1.5639    2.4240 H       1  LIG1        0.0274
     33 H          -0.7650    3.0761   -0.3634 H       1  LIG1        0.0274
     34 H          -0.8523    2.8858    1.3912 H       1  LIG1        0.0274
     35 H          -2.0324    3.9126    0.5440 H       1  LIG1        0.0274
     36 H           1.4561   -0.7112    1.9159 H       1  LIG1        0.0662
     37 H           2.3599    0.2995    3.7117 H       1  LIG1        0.2921
     38 H           5.2203    1.3433    1.9304 H       1  LIG1        0.0655
     39 H           5.5466    0.7944   -0.4717 H       1  LIG1        0.0655
@<TRIPOS>BOND
     1     1     2    1
     2     2     3   ar
     3     3     4    1
     4     4     5    1
     5     5     6    2
     6     6     7    1
     7     6     8    1
     8     8     9    1
     9     9    10    1
    10    10    11    2
    11    11    12    1
    12    11    13    1
    13     4    14    2
    14     3    15   ar
    15    15    16   ar
    16    16    17    1
    17    16    18   ar
    18    18    19   ar
    19     2    19   ar
    20     1    20    1
    21     5    21    1
    22     7    22    1
    23     7    23    1
    24     7    24    1
    25     8    25    1
    26     8    26    1
    27     9    27    1
    28     9    28    1
    29    10    29    1
    30    12    30    1
    31    12    31    1
    32    12    32    1
    33    13    33    1
    34    13    34    1
    35    13    35    1
    36    15    36    1
    37    17    37    1
    38    18    38    1
    39    19    39    1
