@<TRIPOS>MOLECULE
NuBBE_2503
 86 90 0 0 0
SMALL
GASTEIGER

@<TRIPOS>ATOM
      1 C          -2.4951   -1.4407    6.4137 C.3     1  LIG1        0.0332
      2 C          -3.3679   -1.6312    5.2082 C.2     1  LIG1        0.3042
      3 O          -4.5840   -1.5764    5.2358 O.2     1  LIG1       -0.2512
      4 O          -2.6116   -2.0115    4.1404 O.3     1  LIG1       -0.4610
      5 C          -3.3045   -2.7358    3.0971 C.3     1  LIG1        0.1084
      6 H          -4.0503   -3.3860    3.5751 H       1  LIG1        0.0739
      7 C          -4.0235   -1.7716    2.1510 C.3     1  LIG1       -0.0146
      8 C          -3.0545   -0.8799    1.3857 C.3     1  LIG1       -0.0434
      9 C          -2.0067   -1.6620    0.5525 C.3     1  LIG1       -0.0217
     10 C          -2.7018   -2.2577   -0.6993 C.3     1  LIG1       -0.0587
     11 C          -0.8584   -0.6560    0.1045 C.3     1  LIG1       -0.0137
     12 H          -0.5744   -0.0923    1.0057 H       1  LIG1        0.0351
     13 C          -1.3604    0.3722   -0.9202 C.3     1  LIG1       -0.0455
     14 C          -0.2909    1.4109   -1.2164 C.3     1  LIG1       -0.0460
     15 C           0.9840    0.8099   -1.8525 C.3     1  LIG1       -0.0194
     16 C           0.5663    0.1766   -3.2146 C.3     1  LIG1       -0.0585
     17 C           2.0892    1.9589   -2.0565 C.3     1  LIG1       -0.0266
     18 H           2.8941    1.3885   -2.5462 H       1  LIG1        0.0314
     19 C           1.9484    3.1442   -3.1294 C.3     1  LIG1       -0.0374
     20 H           2.8427    3.0351   -3.7665 H       1  LIG1        0.0304
     21 C           0.8000    3.0737   -4.1353 C.3     1  LIG1       -0.0619
     22 C           2.1027    4.5640   -2.5176 C.3     1  LIG1       -0.0410
     23 H           1.2556    4.7324   -1.8469 H       1  LIG1        0.0301
     24 C           2.0331    5.7186   -3.5284 C.3     1  LIG1       -0.0622
     25 C           3.4199    4.6982   -1.7278 C.3     1  LIG1       -0.0497
     26 C           3.9247    3.3976   -1.1042 C.3     1  LIG1       -0.0471
     27 C           2.7764    2.4415   -0.7081 C.3     1  LIG1       -0.0284
     28 C           1.8981    3.1895    0.3320 C.3     1  LIG1       -0.0593
     29 C           3.3790    1.2083   -0.0009 C.3     1  LIG1       -0.0465
     30 C           2.3315    0.1380    0.3068 C.3     1  LIG1       -0.0429
     31 C           1.5679   -0.3936   -0.9393 C.3     1  LIG1       -0.0051
     32 C           2.6088   -1.2301   -1.7616 C.3     1  LIG1       -0.0553
     33 C           0.4394   -1.3272   -0.3711 C.2     1  LIG1       -0.0634
     34 C           0.6204   -2.6506   -0.1641 C.2     1  LIG1       -0.0836
     35 C          -0.3139   -3.5467    0.6034 C.3     1  LIG1       -0.0305
     36 C          -1.3282   -2.7515    1.4490 C.3     1  LIG1       -0.0231
     37 H          -0.7235   -2.1789    2.1734 H       1  LIG1        0.0316
     38 C          -2.2653   -3.6373    2.3563 C.3     1  LIG1        0.0058
     39 C          -1.3861   -4.3584    3.4196 C.3     1  LIG1       -0.0562
     40 C          -3.0196   -4.7581    1.6117 C.3     1  LIG1       -0.0562
     41 H          -2.8833   -0.6207    7.0230 H       1  LIG1        0.0342
     42 H          -1.4696   -1.1964    6.1230 H       1  LIG1        0.0342
     43 H          -2.4942   -2.3690    6.9917 H       1  LIG1        0.0342
     44 H          -4.6983   -1.1197    2.7171 H       1  LIG1        0.0301
     45 H          -4.6539   -2.3281    1.4497 H       1  LIG1        0.0301
     46 H          -2.5449   -0.2247    2.1038 H       1  LIG1        0.0272
     47 H          -3.6433   -0.2185    0.7388 H       1  LIG1        0.0272
     48 H          -3.2899   -1.4994   -1.2281 H       1  LIG1        0.0235
     49 H          -3.4042   -3.0519   -0.4584 H       1  LIG1        0.0235
     50 H          -1.9858   -2.6651   -1.4199 H       1  LIG1        0.0235
     51 H          -2.2357    0.9018   -0.5291 H       1  LIG1        0.0271
     52 H          -1.6799   -0.1064   -1.8511 H       1  LIG1        0.0271
     53 H          -0.0790    1.9085   -0.2746 H       1  LIG1        0.0271
     54 H          -0.7251    2.1772   -1.8639 H       1  LIG1        0.0271
     55 H          -0.2275    0.7416   -3.7099 H       1  LIG1        0.0235
     56 H           0.1537   -0.8313   -3.0920 H       1  LIG1        0.0235
     57 H           1.4171    0.0925   -3.8990 H       1  LIG1        0.0235
     58 H           0.8663    2.1719   -4.7459 H       1  LIG1        0.0233
     59 H           0.8543    3.8834   -4.8693 H       1  LIG1        0.0233
     60 H          -0.1786    3.1410   -3.6586 H       1  LIG1        0.0233
     61 H           1.0260    5.8265   -3.9432 H       1  LIG1        0.0233
     62 H           2.7376    5.5697   -4.3529 H       1  LIG1        0.0233
     63 H           2.2732    6.6717   -3.0435 H       1  LIG1        0.0233
     64 H           3.2749    5.4486   -0.9396 H       1  LIG1        0.0268
     65 H           4.2174    5.0942   -2.3698 H       1  LIG1        0.0268
     66 H           4.5550    3.6374   -0.2380 H       1  LIG1        0.0271
     67 H           4.5899    2.8965   -1.8206 H       1  LIG1        0.0271
     68 H           1.3850    2.5273    1.0317 H       1  LIG1        0.0235
     69 H           1.1283    3.8177   -0.1131 H       1  LIG1        0.0235
     70 H           2.5168    3.8350    0.9683 H       1  LIG1        0.0235
     71 H           3.8574    1.5119    0.9398 H       1  LIG1        0.0271
     72 H           4.1806    0.7743   -0.6113 H       1  LIG1        0.0271
     73 H           1.6284    0.5120    1.0568 H       1  LIG1        0.0274
     74 H           2.8441   -0.6943    0.8103 H       1  LIG1        0.0274
     75 H           3.3289   -0.6057   -2.2957 H       1  LIG1        0.0238
     76 H           2.1245   -1.8710   -2.5069 H       1  LIG1        0.0238
     77 H           3.2061   -1.8851   -1.1158 H       1  LIG1        0.0238
     78 H           1.5349   -3.1469   -0.4746 H       1  LIG1        0.0572
     79 H           0.3015   -4.1702    1.2612 H       1  LIG1        0.0310
     80 H          -0.8081   -4.2219   -0.1022 H       1  LIG1        0.0310
     81 H          -0.7761   -5.1495    2.9710 H       1  LIG1        0.0236
     82 H          -2.0088   -4.8282    4.1902 H       1  LIG1        0.0236
     83 H          -0.7041   -3.6655    3.9254 H       1  LIG1        0.0236
     84 H          -3.8066   -4.3880    0.9561 H       1  LIG1        0.0236
     85 H          -3.5205   -5.4199    2.3301 H       1  LIG1        0.0236
     86 H          -2.3460   -5.3879    1.0239 H       1  LIG1        0.0236
@<TRIPOS>BOND
     1     1     2    1
     2     2     3    2
     3     2     4    1
     4     5     7    1
     5     7     8    1
     6     8     9    1
     7     9    10    1
     8     9    11    1
     9    11    12    1
    10    11    13    1
    11    13    14    1
    12    14    15    1
    13    15    16    1
    14    15    17    1
    15    17    18    1
    16    17    19    1
    17    19    20    1
    18    19    21    1
    19    19    22    1
    20    22    23    1
    21    22    24    1
    22    22    25    1
    23    25    26    1
    24    26    27    1
    25    17    27    1
    26    27    28    1
    27    27    29    1
    28    29    30    1
    29    30    31    1
    30    15    31    1
    31    31    32    1
    32    31    33    1
    33    11    33    1
    34    33    34    2
    35    34    35    1
    36    35    36    1
    37    36    37    1
    38     9    36    1
    39    36    38    1
    40     5    38    1
    41    38    39    1
    42    38    40    1
    43     5     6    1
    44     5     4    1
    45     1    41    1
    46     1    42    1
    47     1    43    1
    48     7    44    1
    49     7    45    1
    50     8    46    1
    51     8    47    1
    52    10    48    1
    53    10    49    1
    54    10    50    1
    55    13    51    1
    56    13    52    1
    57    14    53    1
    58    14    54    1
    59    16    55    1
    60    16    56    1
    61    16    57    1
    62    21    58    1
    63    21    59    1
    64    21    60    1
    65    24    61    1
    66    24    62    1
    67    24    63    1
    68    25    64    1
    69    25    65    1
    70    26    66    1
    71    26    67    1
    72    28    68    1
    73    28    69    1
    74    28    70    1
    75    29    71    1
    76    29    72    1
    77    30    73    1
    78    30    74    1
    79    32    75    1
    80    32    76    1
    81    32    77    1
    82    34    78    1
    83    35    79    1
    84    35    80    1
    85    39    81    1
    86    39    82    1
    87    39    83    1
    88    40    84    1
    89    40    85    1
    90    40    86    1
