REMARK  Name = NuBBE_1788
REMARK  15 active torsions:
REMARK  status: ('A' for Active; 'I' for Inactive)
REMARK    1  A    between atoms: O_1  and  C_2
REMARK    2  A    between atoms: C_3  and  C_24
REMARK    3  A    between atoms: C_6  and  O_8
REMARK    4  A    between atoms: C_11  and  O_22
REMARK    5  A    between atoms: C_12  and  C_14
REMARK    6  A    between atoms: C_16  and  O_17
REMARK    7  A    between atoms: C_18  and  O_21
REMARK    8  A    between atoms: O_22  and  C_23
REMARK    9  A    between atoms: C_25  and  C_32
REMARK   10  A    between atoms: C_28  and  O_31
REMARK   11  A    between atoms: C_29  and  O_30
REMARK   12  A    between atoms: C_33  and  O_34
REMARK   13  A    between atoms: O_34  and  C_35
REMARK   14  A    between atoms: C_42  and  O_46
REMARK   15  A    between atoms: C_44  and  O_45
REMARK                            x       y       z     vdW  Elec       q    Type
REMARK                         _______ _______ _______ _____ _____    ______ ____
ROOT
ATOM      1  C   LIG A   1      -1.333  -1.504  -0.603  0.00  0.00    +0.132 A 
ATOM      2  C   LIG A   1      -0.317  -0.819   0.130  0.00  0.00    +0.071 A 
ATOM      3  C   LIG A   1       1.038  -1.175  -0.287  0.00  0.00    +0.154 A 
ATOM      4  C   LIG A   1       1.252  -2.084  -1.352  0.00  0.00    +0.110 A 
ATOM      5  C   LIG A   1       0.194  -2.661  -2.050  0.00  0.00    +0.135 A 
ATOM      6  C   LIG A   1      -1.095  -2.366  -1.683  0.00  0.00    +0.092 A 
ATOM      7  C   LIG A   1       2.602  -2.473  -1.772  0.00  0.00    +0.238 A 
ATOM      8  O   LIG A   1       2.724  -3.246  -2.710  0.00  0.00    -0.283 OA
ATOM      9  C   LIG A   1       3.755  -1.938  -1.020  0.00  0.00    +0.211 A 
ATOM     10  C   LIG A   1       3.473  -1.082  -0.010  0.00  0.00    +0.181 A 
ATOM     11  O   LIG A   1       2.170  -0.635   0.328  0.00  0.00    -0.450 OA
ENDROOT
BRANCH  10  12
ATOM     12  C   LIG A   1       4.564  -0.502   0.849  0.00  0.00    +0.025 A 
ATOM     13  C   LIG A   1       4.370  -0.249   2.219  0.00  0.00    +0.060 A 
ATOM     14  C   LIG A   1       5.390   0.299   3.001  0.00  0.00    +0.159 A 
ATOM     15  C   LIG A   1       6.611   0.635   2.436  0.00  0.00    +0.158 A 
ATOM     16  C   LIG A   1       6.846   0.383   1.100  0.00  0.00    +0.050 A 
ATOM     17  C   LIG A   1       5.830  -0.181   0.319  0.00  0.00    +0.015 A 
BRANCH  14  18
ATOM     18  O   LIG A   1       5.243   0.494   4.347  0.00  0.00    -0.503 OA
ATOM     19  H   LIG A   1       4.676  -0.225   4.679  0.00  0.00    +0.292 HD
ENDBRANCH  14  18
BRANCH  15  20
ATOM     20  O   LIG A   1       7.596   1.188   3.198  0.00  0.00    -0.503 OA
ATOM     21  H   LIG A   1       7.195   1.292   4.083  0.00  0.00    +0.292 HD
ENDBRANCH  15  20
ENDBRANCH  10  12
BRANCH   2  22
ATOM     22  C   LIG A   1      -0.708   0.164   1.282  0.00  0.00    +0.045 A 
ATOM     23  C   LIG A   1      -1.858   1.067   1.317  0.00  0.00    +0.033 A 
ATOM     24  C   LIG A   1      -2.060   1.893   2.476  0.00  0.00    +0.016 A 
ATOM     25  C   LIG A   1      -1.330   1.808   3.641  0.00  0.00    +0.050 A 
ATOM     26  C   LIG A   1      -0.251   0.977   3.621  0.00  0.00    +0.159 A 
ATOM     27  C   LIG A   1       0.052   0.186   2.487  0.00  0.00    +0.167 A 
BRANCH  23  28
ATOM     28  C   LIG A   1      -2.952   1.271   0.271  0.00  0.00    +0.181 A 
ATOM     29  C   LIG A   1      -4.275   1.496   0.585  0.00  0.00    +0.211 A 
ATOM     30  C   LIG A   1      -5.241   1.547  -0.523  0.00  0.00    +0.238 A 
ATOM     31  O   LIG A   1      -6.493   1.645  -0.352  0.00  0.00    -0.283 OA
ATOM     32  C   LIG A   1      -4.742   1.468  -1.880  0.00  0.00    +0.109 A 
ATOM     33  C   LIG A   1      -3.372   1.257  -2.072  0.00  0.00    +0.146 A 
ATOM     34  O   LIG A   1      -2.487   1.160  -1.031  0.00  0.00    -0.451 OA
ATOM     35  C   LIG A   1      -2.861   1.115  -3.362  0.00  0.00    +0.092 A 
ATOM     36  C   LIG A   1      -3.718   1.246  -4.453  0.00  0.00    +0.124 A 
ATOM     37  C   LIG A   1      -5.071   1.516  -4.277  0.00  0.00    +0.091 A 
ATOM     38  C   LIG A   1      -5.590   1.600  -2.985  0.00  0.00    +0.135 A 
BRANCH  29  39
ATOM     39  O   LIG A   1      -4.647   1.793   1.881  0.00  0.00    -0.488 OA
ATOM     40  C   LIG A   1      -5.941   1.546   2.402  0.00  0.00    +0.277 C 
ENDBRANCH  29  39
BRANCH  38  41
ATOM     41  O   LIG A   1      -6.937   1.797  -2.883  0.00  0.00    -0.506 OA
ATOM     42  H   LIG A   1      -7.173   1.784  -1.931  0.00  0.00    +0.292 HD
ENDBRANCH  38  41
BRANCH  36  43
ATOM     43  O   LIG A   1      -3.263   1.112  -5.728  0.00  0.00    -0.506 OA
ATOM     44  H   LIG A   1      -2.666   0.344  -5.753  0.00  0.00    +0.292 HD
ENDBRANCH  36  43
ENDBRANCH  23  28
BRANCH  27  45
ATOM     45  O   LIG A   1       1.139  -0.627   2.686  0.00  0.00    -0.503 OA
ATOM     46  H   LIG A   1       1.506  -0.292   3.532  0.00  0.00    +0.292 HD
ENDBRANCH  27  45
BRANCH  26  47
ATOM     47  O   LIG A   1       0.582   0.901   4.710  0.00  0.00    -0.503 OA
ATOM     48  H   LIG A   1       0.236   1.512   5.387  0.00  0.00    +0.292 HD
ENDBRANCH  26  47
ENDBRANCH   2  22
BRANCH   1  49
ATOM     49  O   LIG A   1      -2.662  -1.399  -0.273  0.00  0.00    -0.506 OA
ATOM     50  H   LIG A   1      -3.168  -1.501  -1.101  0.00  0.00    +0.292 HD
ENDBRANCH   1  49
BRANCH   5  51
ATOM     51  O   LIG A   1       0.324  -3.539  -3.094  0.00  0.00    -0.506 OA
ATOM     52  H   LIG A   1       1.286  -3.713  -3.232  0.00  0.00    +0.292 HD
ENDBRANCH   5  51
BRANCH   9  53
ATOM     53  O   LIG A   1       5.041  -2.397  -1.306  0.00  0.00    -0.488 OA
ATOM     54  C   LIG A   1       5.378  -2.662  -2.672  0.00  0.00    +0.277 C 
ENDBRANCH   9  53
TORSDOF 13
