@<TRIPOS>MOLECULE
NuBBE_540
 45 46 0 0 0
SMALL
GASTEIGER

@<TRIPOS>ATOM
      1 O          -2.4029    0.6220    1.5742 O.3     1  LIG1       -0.3877
      2 C          -1.3727   -0.3639    1.5416 C.3     1  LIG1        0.0760
      3 H          -0.6783   -0.1080    2.3493 H       1  LIG1        0.0638
      4 C          -0.6332   -0.3114    0.1935 C.3     1  LIG1        0.0032
      5 C          -0.0096    1.0696   -0.1046 C.3     1  LIG1        0.0613
      6 H           0.6662    1.3481    0.7117 H       1  LIG1        0.0597
      7 O          -1.0204    2.0762   -0.1856 O.3     1  LIG1       -0.3914
      8 C           0.7707    1.0502   -1.4350 C.3     1  LIG1       -0.0084
      9 C           1.4166    2.3765   -1.7669 C.2     1  LIG1       -0.0821
     10 C           2.7357    2.5502   -1.9585 C.2     1  LIG1       -0.0475
     11 C           3.3893    3.8570   -2.3455 C.3     1  LIG1        0.1250
     12 H           2.6140    4.6121   -2.5308 H       1  LIG1        0.0782
     13 O           4.0759    3.6707   -3.6087 O.3     1  LIG1       -0.4538
     14 C           5.3138    3.1387   -3.6476 C.2     1  LIG1        0.3322
     15 C           6.0612    3.0524   -2.3829 C.2     1  LIG1        0.0187
     16 C           5.6331    3.6706   -1.2764 C.2     1  LIG1       -0.0735
     17 C           4.3376    4.4166   -1.2773 C.3     1  LIG1        0.0067
     18 O           5.8372    2.7567   -4.7022 O.2     1  LIG1       -0.2456
     19 C          -1.9437   -1.7286    1.8300 C.2     1  LIG1       -0.0553
     20 C          -3.1853   -2.1451    1.5234 C.2     1  LIG1       -0.0561
     21 C          -3.7136   -3.4873    1.8195 C.ar    1  LIG1       -0.0252
     22 C          -4.6958   -4.0290    0.9784 C.ar    1  LIG1       -0.0546
     23 C          -5.2590   -5.2794    1.2493 C.ar    1  LIG1       -0.0612
     24 C          -4.8535   -5.9990    2.3709 C.ar    1  LIG1       -0.0617
     25 C          -3.8802   -5.4730    3.2168 C.ar    1  LIG1       -0.0612
     26 C          -3.3166   -4.2233    2.9448 C.ar    1  LIG1       -0.0546
     27 H          -2.9277    0.4504    2.3782 H       1  LIG1        0.2102
     28 H          -1.3414   -0.5560   -0.6100 H       1  LIG1        0.0318
     29 H           0.1549   -1.0759    0.1829 H       1  LIG1        0.0318
     30 H          -1.5806    1.9788    0.6153 H       1  LIG1        0.2098
     31 H           0.0883    0.8069   -2.2599 H       1  LIG1        0.0332
     32 H           1.5299    0.2596   -1.3998 H       1  LIG1        0.0332
     33 H           0.7315    3.2156   -1.8869 H       1  LIG1        0.0571
     34 H           3.3962    1.6929   -1.8545 H       1  LIG1        0.0605
     35 H           7.0014    2.5139   -2.4171 H       1  LIG1        0.0686
     36 H           6.2243    3.6482   -0.3654 H       1  LIG1        0.0575
     37 H           4.5606    5.4704   -1.4871 H       1  LIG1        0.0346
     38 H           3.8704    4.3711   -0.2863 H       1  LIG1        0.0346
     39 H          -1.2562   -2.4119    2.3244 H       1  LIG1        0.0598
     40 H          -3.8625   -1.4800    0.9891 H       1  LIG1        0.0621
     41 H          -5.0279   -3.4850    0.0967 H       1  LIG1        0.0623
     42 H          -6.0157   -5.6890    0.5850 H       1  LIG1        0.0618
     43 H          -5.2973   -6.9673    2.5873 H       1  LIG1        0.0618
     44 H          -3.5624   -6.0308    4.0940 H       1  LIG1        0.0618
     45 H          -2.5723   -3.8318    3.6327 H       1  LIG1        0.0623
@<TRIPOS>BOND
     1     2     4    1
     2     5     7    1
     3     5     8    1
     4     8     9    1
     5     9    10    2
     6    10    11    1
     7    11    12    1
     8    11    13    1
     9    13    14    1
    10    14    15    1
    11    15    16    2
    12    16    17    1
    13    11    17    1
    14    14    18    2
    15     2    19    1
    16    19    20    2
    17    20    21    1
    18    21    22   ar
    19    22    23   ar
    20    23    24   ar
    21    24    25   ar
    22    25    26   ar
    23    21    26   ar
    24     2     3    1
    25     2     1    1
    26     5     6    1
    27     5     4    1
    28     1    27    1
    29     4    28    1
    30     4    29    1
    31     7    30    1
    32     8    31    1
    33     8    32    1
    34     9    33    1
    35    10    34    1
    36    15    35    1
    37    16    36    1
    38    17    37    1
    39    17    38    1
    40    19    39    1
    41    20    40    1
    42    22    41    1
    43    23    42    1
    44    24    43    1
    45    25    44    1
    46    26    45    1
