REMARK  Name = NuBBE_2233
REMARK  6 active torsions:
REMARK  status: ('A' for Active; 'I' for Inactive)
REMARK    1  A    between atoms: C_1  and  C_2
REMARK    2  A    between atoms: C_10  and  O_12
REMARK    3  A    between atoms: O_12  and  C_13
REMARK    4  A    between atoms: C_13  and  C_14
REMARK    5  A    between atoms: C_23  and  C_24
REMARK    6  A    between atoms: C_23  and  C_25
REMARK                            x       y       z     vdW  Elec       q    Type
REMARK                         _______ _______ _______ _____ _____    ______ ____
ROOT
ATOM      1  C   LIG A   1      -1.381   0.854   1.503  0.00  0.00    +0.012 C 
ATOM      2  C   LIG A   1       0.052   0.641   0.937  0.00  0.00    -0.022 C 
ATOM      3  C   LIG A   1       0.814  -0.285   1.971  0.00  0.00    +0.001 C 
ATOM      4  C   LIG A   1       0.252  -1.724   1.933  0.00  0.00    +0.005 C 
ATOM      5  C   LIG A   1       0.175  -2.358   0.552  0.00  0.00    +0.008 C 
ATOM      6  C   LIG A   1      -0.448  -1.494  -0.557  0.00  0.00    -0.018 C 
ATOM      7  C   LIG A   1      -1.989  -1.651  -0.669  0.00  0.00    +0.037 C 
ATOM      8  C   LIG A   1       0.047  -0.005  -0.506  0.00  0.00    +0.043 C 
ATOM      9  C   LIG A   1      -0.503   0.866  -1.693  0.00  0.00    +0.181 C 
ATOM     10  C   LIG A   1      -0.553   0.085  -3.028  0.00  0.00    +0.053 C 
ATOM     11  C   LIG A   1      -0.953  -1.391  -2.889  0.00  0.00    +0.018 C 
ATOM     12  C   LIG A   1      -0.008  -2.085  -1.921  0.00  0.00    +0.015 C 
ATOM     13  C   LIG A   1      -2.254  -1.577  -2.156  0.00  0.00    -0.073 C 
ATOM     14  C   LIG A   1      -3.445  -1.777  -2.733  0.00  0.00    +0.008 C 
ATOM     15  C   LIG A   1       2.396  -0.188   2.024  0.00  0.00    -0.032 C 
ATOM     16  C   LIG A   1       2.892  -0.694   3.408  0.00  0.00    +0.011 C 
ATOM     17  C   LIG A   1       3.149  -1.024   0.972  0.00  0.00    +0.011 C 
ATOM     18  C   LIG A   1       2.858   1.284   1.914  0.00  0.00    +0.007 C 
ATOM     19  C   LIG A   1       2.225   2.021   0.747  0.00  0.00    +0.001 C 
ATOM     20  C   LIG A   1       0.715   2.047   0.919  0.00  0.00    +0.007 C 
ENDROOT
BRANCH   9  21
ATOM     21  O   LIG A   1      -1.819   1.410  -1.456  0.00  0.00    -0.461 OA
BRANCH  21  22
ATOM     22  C   LIG A   1      -1.966   2.760  -1.616  0.00  0.00    +0.304 C 
ATOM     23  C   LIG A   1      -3.407   3.170  -1.532  0.00  0.00    +0.136 C 
ATOM     24  O   LIG A   1      -1.068   3.557  -1.826  0.00  0.00    -0.251 OA
ENDBRANCH  21  22
ENDBRANCH   9  21
TORSDOF 2
