REMARK  Name = NuBBE_1715
REMARK  3 active torsions:
REMARK  status: ('A' for Active; 'I' for Inactive)
REMARK    1  A    between atoms: C_1  and  O_2
REMARK    2  A    between atoms: O_2  and  C_3
REMARK    3  A    between atoms: C_4  and  O_5
REMARK                            x       y       z     vdW  Elec       q    Type
REMARK                         _______ _______ _______ _____ _____    ______ ____
ROOT
ATOM      1  C   LIG A   1       0.043   2.095   0.067  0.00  0.00    +0.176 A 
ATOM      2  C   LIG A   1       0.757   2.915  -0.814  0.00  0.00    +0.159 A 
ATOM      3  C   LIG A   1       1.482   2.381  -1.869  0.00  0.00    +0.053 A 
ATOM      4  C   LIG A   1       1.471   1.002  -2.071  0.00  0.00    +0.051 A 
ATOM      5  C   LIG A   1       0.727   0.171  -1.224  0.00  0.00    +0.143 A 
ATOM      6  O   LIG A   1       0.768  -1.167  -1.534  0.00  0.00    -0.455 OA
ATOM      7  C   LIG A   1       0.027  -2.034  -0.775  0.00  0.00    +0.139 A 
ATOM      8  C   LIG A   1       0.075  -3.381  -1.142  0.00  0.00    +0.047 A 
ATOM      9  C   LIG A   1      -0.651  -4.330  -0.419  0.00  0.00    +0.004 A 
ATOM     10  C   LIG A   1      -1.427  -3.935   0.672  0.00  0.00    +0.001 A 
ATOM     11  C   LIG A   1      -1.475  -2.590   1.040  0.00  0.00    +0.015 A 
ATOM     12  C   LIG A   1      -0.746  -1.643   0.312  0.00  0.00    +0.065 A 
ATOM     13  C   LIG A   1       0.004   0.712  -0.154  0.00  0.00    +0.110 A 
ATOM     14  C   LIG A   1      -0.778  -0.220   0.685  0.00  0.00    +0.204 A 
ATOM     15  O   LIG A   1      -1.426   0.138   1.660  0.00  0.00    -0.286 OA
ENDROOT
BRANCH   1  17
ATOM     16  C   LIG A   1       0.094   2.704   2.287  0.00  0.00    +0.277 C 
ATOM     17  O   LIG A   1      -0.654   2.724   1.067  0.00  0.00    -0.491 OA
ENDBRANCH   1  17
BRANCH   2  18
ATOM     18  O   LIG A   1       0.748   4.273  -0.660  0.00  0.00    -0.503 OA
ATOM     19  H   LIG A   1       0.076   4.457   0.026  0.00  0.00    +0.292 HD
ENDBRANCH   2  18
TORSDOF 2
