@<TRIPOS>MOLECULE
NuBBE_1583
 81 87 0 0 0
SMALL
GASTEIGER

@<TRIPOS>ATOM
      1 C          -0.7653   -2.3881    0.7656 C.3     1  LIG1       -0.0564
      2 C          -0.3366   -1.4289   -0.3770 C.3     1  LIG1        0.0034
      3 C           0.4706   -0.2469    0.2465 C.3     1  LIG1       -0.0148
      4 C          -0.3042    0.8378    0.9394 C.3     1  LIG1       -0.0192
      5 C           0.4344    1.1565   -0.3473 C.3     1  LIG1       -0.0398
      6 C           0.3657    1.0701    2.3057 C.3     1  LIG1       -0.0273
      7 H          -0.1094    0.3774    3.0162 H       1  LIG1        0.0311
      8 C           1.8139    0.5809    2.0972 C.3     1  LIG1       -0.0487
      9 C           1.7038   -0.5681    1.0817 C.3     1  LIG1       -0.0460
     10 C           0.1745    2.4968    2.8535 C.3     1  LIG1        0.0157
     11 H          -0.9123    2.6618    2.8919 H       1  LIG1        0.0353
     12 C           0.7357    3.6437    2.0221 C.3     1  LIG1       -0.0163
     13 C           1.7755    4.3177    2.9008 C.3     1  LIG1        0.0909
     14 H           1.7423    5.4031    2.7570 H       1  LIG1        0.0624
     15 O           1.3822    4.0296    4.2466 O.3     1  LIG1       -0.3454
     16 C           0.6992    2.7787    4.2662 C.3     1  LIG1        0.1598
     17 O           1.5732    1.7984    4.7719 O.3     1  LIG1       -0.3667
     18 C           3.1762    3.8551    2.5949 C.3     1  LIG1        0.1139
     19 H           3.3260    3.6488    1.5414 H       1  LIG1        0.0651
     20 C           4.4057    4.2852    3.3813 C.3     1  LIG1        0.0930
     21 O           3.8027    2.9953    3.5605 O.3     1  LIG1       -0.3627
     22 C           5.7386    4.2346    2.6991 C.3     1  LIG1       -0.0335
     23 C           4.2990    5.1896    4.5681 C.3     1  LIG1       -0.0335
     24 C          -1.8108    0.7623    0.9289 C.3     1  LIG1       -0.0463
     25 C          -2.4477    0.1201   -0.3139 C.3     1  LIG1       -0.0486
     26 C          -1.5731   -0.8497   -1.1573 C.3     1  LIG1       -0.0270
     27 H          -1.1320   -0.1965   -1.9241 H       1  LIG1        0.0312
     28 C          -2.3957   -1.8817   -2.0437 C.3     1  LIG1       -0.0245
     29 C          -3.2161   -2.8584   -1.1688 C.3     1  LIG1       -0.0590
     30 C          -1.3755   -2.6011   -3.0041 C.3     1  LIG1       -0.0212
     31 H          -0.9096   -1.7831   -3.5785 H       1  LIG1        0.0316
     32 C          -0.2146   -3.2513   -2.2086 C.3     1  LIG1       -0.0221
     33 C           0.5649   -2.2195   -1.3747 C.3     1  LIG1        0.0617
     34 H           1.3719   -2.7325   -0.8379 H       1  LIG1        0.0599
     35 O           1.1958   -1.3395   -2.3148 O.3     1  LIG1       -0.3912
     36 C          -2.0036   -3.5135   -4.1146 C.3     1  LIG1        0.0268
     37 C          -0.9198   -3.8882   -5.1569 C.3     1  LIG1       -0.0528
     38 C          -2.6229   -4.8250   -3.6131 C.3     1  LIG1       -0.0528
     39 C          -3.0982   -2.7160   -4.8490 C.2     1  LIG1        0.1392
     40 O          -3.2786   -2.8119   -6.0627 O.2     1  LIG1       -0.2968
     41 C          -4.0729   -1.9161   -4.0152 C.3     1  LIG1        0.0069
     42 C          -3.3797   -1.0810   -2.9474 C.3     1  LIG1       -0.0404
     43 H          -1.4058   -1.8974    1.5021 H       1  LIG1        0.0236
     44 H           0.0959   -2.7848    1.3103 H       1  LIG1        0.0236
     45 H          -1.2879   -3.2738    0.4125 H       1  LIG1        0.0236
     46 H           1.3554    1.7295   -0.3358 H       1  LIG1        0.0277
     47 H          -0.1443    1.4063   -1.2269 H       1  LIG1        0.0277
     48 H           2.2871    0.2334    3.0193 H       1  LIG1        0.0268
     49 H           2.4435    1.3693    1.6780 H       1  LIG1        0.0268
     50 H           1.6187   -1.5094    1.6261 H       1  LIG1        0.0271
     51 H           2.6024   -0.6221    0.4586 H       1  LIG1        0.0271
     52 H          -0.0783    4.3575    1.8372 H       1  LIG1        0.0295
     53 H           1.1220    3.3649    1.0428 H       1  LIG1        0.0295
     54 H          -0.1318    2.8598    4.9740 H       1  LIG1        0.0910
     55 H           2.4618    2.1269    4.5311 H       1  LIG1        0.2125
     56 H           5.7590    3.4881    1.8974 H       1  LIG1        0.0258
     57 H           6.5280    3.9770    3.4125 H       1  LIG1        0.0258
     58 H           5.9748    5.2082    2.2584 H       1  LIG1        0.0258
     59 H           3.4796    4.9164    5.2379 H       1  LIG1        0.0258
     60 H           4.1450    6.2221    4.2391 H       1  LIG1        0.0258
     61 H           5.2190    5.1569    5.1613 H       1  LIG1        0.0258
     62 H          -2.1447    0.2026    1.8111 H       1  LIG1        0.0271
     63 H          -2.2218    1.7723    1.0484 H       1  LIG1        0.0271
     64 H          -2.7600    0.9370   -0.9803 H       1  LIG1        0.0268
     65 H          -3.3847   -0.3505   -0.0001 H       1  LIG1        0.0268
     66 H          -3.4545   -2.4421   -0.1868 H       1  LIG1        0.0235
     67 H          -2.7001   -3.8055   -0.9993 H       1  LIG1        0.0235
     68 H          -4.1821   -3.1145   -1.6106 H       1  LIG1        0.0235
     69 H           0.4988   -3.7025   -2.9058 H       1  LIG1        0.0293
     70 H          -0.5773   -4.0623   -1.5714 H       1  LIG1        0.0293
     71 H           1.7214   -0.6977   -1.8079 H       1  LIG1        0.2098
     72 H          -0.4118   -2.9961   -5.5401 H       1  LIG1        0.0239
     73 H          -1.3535   -4.4060   -6.0213 H       1  LIG1        0.0239
     74 H          -0.1654   -4.5626   -4.7403 H       1  LIG1        0.0239
     75 H          -2.8998   -5.4694   -4.4570 H       1  LIG1        0.0239
     76 H          -3.5460   -4.6715   -3.0512 H       1  LIG1        0.0239
     77 H          -1.9255   -5.3910   -2.9882 H       1  LIG1        0.0239
     78 H          -4.8069   -2.6047   -3.5884 H       1  LIG1        0.0342
     79 H          -4.6214   -1.2419   -4.6838 H       1  LIG1        0.0342
     80 H          -4.1505   -0.5947   -2.3375 H       1  LIG1        0.0275
     81 H          -2.8311   -0.2744   -3.4526 H       1  LIG1        0.0275
@<TRIPOS>BOND
     1     2     3    1
     2     3     4    1
     3     4     5    1
     4     3     5    1
     5     4     6    1
     6     6     8    1
     7     8     9    1
     8     3     9    1
     9    10    12    1
    10    12    13    1
    11    13    14    1
    12    13    15    1
    13    15    16    1
    14    10    16    1
    15    16    17    1
    16    13    18    1
    17    18    19    1
    18    18    20    1
    19    20    21    1
    20    18    21    1
    21    20    22    1
    22    20    23    1
    23     4    24    1
    24    24    25    1
    25    25    26    1
    26     2    26    1
    27    26    28    1
    28    28    30    1
    29    30    32    1
    30    32    33    1
    31     2    33    1
    32    30    36    1
    33    36    39    1
    34    39    41    1
    35    41    42    1
    36    28    42    1
    37     1     2    1
    38    26    27    1
    39    28    29    1
    40    30    31    1
    41    36    37    1
    42    36    38    1
    43    39    40    2
    44     6     7    1
    45    10     6    1
    46    10    11    1
    47    33    35    1
    48    33    34    1
    49     1    43    1
    50     1    44    1
    51     1    45    1
    52     5    46    1
    53     5    47    1
    54     8    48    1
    55     8    49    1
    56     9    50    1
    57     9    51    1
    58    12    52    1
    59    12    53    1
    60    16    54    1
    61    17    55    1
    62    22    56    1
    63    22    57    1
    64    22    58    1
    65    23    59    1
    66    23    60    1
    67    23    61    1
    68    24    62    1
    69    24    63    1
    70    25    64    1
    71    25    65    1
    72    29    66    1
    73    29    67    1
    74    29    68    1
    75    32    69    1
    76    32    70    1
    77    35    71    1
    78    37    72    1
    79    37    73    1
    80    37    74    1
    81    38    75    1
    82    38    76    1
    83    38    77    1
    84    41    78    1
    85    41    79    1
    86    42    80    1
    87    42    81    1
