REMARK  Name = NuBBE_2525
REMARK  10 active torsions:
REMARK  status: ('A' for Active; 'I' for Inactive)
REMARK    1  A    between atoms: O_1  and  C_2
REMARK    2  A    between atoms: O_1  and  C_3
REMARK    3  A    between atoms: C_6  and  O_22
REMARK    4  A    between atoms: C_7  and  C_10
REMARK    5  A    between atoms: C_8  and  O_9
REMARK    6  A    between atoms: C_10  and  C_12
REMARK    7  A    between atoms: C_12  and  C_13
REMARK    8  A    between atoms: C_13  and  C_14
REMARK    9  A    between atoms: C_17  and  O_20
REMARK   10  A    between atoms: O_20  and  C_21
REMARK                            x       y       z     vdW  Elec       q    Type
REMARK                         _______ _______ _______ _____ _____    ______ ____
ROOT
ATOM      1  C   UNL A   1      -1.391  -3.442   1.122  0.00  0.00    +0.208 A 
ATOM      2  C   UNL A   1      -2.763  -3.255   1.050  0.00  0.00    +0.215 A 
ATOM      3  C   UNL A   1      -3.319  -2.009   0.947  0.00  0.00    +0.212 A 
ATOM      4  C   UNL A   1      -2.557  -0.862   0.914  0.00  0.00    +0.177 A 
ATOM      5  C   UNL A   1      -1.161  -0.971   1.000  0.00  0.00    +0.108 A 
ATOM      6  C   UNL A   1      -0.584  -2.281   1.096  0.00  0.00    +0.177 A 
ATOM      7  O   UNL A   1      -4.681  -2.026   0.891  0.00  0.00    -0.449 OA
ATOM      8  C   UNL A   1      -4.927  -3.434   1.078  0.00  0.00    +0.467 C 
ATOM      9  O   UNL A   1      -3.724  -4.225   1.069  0.00  0.00    -0.449 OA
ENDROOT
BRANCH   1  10
ATOM     10  O   UNL A   1      -1.022  -4.754   1.211  0.00  0.00    -0.488 OA
ATOM     11  C   UNL A   1       0.352  -5.091   1.300  0.00  0.00    +0.277 C 
ENDBRANCH   1  10
BRANCH   6  12
ATOM     12  O   UNL A   1       0.783  -2.433   1.162  0.00  0.00    -0.503 OA
ATOM     13  H   UNL A   1       1.208  -1.548   1.086  0.00  0.00    +0.292 HD
ENDBRANCH   6  12
BRANCH   5  14
ATOM     14  C   UNL A   1      -0.273   0.253   1.026  0.00  0.00    +0.171 C 
ATOM     15  O   UNL A   1       0.936   0.090   1.177  0.00  0.00    -0.292 OA
BRANCH  14  16
ATOM     16  C   UNL A   1      -0.915   1.632   0.897  0.00  0.00    +0.084 C 
BRANCH  16  17
ATOM     17  C   UNL A   1       0.025   2.833   0.897  0.00  0.00    +0.043 C 
BRANCH  17  18
ATOM     18  C   UNL A   1       0.979   2.862  -0.264  0.00  0.00    -0.047 A 
ATOM     19  C   UNL A   1       0.531   2.857  -1.590  0.00  0.00    +0.007 A 
ATOM     20  C   UNL A   1       1.448   2.799  -2.642  0.00  0.00    +0.046 A 
ATOM     21  C   UNL A   1       2.820   2.781  -2.387  0.00  0.00    +0.120 A 
ATOM     22  C   UNL A   1       3.270   2.823  -1.070  0.00  0.00    +0.046 A 
ATOM     23  C   UNL A   1       2.356   2.865  -0.016  0.00  0.00    +0.007 A 
BRANCH  21  24
ATOM     24  O   UNL A   1       3.618   2.660  -3.490  0.00  0.00    -0.495 OA
ATOM     25  C   UNL A   1       4.932   3.189  -3.365  0.00  0.00    +0.277 C 
ENDBRANCH  21  24
ENDBRANCH  17  18
ENDBRANCH  16  17
ENDBRANCH  14  16
ENDBRANCH   5  14
BRANCH   4  26
ATOM     26  O   UNL A   1      -3.233   0.318   0.812  0.00  0.00    -0.503 OA
ATOM     27  H   UNL A   1      -4.185   0.102   0.749  0.00  0.00    +0.292 HD
ENDBRANCH   4  26
TORSDOF 8
