REMARK  Name = NuBBE_2252
REMARK  14 active torsions:
REMARK  status: ('A' for Active; 'I' for Inactive)
REMARK    1  A    between atoms: C_1  and  C_2
REMARK    2  A    between atoms: C_5  and  C_6
REMARK    3  A    between atoms: C_11  and  C_12
REMARK    4  A    between atoms: C_11  and  C_13
REMARK    5  A    between atoms: C_22  and  C_23
REMARK    6  A    between atoms: C_26  and  C_28
REMARK    7  A    between atoms: C_28  and  C_29
REMARK    8  A    between atoms: C_28  and  C_36
REMARK    9  A    between atoms: C_28  and  O_37
REMARK   10  A    between atoms: C_29  and  C_30
REMARK   11  A    between atoms: C_30  and  C_31
REMARK   12  A    between atoms: C_31  and  C_33
REMARK   13  A    between atoms: C_33  and  C_34
REMARK   14  A    between atoms: C_33  and  C_35
REMARK                            x       y       z     vdW  Elec       q    Type
REMARK                         _______ _______ _______ _____ _____    ______ ____
ROOT
ATOM      1  C   LIG A   1       1.026  -1.594  -0.365  0.00  0.00    +0.012 C 
ATOM      2  C   LIG A   1       0.613  -0.607  -1.504  0.00  0.00    -0.023 C 
ATOM      3  C   LIG A   1       0.859   0.884  -1.082  0.00  0.00    +0.002 C 
ATOM      4  C   LIG A   1       2.370   1.309  -0.847  0.00  0.00    -0.025 C 
ATOM      5  C   LIG A   1       2.968   0.655   0.422  0.00  0.00    +0.012 C 
ATOM      6  C   LIG A   1       3.144   0.962  -2.170  0.00  0.00    +0.008 C 
ATOM      7  C   LIG A   1       2.993  -0.528  -2.545  0.00  0.00    +0.005 C 
ATOM      8  C   LIG A   1       1.522  -0.927  -2.727  0.00  0.00    +0.008 C 
ATOM      9  C   LIG A   1       4.606   1.503  -2.274  0.00  0.00    +0.027 C 
ATOM     10  C   LIG A   1       5.636   0.771  -1.404  0.00  0.00    +0.019 C 
ATOM     11  C   LIG A   1       5.084   1.394  -3.744  0.00  0.00    +0.019 C 
ATOM     12  C   LIG A   1       4.619   2.997  -1.895  0.00  0.00    +0.139 C 
ATOM     13  O   LIG A   1       5.329   3.808  -2.469  0.00  0.00    -0.297 OA
ATOM     14  C   LIG A   1       3.834   3.429  -0.674  0.00  0.00    +0.075 C 
ATOM     15  C   LIG A   1       2.428   2.854  -0.666  0.00  0.00    +0.015 C 
ATOM     16  C   LIG A   1      -0.117   1.377   0.006  0.00  0.00    +0.005 C 
ATOM     17  C   LIG A   1      -1.210   0.401   0.414  0.00  0.00    +0.005 C 
ATOM     18  C   LIG A   1      -1.904  -0.360  -0.714  0.00  0.00    +0.001 C 
ATOM     19  C   LIG A   1      -0.941  -0.765  -1.887  0.00  0.00    -0.023 C 
ATOM     20  C   LIG A   1      -1.372   0.113  -3.102  0.00  0.00    +0.012 C 
ATOM     21  C   LIG A   1      -1.315  -2.224  -2.251  0.00  0.00    +0.008 C 
ATOM     22  C   LIG A   1      -2.603  -2.532  -1.509  0.00  0.00    +0.007 C 
ATOM     23  C   LIG A   1      -2.580  -1.674  -0.229  0.00  0.00    +0.024 C 
ENDROOT
BRANCH  23  24
ATOM     24  C   LIG A   1      -4.002  -1.548   0.414  0.00  0.00    +0.067 C 
ATOM     25  C   LIG A   1      -4.533  -2.942   0.798  0.00  0.00    +0.041 C 
BRANCH  24  26
ATOM     26  O   LIG A   1      -4.887  -1.024  -0.594  0.00  0.00    -0.389 OA
ATOM     27  H   LIG A   1      -5.803  -1.141  -0.289  0.00  0.00    +0.210 HD
ENDBRANCH  24  26
BRANCH  24  28
ATOM     28  C   LIG A   1      -4.123  -0.592   1.631  0.00  0.00    +0.039 C 
BRANCH  28  29
ATOM     29  C   LIG A   1      -3.272  -0.948   2.870  0.00  0.00    +0.033 C 
BRANCH  29  30
ATOM     30  C   LIG A   1      -3.308   0.050   4.024  0.00  0.00    -0.074 C 
ATOM     31  C   LIG A   1      -4.413   0.761   4.318  0.00  0.00    +0.008 C 
BRANCH  30  32
ATOM     32  C   LIG A   1      -2.037   0.223   4.865  0.00  0.00    +0.008 C 
ATOM     33  C   LIG A   1      -1.510  -1.088   5.463  0.00  0.00    +0.012 C 
ATOM     34  C   LIG A   1      -0.926   0.911   4.068  0.00  0.00    +0.012 C 
ENDBRANCH  30  32
ENDBRANCH  29  30
ENDBRANCH  28  29
ENDBRANCH  24  28
ENDBRANCH  23  24
TORSDOF 6
