REMARK  Name = NuBBE_2148
REMARK  11 active torsions:
REMARK  status: ('A' for Active; 'I' for Inactive)
REMARK    1  A    between atoms: C_1  and  O_2
REMARK    2  A    between atoms: O_2  and  C_3
REMARK    3  A    between atoms: C_10  and  C_11
REMARK    4  A    between atoms: C_13  and  C_15
REMARK    5  A    between atoms: C_16  and  C_17
REMARK    6  A    between atoms: C_17  and  C_18
REMARK    7  A    between atoms: C_23  and  O_25
REMARK    8  A    between atoms: O_25  and  C_26
REMARK    9  A    between atoms: C_27  and  O_29
REMARK   10  A    between atoms: C_30  and  O_31
REMARK   11  A    between atoms: O_31  and  C_32
REMARK                            x       y       z     vdW  Elec       q    Type
REMARK                         _______ _______ _______ _____ _____    ______ ____
ROOT
ATOM      1  C   LIG A   1       0.063  -0.521   1.340  0.00  0.00    +0.065 C 
ATOM      2  C   LIG A   1       1.239  -1.423   0.592  0.00  0.00    +0.010 C 
ATOM      3  C   LIG A   1       2.311  -2.006   1.519  0.00  0.00    +0.009 C 
ATOM      4  C   LIG A   1       1.795  -0.559  -0.647  0.00  0.00    +0.041 C 
ATOM      5  C   LIG A   1       0.615   0.256  -0.495  0.00  0.00    +0.175 C 
ATOM      6  O   LIG A   1      -0.228   0.428  -1.381  0.00  0.00    -0.294 OA
ATOM      7  C   LIG A   1       2.758   0.711  -0.594  0.00  0.00    +0.049 C 
ATOM      8  C   LIG A   1       2.061   2.223  -0.472  0.00  0.00    +0.150 C 
ATOM      9  C   LIG A   1       0.657   2.243   0.367  0.00  0.00    +0.183 C 
ATOM     10  C   LIG A   1       0.612   0.879   1.027  0.00  0.00    +0.162 C 
ENDROOT
BRANCH   1  18
ATOM     11  C   LIG A   1      -3.819  -0.195   1.307  0.00  0.00    +0.166 A 
ATOM     12  C   LIG A   1      -4.152  -1.218   0.439  0.00  0.00    +0.207 A 
ATOM     13  O   LIG A   1      -5.391  -1.575  -0.001  0.00  0.00    -0.449 OA
ATOM     14  C   LIG A   1      -5.094  -2.718  -0.819  0.00  0.00    +0.467 C 
ATOM     15  O   LIG A   1      -3.684  -2.979  -0.930  0.00  0.00    -0.453 OA
ATOM     16  C   LIG A   1      -3.178  -2.017  -0.107  0.00  0.00    +0.170 A 
ATOM     17  C   LIG A   1      -1.831  -1.839   0.162  0.00  0.00    +0.053 A 
ATOM     18  C   LIG A   1      -1.423  -0.795   1.015  0.00  0.00    -0.034 A 
ATOM     19  C   LIG A   1      -2.445   0.017   1.579  0.00  0.00    +0.053 A 
BRANCH  11  21
ATOM     20  C   LIG A   1      -6.032   0.179   2.073  0.00  0.00    +0.277 C 
ATOM     21  O   LIG A   1      -4.694   0.657   1.925  0.00  0.00    -0.491 OA
ENDBRANCH  11  21
ENDBRANCH   1  18
BRANCH   8  22
ATOM     22  O   LIG A   1       1.864   2.829  -1.752  0.00  0.00    -0.377 OA
ATOM     23  C   LIG A   1       3.061   3.302  -2.360  0.00  0.00    +0.194 C 
ENDBRANCH   8  22
BRANCH   9  24
ATOM     24  O   LIG A   1      -0.530   2.680  -0.288  0.00  0.00    -0.386 OA
ATOM     25  H   LIG A   1      -0.657   2.122  -1.084  0.00  0.00    +0.210 HD
ENDBRANCH   9  24
BRANCH  10  26
ATOM     26  O   LIG A   1       1.779   0.924   1.910  0.00  0.00    -0.366 OA
ATOM     27  C   LIG A   1       1.699   1.825   3.022  0.00  0.00    +0.195 C 
ENDBRANCH  10  26
BRANCH   4  28
ATOM     28  C   LIG A   1       1.899  -1.458  -1.911  0.00  0.00    +0.041 C 
BRANCH  28  29
ATOM     29  C   LIG A   1       2.466  -0.877  -3.182  0.00  0.00    -0.034 C 
ATOM     30  C   LIG A   1       3.767  -0.982  -3.519  0.00  0.00    +0.004 C 
ENDBRANCH  28  29
ENDBRANCH   4  28
TORSDOF 7
