@<TRIPOS>MOLECULE
NuBBE_51
 91 93 0 0 0
SMALL
GASTEIGER

@<TRIPOS>ATOM
      1 C          -3.0954    1.9132    1.5317 C.3     1  LIG1       -0.0584
      2 C          -1.9196    1.0809    1.0079 C.3     1  LIG1        0.0029
      3 H          -2.3642    0.1326    0.6798 H       1  LIG1        0.0340
      4 C          -0.8559    0.7466    2.0802 C.3     1  LIG1        0.1438
      5 H          -0.5992    1.6214    2.6796 H       1  LIG1        0.0775
      6 O          -1.4331   -0.2427    3.0281 O.3     1  LIG1       -0.4573
      7 C          -2.4227    0.0807    3.9148 C.2     1  LIG1        0.3074
      8 C          -1.9962   -0.0018    5.3352 C.3     1  LIG1        0.0447
      9 C          -2.9617   -0.9715    6.0253 C.3     1  LIG1       -0.0458
     10 C          -2.5971   -1.1468    7.4784 C.3     1  LIG1       -0.0648
     11 O          -3.6165    0.2121    3.6710 O.2     1  LIG1       -0.2508
     12 C           0.4914    0.1353    1.4670 C.3     1  LIG1        0.1554
     13 H           0.5885   -0.8182    2.0076 H       1  LIG1        0.0783
     14 O           1.8131    0.7364    1.8692 O.3     1  LIG1       -0.4567
     15 C           2.2088    2.0359    1.9152 C.2     1  LIG1        0.3043
     16 C           3.5947    2.2478    1.3220 C.3     1  LIG1        0.0332
     17 O           1.5498    2.9507    2.3883 O.2     1  LIG1       -0.2512
     18 C           0.5206   -0.2435   -0.1203 C.3     1  LIG1        0.1036
     19 C           0.2691   -1.7495   -0.2420 C.2     1  LIG1        0.0125
     20 C           1.5099   -2.5085    0.1624 C.3     1  LIG1        0.2315
     21 H           1.4428   -2.7616    1.2281 H       1  LIG1        0.1111
     22 O           1.7961   -3.7602   -0.4875 O.3     1  LIG1       -0.4309
     23 C           2.2822   -3.6605   -1.7445 C.2     1  LIG1        0.3095
     24 C           3.3169   -4.6805   -2.1272 C.3     1  LIG1        0.0448
     25 C           4.1213   -5.2551   -0.9736 C.3     1  LIG1       -0.0458
     26 C           4.8771   -4.2198   -0.1501 C.3     1  LIG1       -0.0648
     27 O           1.9371   -2.8228   -2.5568 O.2     1  LIG1       -0.2508
     28 O           2.5784   -1.5707    0.0294 O.3     1  LIG1       -0.2971
     29 C           2.0387   -0.3735   -0.5881 C.3     1  LIG1        0.2216
     30 H           2.5885    0.3976   -0.0935 H       1  LIG1        0.1068
     31 O           2.6044   -0.2116   -1.9160 O.3     1  LIG1       -0.4341
     32 C           1.9244   -0.3543   -3.0533 C.2     1  LIG1        0.3061
     33 C           2.7248   -0.5022   -4.2539 C.3     1  LIG1        0.0333
     34 O           0.6577   -0.4178   -3.1566 O.2     1  LIG1       -0.2511
     35 C          -0.7913   -2.3147   -0.8173 C.2     1  LIG1       -0.0497
     36 C          -1.8701   -1.5605   -1.5004 C.3     1  LIG1        0.0772
     37 H          -2.7485   -1.4882   -0.8505 H       1  LIG1        0.0640
     38 O          -2.2553   -2.2186   -2.7144 O.3     1  LIG1       -0.3757
     39 C          -2.8461   -3.4917   -2.5262 C.3     1  LIG1        0.0372
     40 C          -1.4617   -0.1531   -1.9133 C.3     1  LIG1       -0.0185
     41 C          -0.4641    0.6759   -0.9884 C.3     1  LIG1       -0.0135
     42 H           0.1910    1.2723   -1.6380 H       1  LIG1        0.0319
     43 C          -1.3223    1.7677   -0.2246 C.3     1  LIG1       -0.0185
     44 C          -2.4794    2.2675   -1.0894 C.3     1  LIG1       -0.0586
     45 C          -0.5686    3.0866    0.1222 C.3     1  LIG1       -0.0282
     46 C           0.0499    3.9505   -0.9573 C.2     1  LIG1       -0.0806
     47 C          -0.2690    4.2740   -2.2278 C.2     1  LIG1       -0.0549
     48 C          -1.4360    4.0204   -3.0474 C.2     1  LIG1       -0.0662
     49 C          -2.6509    4.5562   -2.8717 C.2     1  LIG1       -0.0985
     50 C           0.7161    4.9621   -3.1113 C.3     1  LIG1       -0.0400
     51 H          -3.7488    1.3186    2.1285 H       1  LIG1        0.0234
     52 H          -3.8211    2.2032    0.7703 H       1  LIG1        0.0234
     53 H          -2.7697    2.7973    2.0788 H       1  LIG1        0.0234
     54 H          -2.0541    1.0004    5.7742 H       1  LIG1        0.0377
     55 H          -0.9670   -0.3623    5.3819 H       1  LIG1        0.0377
     56 H          -2.9395   -1.9392    5.5073 H       1  LIG1        0.0268
     57 H          -4.0039   -0.6234    5.9579 H       1  LIG1        0.0268
     58 H          -3.1258   -2.0063    7.8983 H       1  LIG1        0.0230
     59 H          -2.8748   -0.2551    8.0486 H       1  LIG1        0.0230
     60 H          -1.5217   -1.3098    7.5839 H       1  LIG1        0.0230
     61 H           3.6863    1.8704    0.3007 H       1  LIG1        0.0342
     62 H           4.3687    1.8027    1.9489 H       1  LIG1        0.0342
     63 H           3.7885    3.3219    1.2269 H       1  LIG1        0.0342
     64 H           3.9992   -4.1830   -2.8320 H       1  LIG1        0.0377
     65 H           2.8097   -5.4810   -2.6770 H       1  LIG1        0.0377
     66 H           4.8424   -5.9777   -1.3736 H       1  LIG1        0.0268
     67 H           3.4419   -5.8054   -0.3168 H       1  LIG1        0.0268
     68 H           5.6710   -3.7355   -0.7269 H       1  LIG1        0.0230
     69 H           5.3281   -4.7057    0.7202 H       1  LIG1        0.0230
     70 H           4.2217   -3.4383    0.2345 H       1  LIG1        0.0230
     71 H           2.0407   -0.5861   -5.1086 H       1  LIG1        0.0342
     72 H           3.2973   -1.4361   -4.2009 H       1  LIG1        0.0342
     73 H           3.3656    0.3723   -4.4179 H       1  LIG1        0.0342
     74 H          -0.8214   -3.3961   -0.8596 H       1  LIG1        0.0599
     75 H          -3.6735   -3.4315   -1.8157 H       1  LIG1        0.0524
     76 H          -2.1049   -4.2189   -2.1862 H       1  LIG1        0.0524
     77 H          -3.2148   -3.8439   -3.4907 H       1  LIG1        0.0524
     78 H          -2.4217    0.3283   -2.0788 H       1  LIG1        0.0296
     79 H          -1.1726   -0.1027   -2.9645 H       1  LIG1        0.0296
     80 H          -3.3954    1.6745   -1.1052 H       1  LIG1        0.0235
     81 H          -2.1311    2.2359   -2.1093 H       1  LIG1        0.0235
     82 H          -2.7801    3.2742   -0.7817 H       1  LIG1        0.0235
     83 H          -1.1740    3.7391    0.7693 H       1  LIG1        0.0313
     84 H           0.2542    2.7861    0.7435 H       1  LIG1        0.0313
     85 H           0.9931    4.3669   -0.5885 H       1  LIG1        0.0575
     86 H          -1.2768    3.3214   -3.8719 H       1  LIG1        0.0614
     87 H          -2.8645    5.1852   -2.0144 H       1  LIG1        0.0535
     88 H          -3.4794    4.2498   -3.5048 H       1  LIG1        0.0535
     89 H           1.6676    5.1470   -2.6151 H       1  LIG1        0.0277
     90 H           0.2888    5.9071   -3.4598 H       1  LIG1        0.0277
     91 H           0.9030    4.3114   -3.9756 H       1  LIG1        0.0277
@<TRIPOS>BOND
     1     2     4    1
     2     6     7    1
     3     7     8    1
     4     8     9    1
     5     9    10    1
     6     7    11    2
     7     4    12    1
     8    14    15    1
     9    15    16    1
    10    15    17    2
    11    12    18    1
    12    18    19    1
    13    19    20    1
    14    22    23    1
    15    23    24    1
    16    24    25    1
    17    25    26    1
    18    23    27    2
    19    20    28    1
    20    28    29    1
    21    18    29    1
    22    31    32    1
    23    32    33    1
    24    32    34    2
    25    19    35    2
    26    35    36    1
    27    38    39    1
    28    36    40    1
    29    40    41    1
    30    18    41    1
    31    41    43    1
    32     2    43    1
    33    45    46    1
    34    46    47    2
    35    47    48    1
    36    48    49    2
    37    47    50    1
    38    12    13    1
    39    12    14    1
    40    20    21    1
    41    20    22    1
    42    29    30    1
    43    29    31    1
    44    41    42    1
    45    43    44    1
    46    43    45    1
    47     4     6    1
    48     4     5    1
    49     2     3    1
    50     2     1    1
    51    36    38    1
    52    36    37    1
    53     1    51    1
    54     1    52    1
    55     1    53    1
    56     8    54    1
    57     8    55    1
    58     9    56    1
    59     9    57    1
    60    10    58    1
    61    10    59    1
    62    10    60    1
    63    16    61    1
    64    16    62    1
    65    16    63    1
    66    24    64    1
    67    24    65    1
    68    25    66    1
    69    25    67    1
    70    26    68    1
    71    26    69    1
    72    26    70    1
    73    33    71    1
    74    33    72    1
    75    33    73    1
    76    35    74    1
    77    39    75    1
    78    39    76    1
    79    39    77    1
    80    40    78    1
    81    40    79    1
    82    44    80    1
    83    44    81    1
    84    44    82    1
    85    45    83    1
    86    45    84    1
    87    46    85    1
    88    48    86    1
    89    49    87    1
    90    49    88    1
    91    50    89    1
    92    50    90    1
    93    50    91    1
