REMARK  Name = NuBBE_641
REMARK  19 active torsions:
REMARK  status: ('A' for Active; 'I' for Inactive)
REMARK    1  A    between atoms: C_1  and  C_2
REMARK    2  A    between atoms: C_2  and  C_3
REMARK    3  A    between atoms: C_3  and  C_4
REMARK    4  A    between atoms: C_4  and  C_5
REMARK    5  A    between atoms: C_6  and  C_7
REMARK    6  A    between atoms: C_6  and  C_20
REMARK    7  A    between atoms: C_7  and  C_8
REMARK    8  A    between atoms: C_8  and  C_9
REMARK    9  A    between atoms: C_10  and  C_11
REMARK   10  A    between atoms: C_10  and  C_14
REMARK   11  A    between atoms: C_11  and  O_12
REMARK   12  A    between atoms: C_14  and  C_15
REMARK   13  A    between atoms: C_15  and  C_16
REMARK   14  A    between atoms: C_17  and  C_18
REMARK   15  A    between atoms: C_17  and  C_19
REMARK   16  A    between atoms: C_21  and  C_22
REMARK   17  A    between atoms: C_22  and  C_23
REMARK   18  A    between atoms: C_26  and  C_27
REMARK   19  A    between atoms: C_28  and  C_29
REMARK                            x       y       z     vdW  Elec       q    Type
REMARK                         _______ _______ _______ _____ _____    ______ ____
ROOT
ATOM      1  C   LIG A   1      -1.009  -0.684   0.380  0.00  0.00    -0.027 C 
ATOM      2  C   LIG A   1       0.152  -0.355   0.986  0.00  0.00    -0.076 C 
ATOM      3  C   LIG A   1       0.706   1.033   1.042  0.00  0.00    +0.038 C 
ENDROOT
BRANCH   1   4
ATOM      4  C   LIG A   1      -2.033   0.277  -0.181  0.00  0.00    +0.031 C 
BRANCH   4   5
ATOM      5  C   LIG A   1      -1.892   0.677  -1.666  0.00  0.00    +0.034 C 
BRANCH   5   7
ATOM      6  C   LIG A   1      -4.325   1.565  -1.638  0.00  0.00    +0.038 C 
ATOM      7  C   LIG A   1      -2.926   1.690  -2.183  0.00  0.00    -0.076 C 
ATOM      8  C   LIG A   1      -2.593   2.648  -3.079  0.00  0.00    -0.023 C 
BRANCH   8   9
ATOM      9  C   LIG A   1      -3.512   3.714  -3.646  0.00  0.00    +0.066 C 
BRANCH   9  10
ATOM     10  C   LIG A   1      -3.139   4.110  -5.048  0.00  0.00    +0.007 C 
ATOM     11  C   LIG A   1      -2.257   5.077  -5.325  0.00  0.00    +0.058 C 
ATOM     12  C   LIG A   1      -1.808   5.327  -6.706  0.00  0.00    +0.183 C 
ATOM     13  C   LIG A   1      -2.683   4.843  -7.809  0.00  0.00    +0.003 C 
ATOM     14  C   LIG A   1      -2.367   5.379  -9.174  0.00  0.00    +0.048 C 
ATOM     15  C   LIG A   1      -3.702   4.009  -7.525  0.00  0.00    +0.003 C 
ATOM     16  C   LIG A   1      -4.783   3.586  -8.476  0.00  0.00    +0.048 C 
ATOM     17  C   LIG A   1      -3.792   3.390  -6.168  0.00  0.00    +0.186 C 
ATOM     18  O   LIG A   1      -4.403   2.344  -5.987  0.00  0.00    -0.287 OA
ATOM     19  O   LIG A   1      -0.773   5.950  -6.905  0.00  0.00    -0.288 OA
ENDBRANCH   9  10
ENDBRANCH   8   9
ENDBRANCH   5   7
ENDBRANCH   4   5
ENDBRANCH   1   4
BRANCH   2  20
ATOM     20  C   LIG A   1       0.892  -1.349   1.845  0.00  0.00    +0.034 C 
BRANCH  20  21
ATOM     21  C   LIG A   1       2.416  -1.209   1.976  0.00  0.00    +0.032 C 
BRANCH  21  22
ATOM     22  C   LIG A   1       3.224  -2.256   2.713  0.00  0.00    -0.016 C 
ATOM     23  C   LIG A   1       2.962  -3.193   3.649  0.00  0.00    +0.033 C 
BRANCH  23  24
ATOM     24  C   LIG A   1       1.685  -3.447   4.352  0.00  0.00    +0.333 C 
ATOM     25  O   LIG A   1       1.526  -4.288   5.253  0.00  0.00    -0.245 OA
BRANCH  24  26
ATOM     26  O   LIG A   1       0.651  -2.727   3.988  0.00  0.00    -0.477 OA
ATOM     27  H   LIG A   1      -0.134  -3.029   4.478  0.00  0.00    +0.295 HD
ENDBRANCH  24  26
ENDBRANCH  23  24
BRANCH  23  28
ATOM     28  C   LIG A   1       4.025  -4.236   3.981  0.00  0.00    +0.046 C 
BRANCH  28  29
ATOM     29  C   LIG A   1       4.954  -3.982   5.179  0.00  0.00    +0.032 C 
BRANCH  29  30
ATOM     30  C   LIG A   1       4.283  -3.836   6.516  0.00  0.00    -0.028 C 
ATOM     31  C   LIG A   1       4.470  -4.598   7.612  0.00  0.00    -0.080 C 
ATOM     32  C   LIG A   1       5.411  -5.769   7.681  0.00  0.00    +0.038 C 
ATOM     33  C   LIG A   1       3.688  -4.317   8.866  0.00  0.00    +0.038 C 
ENDBRANCH  29  30
ENDBRANCH  28  29
ENDBRANCH  23  28
ENDBRANCH  21  22
ENDBRANCH  20  21
ENDBRANCH   2  20
TORSDOF 13
