REMARK  Name = NuBBE_1248
REMARK  7 active torsions:
REMARK  status: ('A' for Active; 'I' for Inactive)
REMARK    1  A    between atoms: C_4  and  C_14
REMARK    2  A    between atoms: C_9  and  O_12
REMARK    3  A    between atoms: C_14  and  C_15
REMARK    4  A    between atoms: C_15  and  C_16
REMARK    5  A    between atoms: C_16  and  O_17
REMARK    6  A    between atoms: C_16  and  C_18
REMARK    7  A    between atoms: C_16  and  C_19
REMARK                            x       y       z     vdW  Elec       q    Type
REMARK                         _______ _______ _______ _____ _____    ______ ____
ROOT
ATOM      1  O   LIG A   1      -3.898   1.416   0.367  0.00  0.00    -0.287 OA
ATOM      2  C   LIG A   1      -2.676   1.321   0.448  0.00  0.00    +0.190 A 
ATOM      3  C   LIG A   1      -2.029  -0.013   0.441  0.00  0.00    +0.072 A 
ATOM      4  C   LIG A   1      -0.688  -0.103   0.487  0.00  0.00    +0.020 A 
ATOM      5  N   LIG A   1       0.119   1.014   0.557  0.00  0.00    -0.358 N 
ATOM      6  C   LIG A   1      -0.412   2.307   0.652  0.00  0.00    +0.051 A 
ATOM      7  C   LIG A   1       0.423   3.420   0.787  0.00  0.00    +0.030 A 
ATOM      8  C   LIG A   1      -0.120   4.708   0.854  0.00  0.00    +0.047 A 
ATOM      9  C   LIG A   1      -1.500   4.881   0.766  0.00  0.00    +0.118 A 
ATOM     10  C   LIG A   1      -2.349   3.792   0.622  0.00  0.00    +0.059 A 
ATOM     11  C   LIG A   1      -1.800   2.508   0.570  0.00  0.00    +0.048 A 
ATOM     12  H   LIG A   1       1.111   0.878   0.716  0.00  0.00    +0.166 HD
ENDROOT
BRANCH   9  13
ATOM     13  O   LIG A   1      -2.062   6.122   0.822  0.00  0.00    -0.507 OA
ATOM     14  H   LIG A   1      -1.361   6.783   0.939  0.00  0.00    +0.292 HD
ENDBRANCH   9  13
BRANCH   4  15
ATOM     15  C   LIG A   1      -0.009  -1.459   0.512  0.00  0.00    +0.056 C 
BRANCH  15  16
ATOM     16  C   LIG A   1       0.868  -1.722  -0.725  0.00  0.00    +0.040 C 
BRANCH  16  17
ATOM     17  C   LIG A   1       1.553  -3.105  -0.718  0.00  0.00    +0.061 C 
ATOM     18  C   LIG A   1       0.541  -4.253  -0.676  0.00  0.00    +0.041 C 
ATOM     19  C   LIG A   1       2.455  -3.261  -1.948  0.00  0.00    +0.041 C 
BRANCH  17  20
ATOM     20  O   LIG A   1       2.381  -3.187   0.445  0.00  0.00    -0.389 OA
ATOM     21  H   LIG A   1       2.838  -4.046   0.428  0.00  0.00    +0.210 HD
ENDBRANCH  17  20
ENDBRANCH  16  17
ENDBRANCH  15  16
ENDBRANCH   4  15
TORSDOF 5
