REMARK  Name = NuBBE_1743
REMARK  10 active torsions:
REMARK  status: ('A' for Active; 'I' for Inactive)
REMARK    1  A    between atoms: C_1  and  C_9
REMARK    2  A    between atoms: C_1  and  C_15
REMARK    3  A    between atoms: C_2  and  C_3
REMARK    4  A    between atoms: C_3  and  C_4
REMARK    5  A    between atoms: C_5  and  C_6
REMARK    6  A    between atoms: C_5  and  C_8
REMARK    7  A    between atoms: C_9  and  C_10
REMARK    8  A    between atoms: C_10  and  C_11
REMARK    9  A    between atoms: C_12  and  C_13
REMARK   10  A    between atoms: C_12  and  C_14
REMARK                            x       y       z     vdW  Elec       q    Type
REMARK                         _______ _______ _______ _____ _____    ______ ____
ROOT
ATOM      1  C   LIG A   1      -0.782   1.257   0.650  0.00  0.00    -0.076 C 
ATOM      2  C   LIG A   1       0.544   0.998   0.713  0.00  0.00    -0.024 C 
ATOM      3  C   LIG A   1      -1.360   2.648   0.682  0.00  0.00    +0.038 C 
ENDROOT
BRANCH   2   4
ATOM      4  C   LIG A   1       1.681   1.996   0.768  0.00  0.00    +0.054 C 
BRANCH   4   5
ATOM      5  C   LIG A   1       2.943   1.456   0.129  0.00  0.00    -0.020 C 
ATOM      6  C   LIG A   1       3.974   0.809   0.729  0.00  0.00    -0.055 C 
ATOM      7  C   LIG A   1       4.023   0.511   2.205  0.00  0.00    +0.043 C 
BRANCH   6   8
ATOM      8  C   LIG A   1       5.093   0.331  -0.084  0.00  0.00    -0.005 C 
ATOM      9  C   LIG A   1       6.128  -0.413   0.351  0.00  0.00    +0.008 C 
ENDBRANCH   6   8
ENDBRANCH   4   5
ENDBRANCH   2   4
BRANCH   1  10
ATOM     10  C   LIG A   1      -1.813   0.130   0.592  0.00  0.00    +0.034 C 
BRANCH  10  11
ATOM     11  C   LIG A   1      -2.724   0.206  -0.645  0.00  0.00    +0.031 C 
BRANCH  11  12
ATOM     12  C   LIG A   1      -3.755  -0.894  -0.721  0.00  0.00    -0.028 C 
ATOM     13  C   LIG A   1      -3.684  -2.049  -1.413  0.00  0.00    -0.080 C 
ATOM     14  C   LIG A   1      -2.483  -2.526  -2.182  0.00  0.00    +0.038 C 
ATOM     15  C   LIG A   1      -4.859  -2.993  -1.472  0.00  0.00    +0.038 C 
ENDBRANCH  11  12
ENDBRANCH  10  11
ENDBRANCH   1  10
TORSDOF 6
