REMARK  Name = NuBBE_2144
REMARK  14 active torsions:
REMARK  status: ('A' for Active; 'I' for Inactive)
REMARK    1  A    between atoms: O_1  and  C_2
REMARK    2  A    between atoms: C_2  and  C_3
REMARK    3  A    between atoms: C_3  and  C_4
REMARK    4  A    between atoms: C_4  and  C_5
REMARK    5  A    between atoms: C_5  and  C_6
REMARK    6  A    between atoms: C_6  and  C_7
REMARK    7  A    between atoms: C_7  and  C_8
REMARK    8  A    between atoms: C_8  and  C_9
REMARK    9  A    between atoms: C_9  and  C_10
REMARK   10  A    between atoms: C_10  and  C_11
REMARK   11  A    between atoms: C_11  and  C_12
REMARK   12  A    between atoms: C_12  and  C_13
REMARK   13  A    between atoms: C_13  and  C_14
REMARK   14  A    between atoms: C_14  and  C_15
REMARK                            x       y       z     vdW  Elec       q    Type
REMARK                         _______ _______ _______ _____ _____    ______ ____
ROOT
ATOM      1  C   LIG A   1      -0.476  -0.840   2.735  0.00  0.00    -0.000 C 
ENDROOT
BRANCH   1   2
ATOM      2  C   LIG A   1      -1.741  -1.121   3.556  0.00  0.00    +0.000 C 
BRANCH   2   3
ATOM      3  C   LIG A   1      -2.996  -1.499   2.758  0.00  0.00    +0.000 C 
BRANCH   3   4
ATOM      4  C   LIG A   1      -2.794  -2.727   1.872  0.00  0.00    +0.011 C 
BRANCH   4   5
ATOM      5  C   LIG A   1      -4.012  -3.034   1.006  0.00  0.00    +0.120 C 
BRANCH   5   6
ATOM      6  C   LIG A   1      -3.800  -4.237   0.127  0.00  0.00    +0.305 C 
ATOM      7  O   LIG A   1      -4.306  -4.403  -0.974  0.00  0.00    -0.251 OA
BRANCH   6   8
ATOM      8  O   LIG A   1      -3.041  -5.201   0.671  0.00  0.00    -0.481 OA
ATOM      9  H   LIG A   1      -3.015  -5.909  -0.008  0.00  0.00    +0.295 HD
ENDBRANCH   6   8
ENDBRANCH   5   6
ENDBRANCH   4   5
ENDBRANCH   3   4
ENDBRANCH   2   3
ENDBRANCH   1   2
BRANCH   1  10
ATOM     10  C   LIG A   1      -0.595   0.358   1.789  0.00  0.00    -0.000 C 
BRANCH  10  11
ATOM     11  C   LIG A   1       0.690   0.538   0.975  0.00  0.00    -0.000 C 
BRANCH  11  12
ATOM     12  C   LIG A   1       0.613   1.746   0.032  0.00  0.00    -0.000 C 
BRANCH  12  13
ATOM     13  C   LIG A   1       1.876   1.857  -0.827  0.00  0.00    -0.000 C 
BRANCH  13  14
ATOM     14  C   LIG A   1       1.808   3.034  -1.808  0.00  0.00    -0.000 C 
BRANCH  14  15
ATOM     15  C   LIG A   1       3.058   3.169  -2.690  0.00  0.00    -0.000 C 
BRANCH  15  16
ATOM     16  C   LIG A   1       3.288   1.965  -3.606  0.00  0.00    -0.003 C 
ATOM     17  C   LIG A   1       4.524   2.134  -4.477  0.00  0.00    +0.004 C 
ENDBRANCH  15  16
ENDBRANCH  14  15
ENDBRANCH  13  14
ENDBRANCH  12  13
ENDBRANCH  11  12
ENDBRANCH  10  11
ENDBRANCH   1  10
TORSDOF 13
