@<TRIPOS>MOLECULE
NuBBE_82
 55 58 0 0 0
SMALL
GASTEIGER

@<TRIPOS>ATOM
      1 C          -0.6911   -0.2430   -3.9699 C.3     1  LIG1       -0.0594
      2 C           0.5392   -0.4508   -3.1038 C.3     1  LIG1       -0.0081
      3 H           1.3706   -0.7202   -3.7724 H       1  LIG1        0.0330
      4 C           0.9566    0.7846   -2.3178 C.3     1  LIG1       -0.0081
      5 H           0.0688    1.1617   -1.7971 H       1  LIG1        0.0330
      6 C           1.5313    1.9007   -3.1826 C.3     1  LIG1       -0.0594
      7 C           1.9684    0.1946   -1.3227 C.3     1  LIG1        0.0875
      8 H           2.9518    0.1108   -1.8033 H       1  LIG1        0.0649
      9 C           2.1578    0.9219    0.0103 C.ar    1  LIG1       -0.0115
     10 C           1.4425    2.0984    0.3414 C.ar    1  LIG1       -0.0104
     11 C           1.5917    2.7496    1.5714 C.ar    1  LIG1        0.1657
     12 O           0.8319    3.8666    1.7392 O.3     1  LIG1       -0.4913
     13 C           0.5071    4.2091    3.0820 C.3     1  LIG1        0.0790
     14 C           2.5086    2.2179    2.4606 C.ar    1  LIG1        0.2075
     15 O           2.8369    2.6998    3.6859 O.3     1  LIG1       -0.4489
     16 C           3.8379    1.7445    4.1112 C.3     1  LIG1        0.2334
     17 O           4.0955    0.7292    3.1399 O.3     1  LIG1       -0.4525
     18 C           3.2323    1.0876    2.1448 C.ar    1  LIG1        0.1702
     19 C           3.0819    0.4251    0.9444 C.ar    1  LIG1       -0.0103
     20 O           1.5220   -1.1603   -1.0701 O.3     1  LIG1       -0.3636
     21 C           0.4790   -1.5285   -2.0160 C.3     1  LIG1        0.0875
     22 H           0.7843   -2.4923   -2.4421 H       1  LIG1        0.0649
     23 C          -0.8227   -1.7645   -1.2614 C.ar    1  LIG1       -0.0115
     24 C          -1.7989   -2.6596   -1.7430 C.ar    1  LIG1       -0.0104
     25 C          -2.9463   -2.9853   -0.9916 C.ar    1  LIG1        0.1653
     26 O          -3.7814   -3.8811   -1.6091 O.3     1  LIG1       -0.4913
     27 C          -5.0217   -4.1707   -0.9709 C.3     1  LIG1        0.0790
     28 C          -3.0958   -2.4153    0.2748 C.ar    1  LIG1        0.2010
     29 O          -4.1216   -2.7630    1.1185 O.3     1  LIG1       -0.5009
     30 C          -2.1542   -1.4992    0.7617 C.ar    1  LIG1        0.1653
     31 O          -2.4242   -0.9778    2.0047 O.3     1  LIG1       -0.4913
     32 C          -1.2846   -0.5644    2.7539 C.3     1  LIG1        0.0790
     33 C          -1.0443   -1.1686   -0.0126 C.ar    1  LIG1       -0.0104
     34 H          -0.4421    0.3956   -4.8258 H       1  LIG1        0.0233
     35 H          -1.4999    0.2496   -3.4210 H       1  LIG1        0.0233
     36 H          -1.0611   -1.1912   -4.3689 H       1  LIG1        0.0233
     37 H           2.3594    1.5415   -3.8025 H       1  LIG1        0.0233
     38 H           1.9048    2.7285   -2.5717 H       1  LIG1        0.0233
     39 H           0.7634    2.3043   -3.8503 H       1  LIG1        0.0233
     40 H           0.7258    2.5402   -0.3535 H       1  LIG1        0.0659
     41 H          -0.1859    5.0500    3.0554 H       1  LIG1        0.0660
     42 H           1.3860    4.5408    3.6419 H       1  LIG1        0.0660
     43 H           0.0052    3.3719    3.5843 H       1  LIG1        0.0660
     44 H           3.4871    1.2785    5.0395 H       1  LIG1        0.1166
     45 H           4.7638    2.2921    4.3236 H       1  LIG1        0.1166
     46 H           3.6611   -0.4680    0.7304 H       1  LIG1        0.0659
     47 H          -1.6604   -3.1472   -2.7070 H       1  LIG1        0.0659
     48 H          -5.6139   -4.7920   -1.6501 H       1  LIG1        0.0660
     49 H          -5.6027   -3.2611   -0.7828 H       1  LIG1        0.0660
     50 H          -4.8672   -4.7547   -0.0574 H       1  LIG1        0.0660
     51 H          -3.9137   -2.3247    1.9667 H       1  LIG1        0.2924
     52 H          -1.6442   -0.1236    3.6878 H       1  LIG1        0.0660
     53 H          -0.7040    0.2099    2.2457 H       1  LIG1        0.0660
     54 H          -0.6613   -1.4304    2.9995 H       1  LIG1        0.0660
     55 H          -0.3096   -0.4673    0.3580 H       1  LIG1        0.0659
@<TRIPOS>BOND
     1     1     2    1
     2     2     3    1
     3     2     4    1
     4     4     7    1
     5     9    10   ar
     6    10    11   ar
     7    11    12    1
     8    12    13    1
     9    11    14   ar
    10    14    15    1
    11    15    16    1
    12    16    17    1
    13    14    18   ar
    14    17    18    1
    15    18    19   ar
    16     9    19   ar
    17     7    20    1
    18    20    21    1
    19     2    21    1
    20    23    24   ar
    21    24    25   ar
    22    25    26    1
    23    26    27    1
    24    25    28   ar
    25    28    29    1
    26    28    30   ar
    27    30    31    1
    28    31    32    1
    29    30    33   ar
    30    23    33   ar
    31     7     9    1
    32     7     8    1
    33     4     6    1
    34     4     5    1
    35    21    23    1
    36    21    22    1
    37     1    34    1
    38     1    35    1
    39     1    36    1
    40     6    37    1
    41     6    38    1
    42     6    39    1
    43    10    40    1
    44    13    41    1
    45    13    42    1
    46    13    43    1
    47    16    44    1
    48    16    45    1
    49    19    46    1
    50    24    47    1
    51    27    48    1
    52    27    49    1
    53    27    50    1
    54    29    51    1
    55    32    52    1
    56    32    53    1
    57    32    54    1
    58    33    55    1
