@<TRIPOS>MOLECULE
NuBBE_1911
 30 33 0 0 0
SMALL
GASTEIGER

@<TRIPOS>ATOM
      1 C          -0.7168    3.0427    0.9440 C.3     1  LIG1        0.0791
      2 O           0.1197    2.8321   -0.1923 O.3     1  LIG1       -0.4884
      3 C           0.7888    1.6410   -0.1335 C.ar    1  LIG1        0.2087
      4 C           2.1731    1.6709   -0.1282 C.ar    1  LIG1        0.2113
      5 O           2.9584    2.7847   -0.1256 O.3     1  LIG1       -0.4488
      6 C           4.2746    2.1993   -0.1236 C.3     1  LIG1        0.2334
      7 O           4.2571    0.7576   -0.0926 O.3     1  LIG1       -0.4524
      8 C           2.9194    0.5150   -0.1069 C.ar    1  LIG1        0.1708
      9 C           2.3324   -0.7305   -0.1013 C.ar    1  LIG1       -0.0015
     10 C           0.9328   -0.7825   -0.1302 C.ar    1  LIG1        0.0719
     11 C           0.1544    0.3889   -0.1552 C.ar    1  LIG1        0.1845
     12 O          -1.2192    0.3717   -0.2227 O.2     1  LIG1       -0.4508
     13 C          -1.8659   -0.8374   -0.2317 C.ar    1  LIG1        0.1394
     14 C          -3.2605   -0.7958   -0.2821 C.ar    1  LIG1       -0.0186
     15 C          -3.9966   -1.9829   -0.2922 C.ar    1  LIG1       -0.0582
     16 C          -3.3407   -3.2141   -0.2529 C.ar    1  LIG1       -0.0609
     17 C          -1.9472   -3.2599   -0.2038 C.ar    1  LIG1       -0.0474
     18 C          -1.2168   -2.0676   -0.1935 C.ar    1  LIG1        0.0646
     19 C           0.2504   -2.0854   -0.1425 C.ar    1  LIG1        0.2004
     20 O           0.8773   -3.1359   -0.1079 O.2     1  LIG1       -0.2864
     21 H          -0.7768    4.1213    1.1189 H       1  LIG1        0.0660
     22 H          -0.3212    2.5759    1.8538 H       1  LIG1        0.0660
     23 H          -1.7289    2.6815    0.7394 H       1  LIG1        0.0660
     24 H           4.8064    2.5250   -1.0250 H       1  LIG1        0.1166
     25 H           4.8187    2.5618    0.7560 H       1  LIG1        0.1166
     26 H           2.9345   -1.6334   -0.0850 H       1  LIG1        0.0664
     27 H          -3.7763    0.1607   -0.3151 H       1  LIG1        0.0654
     28 H          -5.0830   -1.9477   -0.3321 H       1  LIG1        0.0619
     29 H          -3.9141   -4.1382   -0.2618 H       1  LIG1        0.0618
     30 H          -1.4341   -4.2188   -0.1745 H       1  LIG1        0.0626
@<TRIPOS>BOND
     1     1     2    1
     2     2     3    1
     3     3     4   ar
     4     4     5    1
     5     5     6    1
     6     6     7    1
     7     4     8   ar
     8     7     8    1
     9     8     9   ar
    10     9    10   ar
    11    10    11   ar
    12     3    11   ar
    13    11    12   ar
    14    12    13   ar
    15    13    14   ar
    16    14    15   ar
    17    15    16   ar
    18    16    17   ar
    19    17    18   ar
    20    13    18   ar
    21    18    19   ar
    22    10    19   ar
    23    19    20    2
    24     1    21    1
    25     1    22    1
    26     1    23    1
    27     6    24    1
    28     6    25    1
    29     9    26    1
    30    14    27    1
    31    15    28    1
    32    16    29    1
    33    17    30    1
