@<TRIPOS>MOLECULE
NuBBE_1258
 36 40 0 0 0
SMALL
GASTEIGER

@<TRIPOS>ATOM
      1 O          -3.5919    2.0420   -0.2683 O.2     1  LIG1       -0.2669
      2 C          -2.3626    1.9647   -0.2574 C.ar    1  LIG1        0.2621
      3 C          -1.5534    3.1980   -0.3015 C.ar    1  LIG1        0.0649
      4 C          -0.1790    3.0797   -0.0950 C.ar    1  LIG1        0.0786
      5 C           0.5935    4.2393   -0.0051 C.ar    1  LIG1       -0.0355
      6 C           0.0027    5.4976   -0.1355 C.ar    1  LIG1       -0.0597
      7 C          -1.3642    5.6037   -0.3923 C.ar    1  LIG1       -0.0609
      8 C          -2.1481    4.4528   -0.4762 C.ar    1  LIG1       -0.0474
      9 N           0.4583    1.8422    0.0328 N.ar    1  LIG1       -0.2272
     10 C          -0.2783    0.7827   -0.0086 C.ar    1  LIG1        0.1607
     11 C           0.3514   -0.5029    0.0772 C.ar    1  LIG1        0.0867
     12 C          -0.2835   -1.7108   -0.1232 C.ar    1  LIG1       -0.0097
     13 C           0.6815   -2.7403    0.0419 C.ar    1  LIG1        0.0038
     14 C           0.6521   -4.1472   -0.0293 C.ar    1  LIG1       -0.0489
     15 C           1.8308   -4.8732    0.1917 C.ar    1  LIG1       -0.0195
     16 C           3.0190   -4.2077    0.4746 C.ar    1  LIG1        0.1188
     17 O           4.1790   -4.8955    0.6927 O.3     1  LIG1       -0.5067
     18 C           3.0839   -2.8185    0.5474 C.ar    1  LIG1        0.0037
     19 C           1.8980   -2.1103    0.3275 C.ar    1  LIG1        0.0507
     20 N           1.6699   -0.7535    0.3308 N.ar    1  LIG1       -0.3514
     21 H           2.3651   -0.0368    0.4923 H       1  LIG1        0.1660
     22 C          -1.7287   -1.7410   -0.4720 C.3     1  LIG1       -0.0068
     23 C          -2.4150   -0.4732    0.0763 C.3     1  LIG1        0.0322
     24 N          -1.6604    0.7748   -0.1545 N.ar    1  LIG1       -0.2908
     25 H           1.6614    4.1567    0.1806 H       1  LIG1        0.0639
     26 H           0.6115    6.3928   -0.0347 H       1  LIG1        0.0618
     27 H          -1.8207    6.5835   -0.5100 H       1  LIG1        0.0618
     28 H          -3.2171    4.5338   -0.6597 H       1  LIG1        0.0626
     29 H          -0.2740   -4.6681   -0.2526 H       1  LIG1        0.0625
     30 H           1.7966   -5.9567    0.1360 H       1  LIG1        0.0654
     31 H           3.9932   -5.8454    0.6185 H       1  LIG1        0.2921
     32 H           4.0189   -2.3139    0.7648 H       1  LIG1        0.0675
     33 H          -2.2188   -2.6359   -0.0750 H       1  LIG1        0.0331
     34 H          -1.8256   -1.7595   -1.5643 H       1  LIG1        0.0331
     35 H          -2.5189   -0.5632    1.1666 H       1  LIG1        0.0496
     36 H          -3.4264   -0.3907   -0.3364 H       1  LIG1        0.0496
@<TRIPOS>BOND
     1     1     2    2
     2     2     3   ar
     3     3     4   ar
     4     4     5   ar
     5     5     6   ar
     6     6     7   ar
     7     7     8   ar
     8     3     8   ar
     9     4     9   ar
    10     9    10   ar
    11    10    11    1
    12    11    12   ar
    13    12    13   ar
    14    13    14   ar
    15    14    15   ar
    16    15    16   ar
    17    16    17    1
    18    16    18   ar
    19    18    19   ar
    20    13    19   ar
    21    19    20   ar
    22    11    20   ar
    23    20    21    1
    24    12    22    1
    25    22    23    1
    26    23    24    1
    27    10    24   ar
    28     2    24   ar
    29     5    25    1
    30     6    26    1
    31     7    27    1
    32     8    28    1
    33    14    29    1
    34    15    30    1
    35    17    31    1
    36    18    32    1
    37    22    33    1
    38    22    34    1
    39    23    35    1
    40    23    36    1
