REMARK  Name = NuBBE_440
REMARK  5 active torsions:
REMARK  status: ('A' for Active; 'I' for Inactive)
REMARK    1  A    between atoms: C_5  and  O_6
REMARK    2  A    between atoms: C_14  and  O_16
REMARK    3  A    between atoms: C_17  and  C_19
REMARK    4  A    between atoms: C_19  and  O_20
REMARK    5  A    between atoms: O_20  and  C_21
REMARK                            x       y       z     vdW  Elec       q    Type
REMARK                         _______ _______ _______ _____ _____    ______ ____
ROOT
ATOM      1  C   LIG A   1      -1.242  -0.311  -0.432  0.00  0.00    +0.041 C 
ATOM      2  C   LIG A   1      -1.029  -1.456  -1.399  0.00  0.00    -0.023 C 
ATOM      3  C   LIG A   1      -0.451  -2.531  -0.808  0.00  0.00    +0.006 C 
ATOM      4  C   LIG A   1       0.122  -2.175   0.522  0.00  0.00    +0.115 C 
ATOM      5  C   LIG A   1      -0.804  -1.024   0.800  0.00  0.00    +0.091 C 
ATOM      6  C   LIG A   1      -0.059  -0.331   1.868  0.00  0.00    +0.260 C 
ATOM      7  O   LIG A   1      -0.020  -1.421   2.824  0.00  0.00    -0.348 OA
ATOM      8  C   LIG A   1       0.074  -2.677   1.981  0.00  0.00    +0.202 C 
ATOM      9  O   LIG A   1      -0.798   0.848   2.119  0.00  0.00    -0.322 OA
ATOM     10  C   LIG A   1      -0.672   1.746   0.992  0.00  0.00    +0.264 C 
ATOM     11  C   LIG A   1      -0.704   1.119  -0.446  0.00  0.00    +0.161 C 
ENDROOT
BRANCH   4  12
ATOM     12  O   LIG A   1       1.492  -1.857   0.261  0.00  0.00    -0.382 OA
ATOM     13  H   LIG A   1       1.549  -1.212  -0.474  0.00  0.00    +0.211 HD
ENDBRANCH   4  12
BRANCH  10  14
ATOM     14  O   LIG A   1      -1.771   2.643   1.096  0.00  0.00    -0.366 OA
ATOM     15  H   LIG A   1      -1.756   2.932   2.026  0.00  0.00    +0.212 HD
ENDBRANCH  10  14
BRANCH  11  16
ATOM     16  C   LIG A   1       0.655   1.251  -1.085  0.00  0.00    +0.315 C 
ATOM     17  O   LIG A   1       1.548   0.421  -1.001  0.00  0.00    -0.250 OA
BRANCH  16  18
ATOM     18  O   LIG A   1       0.750   2.426  -1.766  0.00  0.00    -0.468 OA
ATOM     19  C   LIG A   1       1.984   2.606  -2.466  0.00  0.00    +0.280 C 
ENDBRANCH  16  18
ENDBRANCH  11  16
TORSDOF 4
