@<TRIPOS>MOLECULE
NuBBE_600
 27 30 0 0 0
SMALL
GASTEIGER

@<TRIPOS>ATOM
      1 C          -1.1012    2.8204   -1.0121 C.3     1  LIG1        0.0788
      2 O           0.0614    2.0481   -1.3172 O.3     1  LIG1       -0.4937
      3 C           0.3943    1.2509   -0.2413 C.ar    1  LIG1        0.1417
      4 C           1.1334    1.7622    0.8351 C.ar    1  LIG1        0.0820
      5 C           1.4462    0.8756    1.8574 C.ar    1  LIG1        0.2311
      6 O           2.1516    1.5222    2.8286 O.2     1  LIG1       -0.4449
      7 C           2.3034    2.8103    2.4257 C.ar    1  LIG1        0.0952
      8 C           1.6995    3.0104    1.2065 C.ar    1  LIG1       -0.0109
      9 N           1.1312   -0.4260    1.9295 N.ar    1  LIG1       -0.2117
     10 C           0.4645   -0.9049    0.8751 C.ar    1  LIG1        0.0820
     11 C           0.1453   -2.2558    0.8965 C.ar    1  LIG1        0.0101
     12 C          -0.5347   -2.8118   -0.1666 C.ar    1  LIG1        0.1683
     13 C          -0.9071   -2.0654   -1.2521 C.ar    1  LIG1        0.1670
     14 O          -1.5635   -2.7974   -2.1891 O.3     1  LIG1       -0.4526
     15 C          -1.5563   -4.1007   -1.5691 C.3     1  LIG1        0.2332
     16 O          -0.9088   -4.1143   -0.2797 O.3     1  LIG1       -0.4525
     17 C          -0.6201   -0.7232   -1.3273 C.ar    1  LIG1       -0.0034
     18 C           0.0715   -0.1215   -0.2519 C.ar    1  LIG1        0.0465
     19 H          -1.3970    3.3517   -1.9217 H       1  LIG1        0.0660
     20 H          -0.8898    3.5662   -0.2391 H       1  LIG1        0.0660
     21 H          -1.9371    2.1812   -0.7063 H       1  LIG1        0.0660
     22 H           2.8572    3.4466    3.1023 H       1  LIG1        0.1030
     23 H           1.6712    3.9365    0.6503 H       1  LIG1        0.0657
     24 H           0.4327   -2.8712    1.7431 H       1  LIG1        0.0677
     25 H          -1.0354   -4.8019   -2.2314 H       1  LIG1        0.1166
     26 H          -2.5924   -4.4360   -1.4452 H       1  LIG1        0.1166
     27 H          -0.9201   -0.1522   -2.2001 H       1  LIG1        0.0663
@<TRIPOS>BOND
     1     1     2    1
     2     2     3    1
     3     3     4   ar
     4     4     5   ar
     5     5     6   ar
     6     6     7   ar
     7     7     8   ar
     8     4     8   ar
     9     5     9   ar
    10     9    10   ar
    11    10    11   ar
    12    11    12   ar
    13    12    13   ar
    14    13    14    1
    15    14    15    1
    16    15    16    1
    17    12    16    1
    18    13    17   ar
    19    17    18   ar
    20    10    18   ar
    21     3    18   ar
    22     1    19    1
    23     1    20    1
    24     1    21    1
    25     7    22    1
    26     8    23    1
    27    11    24    1
    28    15    25    1
    29    15    26    1
    30    17    27    1
