REMARK  Name = NuBBE_386
REMARK  11 active torsions:
REMARK  status: ('A' for Active; 'I' for Inactive)
REMARK    1  A    between atoms: C_1  and  C_2
REMARK    2  A    between atoms: C_3  and  C_41
REMARK    3  A    between atoms: C_8  and  C_9
REMARK    4  A    between atoms: C_8  and  C_40
REMARK    5  A    between atoms: C_10  and  O_39
REMARK    6  A    between atoms: C_12  and  O_38
REMARK    7  A    between atoms: C_15  and  C_37
REMARK    8  A    between atoms: C_23  and  C_24
REMARK    9  A    between atoms: C_24  and  O_25
REMARK   10  A    between atoms: C_31  and  C_36
REMARK   11  A    between atoms: C_33  and  C_35
REMARK                            x       y       z     vdW  Elec       q    Type
REMARK                         _______ _______ _______ _____ _____    ______ ____
ROOT
ATOM      1  C   LIG A   1       2.046  -2.236   1.288  0.00  0.00    +0.016 C 
ATOM      2  C   LIG A   1       1.056  -1.169   0.710  0.00  0.00    -0.005 C 
ATOM      3  C   LIG A   1       1.187   0.200   1.590  0.00  0.00    -0.019 C 
ATOM      4  C   LIG A   1       0.424   0.118   2.943  0.00  0.00    +0.008 C 
ATOM      5  C   LIG A   1      -1.027   0.600   2.941  0.00  0.00    +0.005 C 
ATOM      6  C   LIG A   1      -1.131   2.032   2.392  0.00  0.00    +0.003 C 
ATOM      7  C   LIG A   1      -2.476   2.777   2.742  0.00  0.00    -0.003 C 
ATOM      8  C   LIG A   1      -3.734   2.098   2.165  0.00  0.00    +0.014 C 
ATOM      9  C   LIG A   1      -2.391   4.243   2.228  0.00  0.00    +0.149 C 
ATOM     10  C   LIG A   1      -1.980   4.339   0.752  0.00  0.00    +0.144 C 
ATOM     11  C   LIG A   1      -0.670   3.596   0.461  0.00  0.00    +0.041 C 
ATOM     12  C   LIG A   1      -0.672   2.089   0.887  0.00  0.00    -0.023 C 
ATOM     13  C   LIG A   1       0.822   1.536   0.823  0.00  0.00    +0.006 C 
ATOM     14  C   LIG A   1       1.489   1.579  -0.568  0.00  0.00    +0.031 C 
ATOM     15  C   LIG A   1       1.552   0.283  -1.303  0.00  0.00    -0.026 C 
ATOM     16  C   LIG A   1       1.361  -0.943  -0.785  0.00  0.00    -0.063 C 
ATOM     17  C   LIG A   1       1.292  -2.204  -1.673  0.00  0.00    +0.035 C 
ATOM     18  C   LIG A   1      -0.180  -2.711  -1.671  0.00  0.00    +0.074 C 
ATOM     19  C   LIG A   1      -0.585  -3.008  -0.195  0.00  0.00    +0.019 C 
ATOM     20  C   LIG A   1      -0.356  -1.821   0.764  0.00  0.00    +0.012 C 
ATOM     21  C   LIG A   1      -0.312  -4.018  -2.478  0.00  0.00    +0.019 C 
ATOM     22  C   LIG A   1       0.275  -3.913  -3.880  0.00  0.00    +0.004 C 
ATOM     23  C   LIG A   1       1.752  -3.506  -3.851  0.00  0.00    -0.011 C 
ATOM     24  C   LIG A   1       1.976  -2.171  -3.083  0.00  0.00    -0.003 C 
ATOM     25  C   LIG A   1       3.489  -1.903  -2.941  0.00  0.00    +0.008 C 
ATOM     26  C   LIG A   1       2.277  -3.447  -5.291  0.00  0.00    +0.008 C 
ATOM     27  C   LIG A   1      -1.606   1.342  -0.087  0.00  0.00    +0.012 C 
ATOM     28  C   LIG A   1      -2.675   2.808   4.282  0.00  0.00    +0.014 C 
ATOM     29  C   LIG A   1       2.703   0.386   1.993  0.00  0.00    +0.012 C 
ENDROOT
BRANCH  18  30
ATOM     30  C   LIG A   1      -1.211  -1.724  -2.236  0.00  0.00    +0.311 C 
ATOM     31  O   LIG A   1      -2.385  -1.644  -1.901  0.00  0.00    -0.250 OA
BRANCH  30  32
ATOM     32  O   LIG A   1      -0.777  -0.954  -3.247  0.00  0.00    -0.480 OA
ATOM     33  H   LIG A   1      -1.560  -0.415  -3.482  0.00  0.00    +0.295 HD
ENDBRANCH  30  32
ENDBRANCH  18  30
BRANCH  10  34
ATOM     34  O   LIG A   1      -1.787   5.721   0.421  0.00  0.00    -0.389 OA
ATOM     35  H   LIG A   1      -1.270   6.082   1.170  0.00  0.00    +0.210 HD
ENDBRANCH  10  34
BRANCH   9  36
ATOM     36  O   LIG A   1      -1.417   5.001   2.974  0.00  0.00    -0.389 OA
ATOM     37  H   LIG A   1      -1.800   5.181   3.851  0.00  0.00    +0.210 HD
ENDBRANCH   9  36
TORSDOF 4
