REMARK  Name = NuBBE_2359
REMARK  8 active torsions:
REMARK  status: ('A' for Active; 'I' for Inactive)
REMARK    1  A    between atoms: C_1  and  C_2
REMARK    2  A    between atoms: C_2  and  C_3
REMARK    3  A    between atoms: C_2  and  C_4
REMARK    4  A    between atoms: C_5  and  O_6
REMARK    5  A    between atoms: C_15  and  C_16
REMARK    6  A    between atoms: C_20  and  C_21
REMARK    7  A    between atoms: C_20  and  C_24
REMARK    8  A    between atoms: C_21  and  O_22
REMARK                            x       y       z     vdW  Elec       q    Type
REMARK                         _______ _______ _______ _____ _____    ______ ____
ROOT
ATOM      1  C   LIG A   1      -1.234  -0.730  -2.381  0.00  0.00    +0.000 A 
ATOM      2  C   LIG A   1      -1.580  -2.092  -2.416  0.00  0.00    +0.120 A 
ATOM      3  C   LIG A   1      -1.361  -2.932  -1.331  0.00  0.00    +0.046 A 
ATOM      4  C   LIG A   1      -0.824  -2.422  -0.155  0.00  0.00    +0.008 A 
ATOM      5  C   LIG A   1      -0.463  -1.067  -0.035  0.00  0.00    -0.037 A 
ATOM      6  C   LIG A   1      -0.634  -0.228  -1.176  0.00  0.00    -0.037 A 
ATOM      7  C   LIG A   1      -0.190   1.211  -1.076  0.00  0.00    +0.036 C 
ATOM      8  C   LIG A   1       0.934   1.386  -0.071  0.00  0.00    +0.010 C 
ATOM      9  C   LIG A   1       0.504   0.959   1.341  0.00  0.00    +0.016 C 
ATOM     10  C   LIG A   1       0.024  -0.544   1.354  0.00  0.00    -0.003 C 
ATOM     11  C   LIG A   1      -1.217  -0.661   2.289  0.00  0.00    +0.016 C 
ATOM     12  C   LIG A   1       1.165  -1.439   1.907  0.00  0.00    +0.012 C 
ATOM     13  C   LIG A   1       1.675  -1.054   3.297  0.00  0.00    +0.002 C 
ATOM     14  C   LIG A   1       1.549   0.424   3.638  0.00  0.00    +0.018 C 
ATOM     15  C   LIG A   1       1.611   1.353   2.410  0.00  0.00    +0.068 C 
ATOM     16  C   LIG A   1       3.057   1.333   1.862  0.00  0.00    +0.023 C 
ENDROOT
BRANCH   1  18
ATOM     17  C   LIG A   1      -0.775  -0.357  -4.877  0.00  0.00    +0.012 C 
ATOM     18  C   LIG A   1      -1.488   0.153  -3.615  0.00  0.00    +0.017 C 
ATOM     19  C   LIG A   1      -2.976   0.382  -3.919  0.00  0.00    +0.012 C 
ENDBRANCH   1  18
BRANCH   2  20
ATOM     20  O   LIG A   1      -2.152  -2.625  -3.538  0.00  0.00    -0.506 OA
ATOM     21  H   LIG A   1      -2.155  -3.592  -3.459  0.00  0.00    +0.292 HD
ENDBRANCH   2  20
BRANCH  15  22
ATOM     22  C   LIG A   1       1.379   2.780   2.938  0.00  0.00    +0.311 C 
ATOM     23  O   LIG A   1       1.712   3.208   4.027  0.00  0.00    -0.250 OA
BRANCH  22  24
ATOM     24  O   LIG A   1       0.797   3.615   2.055  0.00  0.00    -0.480 OA
ATOM     25  H   LIG A   1       0.733   4.465   2.539  0.00  0.00    +0.295 HD
ENDBRANCH  22  24
ENDBRANCH  15  22
TORSDOF 4
