REMARK  Name = NuBBE_1816
REMARK  9 active torsions:
REMARK  status: ('A' for Active; 'I' for Inactive)
REMARK    1  A    between atoms: O_1  and  C_2
REMARK    2  A    between atoms: C_4  and  O_5
REMARK    3  A    between atoms: O_5  and  C_6
REMARK    4  A    between atoms: C_9  and  C_10
REMARK    5  A    between atoms: C_10  and  C_11
REMARK    6  A    between atoms: C_16  and  O_17
REMARK    7  A    between atoms: O_17  and  C_18
REMARK    8  A    between atoms: C_19  and  O_20
REMARK    9  A    between atoms: O_20  and  C_21
REMARK                            x       y       z     vdW  Elec       q    Type
REMARK                         _______ _______ _______ _____ _____    ______ ____
ROOT
ATOM      1  C   LIG A   1      -0.387   0.825  -0.634  0.00  0.00    +0.169 C 
ATOM      2  C   LIG A   1       0.914   0.876  -0.962  0.00  0.00    +0.058 C 
ATOM      3  C   LIG A   1       1.743  -0.317  -0.879  0.00  0.00    -0.011 A 
ATOM      4  C   LIG A   1       1.142  -1.524  -0.526  0.00  0.00    +0.001 A 
ATOM      5  C   LIG A   1       1.927  -2.681  -0.429  0.00  0.00    +0.057 A 
ATOM      6  C   LIG A   1       3.304  -2.641  -0.695  0.00  0.00    +0.162 A 
ATOM      7  C   LIG A   1       3.893  -1.435  -1.106  0.00  0.00    +0.162 A 
ATOM      8  C   LIG A   1       3.109  -0.276  -1.178  0.00  0.00    +0.057 A 
ATOM      9  C   LIG A   1      -0.354  -1.576  -0.367  0.00  0.00    +0.265 C 
ATOM     10  O   LIG A   1      -1.042  -0.327  -0.242  0.00  0.00    -0.483 OA
ENDROOT
BRANCH   1  11
ATOM     11  C   LIG A   1      -1.176   2.095  -0.718  0.00  0.00    +0.231 C 
ATOM     12  O   LIG A   1      -0.768   3.080  -1.364  0.00  0.00    -0.283 OA
BRANCH  11  18
ATOM     13  C   LIG A   1      -2.748   1.671   1.199  0.00  0.00    +0.131 A 
ATOM     14  C   LIG A   1      -4.027   1.727   1.742  0.00  0.00    +0.091 A 
ATOM     15  C   LIG A   1      -5.088   2.287   1.035  0.00  0.00    +0.124 A 
ATOM     16  C   LIG A   1      -4.844   2.853  -0.220  0.00  0.00    +0.046 A 
ATOM     17  C   LIG A   1      -3.558   2.787  -0.778  0.00  0.00    +0.019 A 
ATOM     18  C   LIG A   1      -2.509   2.164  -0.080  0.00  0.00    +0.067 A 
BRANCH  13  19
ATOM     19  O   LIG A   1      -1.747   1.162   1.976  0.00  0.00    -0.506 OA
ATOM     20  H   LIG A   1      -2.125   0.839   2.812  0.00  0.00    +0.292 HD
ENDBRANCH  13  19
BRANCH  15  21
ATOM     21  O   LIG A   1      -6.364   2.353   1.535  0.00  0.00    -0.495 OA
ATOM     22  C   LIG A   1      -6.683   1.338   2.494  0.00  0.00    +0.277 C 
ENDBRANCH  15  21
ENDBRANCH  11  18
ENDBRANCH   1  11
BRANCH   6  23
ATOM     23  O   LIG A   1       3.932  -3.857  -0.575  0.00  0.00    -0.491 OA
ATOM     24  C   LIG A   1       5.295  -3.821  -0.161  0.00  0.00    +0.277 C 
ENDBRANCH   6  23
BRANCH   7  25
ATOM     25  O   LIG A   1       5.187  -1.457  -1.553  0.00  0.00    -0.491 OA
ATOM     26  C   LIG A   1       5.964  -0.296  -1.292  0.00  0.00    +0.277 C 
ENDBRANCH   7  25
TORSDOF 6
