@<TRIPOS>MOLECULE
NuBBE_2120
 20 19 0 0 0
SMALL
GASTEIGER

@<TRIPOS>ATOM
      1 C          -2.0015   -0.0221    0.9962 C.3     1  LIG1       -0.0653
      2 C          -1.6678    1.0579   -0.0216 C.3     1  LIG1       -0.0559
      3 C          -0.7090    0.6579   -1.1487 C.3     1  LIG1       -0.0533
      4 C           0.7620    0.4321   -0.7756 C.3     1  LIG1       -0.0533
      5 C           1.0097   -0.7931    0.1028 C.3     1  LIG1       -0.0559
      6 C           2.4803   -1.0280    0.3991 C.3     1  LIG1       -0.0653
      7 H          -2.8721    0.2778    1.5896 H       1  LIG1        0.0230
      8 H          -1.2006   -0.1705    1.7186 H       1  LIG1        0.0230
      9 H          -2.2310   -0.9759    0.5098 H       1  LIG1        0.0230
     10 H          -1.2808    1.9422    0.4992 H       1  LIG1        0.0263
     11 H          -2.6121    1.3621   -0.4889 H       1  LIG1        0.0263
     12 H          -0.7276    1.4721   -1.8844 H       1  LIG1        0.0265
     13 H          -1.0978   -0.2257   -1.6716 H       1  LIG1        0.0265
     14 H           1.1519    1.3312   -0.2757 H       1  LIG1        0.0265
     15 H           1.3338    0.3216   -1.7039 H       1  LIG1        0.0265
     16 H           0.5815   -1.6868   -0.3788 H       1  LIG1        0.0263
     17 H           0.5346   -0.6761    1.0631 H       1  LIG1        0.0263
     18 H           3.0550   -1.2131   -0.5074 H       1  LIG1        0.0230
     19 H           2.5836   -1.8983    1.0565 H       1  LIG1        0.0230
     20 H           2.9078   -0.1652    0.9216 H       1  LIG1        0.0230
@<TRIPOS>BOND
     1     1     2    1
     2     2     3    1
     3     3     4    1
     4     4     5    1
     5     5     6    1
     6     1     7    1
     7     1     8    1
     8     1     9    1
     9     2    10    1
    10     2    11    1
    11     3    12    1
    12     3    13    1
    13     4    14    1
    14     4    15    1
    15     5    16    1
    16     5    17    1
    17     6    18    1
    18     6    19    1
    19     6    20    1
