REMARK  Name = NuBBE_1663
REMARK  11 active torsions:
REMARK  status: ('A' for Active; 'I' for Inactive)
REMARK    1  A    between atoms: O_1  and  C_2
REMARK    2  A    between atoms: O_1  and  C_3
REMARK    3  A    between atoms: C_4  and  C_13
REMARK    4  A    between atoms: C_6  and  O_11
REMARK    5  A    between atoms: C_7  and  O_9
REMARK    6  A    between atoms: O_9  and  C_10
REMARK    7  A    between atoms: O_11  and  C_12
REMARK    8  A    between atoms: C_21  and  O_27
REMARK    9  A    between atoms: C_22  and  O_25
REMARK   10  A    between atoms: C_23  and  O_24
REMARK   11  A    between atoms: O_25  and  C_26
REMARK                            x       y       z     vdW  Elec       q    Type
REMARK                         _______ _______ _______ _____ _____    ______ ____
ROOT
ATOM      1  C   LIG A   1      -0.413  -0.156  -0.610  0.00  0.00    +0.068 A 
ATOM      2  C   LIG A   1      -0.320   0.767   0.555  0.00  0.00    +0.204 A 
ATOM      3  O   LIG A   1       0.573   0.719   1.375  0.00  0.00    -0.286 OA
ATOM      4  C   LIG A   1      -1.375   1.804   0.660  0.00  0.00    +0.110 A 
ATOM      5  C   LIG A   1      -2.200   2.017  -0.433  0.00  0.00    +0.146 A 
ATOM      6  O   LIG A   1      -2.138   1.256  -1.574  0.00  0.00    -0.462 OA
ATOM      7  C   LIG A   1      -1.296   0.163  -1.564  0.00  0.00    +0.208 A 
ATOM      8  C   LIG A   1      -3.147   3.041  -0.405  0.00  0.00    +0.096 A 
ATOM      9  C   LIG A   1      -3.284   3.835   0.740  0.00  0.00    +0.166 A 
ATOM     10  C   LIG A   1      -2.502   3.595   1.881  0.00  0.00    +0.204 A 
ATOM     11  C   LIG A   1      -1.533   2.571   1.822  0.00  0.00    +0.177 A 
ENDROOT
BRANCH   1  13
ATOM     12  C   LIG A   1       0.191  -2.591  -0.244  0.00  0.00    +0.132 A 
ATOM     13  C   LIG A   1       0.486  -1.316  -0.754  0.00  0.00    +0.034 A 
ATOM     14  C   LIG A   1       1.693  -1.124  -1.441  0.00  0.00    +0.061 A 
ATOM     15  C   LIG A   1       2.619  -2.160  -1.606  0.00  0.00    +0.162 A 
ATOM     16  C   LIG A   1       2.318  -3.440  -1.116  0.00  0.00    +0.165 A 
ATOM     17  C   LIG A   1       1.089  -3.652  -0.466  0.00  0.00    +0.095 A 
BRANCH  12  18
ATOM     18  O   LIG A   1      -1.007  -2.733   0.413  0.00  0.00    -0.494 OA
ATOM     19  C   LIG A   1      -1.038  -3.727   1.436  0.00  0.00    +0.277 C 
ENDBRANCH  12  18
BRANCH  16  20
ATOM     20  O   LIG A   1       3.112  -4.561  -1.236  0.00  0.00    -0.491 OA
ATOM     21  C   LIG A   1       4.517  -4.339  -1.381  0.00  0.00    +0.277 C 
ENDBRANCH  16  20
BRANCH  15  22
ATOM     22  O   LIG A   1       3.810  -1.990  -2.250  0.00  0.00    -0.491 OA
ATOM     23  C   LIG A   1       4.172  -0.695  -2.688  0.00  0.00    +0.277 C 
ENDBRANCH  15  22
ENDBRANCH   1  13
BRANCH  11  24
ATOM     24  O   LIG A   1      -0.757   2.347   2.937  0.00  0.00    -0.503 OA
ATOM     25  H   LIG A   1      -0.050   1.707   2.702  0.00  0.00    +0.292 HD
ENDBRANCH  11  24
BRANCH  10  26
ATOM     26  O   LIG A   1      -2.549   4.266   3.075  0.00  0.00    -0.488 OA
ATOM     27  C   LIG A   1      -3.411   5.386   3.196  0.00  0.00    +0.277 C 
ENDBRANCH  10  26
BRANCH   9  28
ATOM     28  O   LIG A   1      -4.204   4.848   0.697  0.00  0.00    -0.503 OA
ATOM     29  H   LIG A   1      -4.366   5.092  -0.230  0.00  0.00    +0.292 HD
ENDBRANCH   9  28
TORSDOF 7
