@<TRIPOS>MOLECULE
NuBBE_148
 53 54 0 0 0
SMALL
GASTEIGER

@<TRIPOS>ATOM
      1 O          -2.8691   -2.4194   -3.7028 O.3     1  LIG1       -0.4771
      2 C          -1.6244   -2.9324   -3.5264 C.2     1  LIG1        0.3368
      3 C          -0.6517   -2.0704   -2.7864 C.ar    1  LIG1        0.0599
      4 C          -0.9803   -0.7918   -2.3342 C.ar    1  LIG1       -0.0408
      5 C          -0.1295   -0.0441   -1.5045 C.ar    1  LIG1       -0.0006
      6 C          -0.5249    1.3581   -1.0490 C.3     1  LIG1       -0.0057
      7 C          -2.0158    1.6156   -0.9159 C.2     1  LIG1       -0.0809
      8 C          -2.6178    2.7504   -0.5082 C.2     1  LIG1       -0.0793
      9 C          -1.9002    4.0038   -0.1009 C.3     1  LIG1       -0.0440
     10 C          -4.1204    2.8216   -0.4115 C.3     1  LIG1       -0.0440
     11 C           1.1115   -0.6085   -1.1585 C.ar    1  LIG1        0.1323
     12 O           1.8757    0.0874   -0.2610 O.3     1  LIG1       -0.4811
     13 C           3.0275   -0.5478    0.3321 C.3     1  LIG1        0.1266
     14 C           2.7920   -0.7598    1.8546 C.3     1  LIG1       -0.0060
     15 C           1.6360   -1.6946    2.2707 C.3     1  LIG1       -0.0306
     16 C           0.2524   -1.2572    1.8651 C.2     1  LIG1       -0.0851
     17 C          -0.5261   -0.3297    2.4551 C.2     1  LIG1       -0.0796
     18 C          -0.1504    0.4482    3.6785 C.3     1  LIG1       -0.0440
     19 C          -1.8744    0.0536    1.9113 C.3     1  LIG1       -0.0440
     20 C           4.1483    0.4876    0.1305 C.3     1  LIG1       -0.0212
     21 C           3.4865   -1.8188   -0.3466 C.2     1  LIG1       -0.0406
     22 C           2.7987   -2.4114   -1.3258 C.2     1  LIG1       -0.0513
     23 C           1.5029   -1.8513   -1.6792 C.ar    1  LIG1        0.0176
     24 C           0.6234   -2.5754   -2.4986 C.ar    1  LIG1       -0.0371
     25 O          -1.3418   -4.0429   -3.9103 O.2     1  LIG1       -0.2451
     26 H          -3.0670   -1.5387   -3.3800 H       1  LIG1        0.2954
     27 H          -1.9201   -0.3410   -2.6122 H       1  LIG1        0.0630
     28 H          -0.1147    2.0562   -1.7869 H       1  LIG1        0.0357
     29 H          -0.0570    1.5674   -0.0803 H       1  LIG1        0.0357
     30 H          -2.6812    0.7760   -1.0944 H       1  LIG1        0.0575
     31 H          -0.8123    3.9062   -0.1439 H       1  LIG1        0.0274
     32 H          -2.1665    4.2748    0.9272 H       1  LIG1        0.0274
     33 H          -2.1919    4.8267   -0.7603 H       1  LIG1        0.0274
     34 H          -4.6030    1.9032   -0.7644 H       1  LIG1        0.0274
     35 H          -4.4945    3.6451   -1.0274 H       1  LIG1        0.0274
     36 H          -4.4350    2.9838    0.6245 H       1  LIG1        0.0274
     37 H           3.7133   -1.1587    2.3059 H       1  LIG1        0.0310
     38 H           2.6249    0.2158    2.3295 H       1  LIG1        0.0310
     39 H           1.6580   -1.8232    3.3612 H       1  LIG1        0.0309
     40 H           1.8147   -2.6990    1.8673 H       1  LIG1        0.0309
     41 H          -0.1301   -1.7666    0.9820 H       1  LIG1        0.0571
     42 H           0.8857    0.2960    3.9832 H       1  LIG1        0.0274
     43 H          -0.8005    0.1457    4.5051 H       1  LIG1        0.0274
     44 H          -0.2900    1.5206    3.5027 H       1  LIG1        0.0274
     45 H          -2.2087   -0.5874    1.0893 H       1  LIG1        0.0274
     46 H          -1.8233    1.0858    1.5602 H       1  LIG1        0.0274
     47 H          -2.6383    0.0303    2.6926 H       1  LIG1        0.0274
     48 H           4.2900    0.6903   -0.9395 H       1  LIG1        0.0271
     49 H           5.1058    0.1573    0.5463 H       1  LIG1        0.0271
     50 H           3.8818    1.4481    0.5867 H       1  LIG1        0.0271
     51 H           4.4388   -2.2414   -0.0350 H       1  LIG1        0.0611
     52 H           3.1694   -3.2947   -1.8331 H       1  LIG1        0.0623
     53 H           0.9233   -3.5493   -2.8848 H       1  LIG1        0.0633
@<TRIPOS>BOND
     1     1     2    1
     2     2     3    1
     3     3     4   ar
     4     4     5   ar
     5     5     6    1
     6     6     7    1
     7     7     8    2
     8     8     9    1
     9     8    10    1
    10     5    11   ar
    11    11    12    1
    12    12    13    1
    13    14    15    1
    14    15    16    1
    15    16    17    2
    16    17    18    1
    17    17    19    1
    18    13    21    1
    19    21    22    2
    20    11    23   ar
    21    22    23    1
    22    23    24   ar
    23     3    24   ar
    24     2    25    2
    25    13    20    1
    26    13    14    1
    27     1    26    1
    28     4    27    1
    29     6    28    1
    30     6    29    1
    31     7    30    1
    32     9    31    1
    33     9    32    1
    34     9    33    1
    35    10    34    1
    36    10    35    1
    37    10    36    1
    38    14    37    1
    39    14    38    1
    40    15    39    1
    41    15    40    1
    42    16    41    1
    43    18    42    1
    44    18    43    1
    45    18    44    1
    46    19    45    1
    47    19    46    1
    48    19    47    1
    49    20    48    1
    50    20    49    1
    51    20    50    1
    52    21    51    1
    53    22    52    1
    54    24    53    1
