REMARK  Name = NuBBE_435
REMARK  4 active torsions:
REMARK  status: ('A' for Active; 'I' for Inactive)
REMARK    1  A    between atoms: C_9  and  C_10
REMARK    2  A    between atoms: C_21  and  C_22
REMARK    3  A    between atoms: C_22  and  O_23
REMARK    4  A    between atoms: O_23  and  C_24
REMARK                            x       y       z     vdW  Elec       q    Type
REMARK                         _______ _______ _______ _____ _____    ______ ____
ROOT
ATOM      1  C   LIG A   1      -1.884  -0.148  -0.086  0.00  0.00    +0.065 C 
ATOM      2  C   LIG A   1      -1.306  -1.228  -0.966  0.00  0.00    -0.018 C 
ATOM      3  C   LIG A   1      -0.143  -1.707  -0.512  0.00  0.00    +0.020 C 
ATOM      4  C   LIG A   1       0.248  -1.072   0.777  0.00  0.00    +0.172 C 
ATOM      5  C   LIG A   1       1.477  -0.200   0.841  0.00  0.00    +0.207 C 
ATOM      6  C   LIG A   1       2.475  -1.091   1.474  0.00  0.00    +0.065 C 
ATOM      7  C   LIG A   1       3.807  -0.947   1.380  0.00  0.00    -0.017 C 
ATOM      8  C   LIG A   1       4.873  -1.809   1.973  0.00  0.00    +0.036 C 
ATOM      9  O   LIG A   1       1.135   0.864   1.737  0.00  0.00    -0.329 OA
ATOM     10  O   LIG A   1       0.403  -2.074   1.782  0.00  0.00    -0.447 OA
ATOM     11  C   LIG A   1       1.715  -2.169   2.152  0.00  0.00    +0.338 C 
ATOM     12  O   LIG A   1       2.154  -3.006   2.915  0.00  0.00    -0.245 OA
ATOM     13  C   LIG A   1      -0.915  -0.136   1.109  0.00  0.00    +0.120 C 
ATOM     14  C   LIG A   1      -0.234   1.190   1.439  0.00  0.00    +0.315 C 
ATOM     15  O   LIG A   1      -0.218   2.208   0.444  0.00  0.00    -0.470 OA
ATOM     16  C   LIG A   1      -1.180   2.188  -0.512  0.00  0.00    +0.201 C 
ATOM     17  C   LIG A   1      -1.979   1.157  -0.805  0.00  0.00    +0.078 C 
ENDROOT
BRANCH  17  18
ATOM     18  C   LIG A   1      -2.994   1.284  -1.885  0.00  0.00    +0.338 C 
ATOM     19  O   LIG A   1      -3.951   0.535  -1.998  0.00  0.00    -0.245 OA
BRANCH  18  20
ATOM     20  O   LIG A   1      -2.663   2.291  -2.732  0.00  0.00    -0.465 OA
ATOM     21  C   LIG A   1      -3.532   2.470  -3.851  0.00  0.00    +0.280 C 
ENDBRANCH  18  20
ENDBRANCH  17  18
TORSDOF 2
