REMARK  Name = NuBBE_1758
REMARK  5 active torsions:
REMARK  status: ('A' for Active; 'I' for Inactive)
REMARK    1  A    between atoms: C_1  and  O_3
REMARK    2  A    between atoms: C_1  and  C_5
REMARK    3  A    between atoms: O_3  and  C_4
REMARK    4  A    between atoms: C_20  and  C_21
REMARK    5  A    between atoms: C_21  and  C_22
REMARK                            x       y       z     vdW  Elec       q    Type
REMARK                         _______ _______ _______ _____ _____    ______ ____
ROOT
ATOM      1  C   LIG A   1       0.068   0.431   0.409  0.00  0.00    +0.112 C 
ATOM      2  C   LIG A   1      -0.288   0.361  -1.113  0.00  0.00    +0.114 C 
ATOM      3  N   LIG A   1      -0.894  -0.970  -1.468  0.00  0.00    -0.330 N 
ATOM      4  C   LIG A   1      -2.061  -0.682  -2.202  0.00  0.00    +0.038 A 
ATOM      5  C   LIG A   1      -2.428   0.657  -2.217  0.00  0.00    +0.040 A 
ATOM      6  C   LIG A   1      -1.373   1.381  -1.536  0.00  0.00    +0.189 C 
ATOM      7  O   LIG A   1      -1.366   2.597  -1.417  0.00  0.00    -0.290 OA
ATOM      8  C   LIG A   1      -3.569   1.134  -2.833  0.00  0.00    +0.013 A 
ATOM      9  C   LIG A   1      -4.397   0.197  -3.448  0.00  0.00    +0.001 A 
ATOM     10  C   LIG A   1      -4.063  -1.169  -3.424  0.00  0.00    +0.002 A 
ATOM     11  C   LIG A   1      -2.894  -1.615  -2.791  0.00  0.00    +0.024 A 
ATOM     12  C   LIG A   1       0.944   0.596  -2.011  0.00  0.00    +0.050 C 
ATOM     13  C   LIG A   1       2.153  -0.220  -1.561  0.00  0.00    +0.087 C 
ATOM     14  N   LIG A   1       2.423  -0.122  -0.129  0.00  0.00    -0.298 NA
ATOM     15  C   LIG A   1       1.250  -0.554   0.679  0.00  0.00    +0.079 C 
ATOM     16  C   LIG A   1       1.697  -0.575   2.176  0.00  0.00    +0.007 C 
ATOM     17  C   LIG A   1       2.060   0.860   2.610  0.00  0.00    +0.010 C 
ATOM     18  C   LIG A   1       2.003   1.788   1.393  0.00  0.00    +0.005 C 
ATOM     19  C   LIG A   1       0.555   1.847   0.873  0.00  0.00    +0.027 C 
ATOM     20  C   LIG A   1       2.897   1.214   0.282  0.00  0.00    +0.088 C 
ATOM     21  H   LIG A   1      -0.293  -1.664  -1.905  0.00  0.00    +0.147 HD
ENDROOT
BRANCH   1  22
ATOM     22  C   LIG A   1      -1.169  -0.013   1.200  0.00  0.00    +0.317 C 
ATOM     23  O   LIG A   1      -1.365  -1.147   1.619  0.00  0.00    -0.250 OA
BRANCH  22  24
ATOM     24  O   LIG A   1      -2.049   1.018   1.344  0.00  0.00    -0.467 OA
ATOM     25  C   LIG A   1      -3.267   0.727   2.033  0.00  0.00    +0.280 C 
ENDBRANCH  22  24
ENDBRANCH   1  22
BRANCH  16  26
ATOM     26  C   LIG A   1       2.876  -1.539   2.453  0.00  0.00    +0.002 C 
ATOM     27  C   LIG A   1       2.567  -2.994   2.128  0.00  0.00    +0.004 C 
ENDBRANCH  16  26
TORSDOF 3
