REMARK  Name = NuBBE_2242
REMARK  11 active torsions:
REMARK  status: ('A' for Active; 'I' for Inactive)
REMARK    1  A    between atoms: C_1  and  C_2
REMARK    2  A    between atoms: C_2  and  C_3
REMARK    3  A    between atoms: C_11  and  O_12
REMARK    4  A    between atoms: O_12  and  C_13
REMARK    5  A    between atoms: C_13  and  C_14
REMARK    6  A    between atoms: C_17  and  C_18
REMARK    7  A    between atoms: C_19  and  O_21
REMARK    8  A    between atoms: O_21  and  C_22
REMARK    9  A    between atoms: C_22  and  C_23
REMARK   10  A    between atoms: C_26  and  C_27
REMARK   11  A    between atoms: C_26  and  C_28
REMARK                            x       y       z     vdW  Elec       q    Type
REMARK                         _______ _______ _______ _____ _____    ______ ____
ROOT
ATOM      1  C   LIG A   1      -1.618   0.264   4.460  0.00  0.00    +0.014 C 
ATOM      2  C   LIG A   1      -0.699  -0.346   3.380  0.00  0.00    +0.001 C 
ATOM      3  C   LIG A   1       0.728   0.195   3.617  0.00  0.00    +0.014 C 
ATOM      4  C   LIG A   1      -0.732  -1.879   3.605  0.00  0.00    +0.010 C 
ATOM      5  C   LIG A   1       0.130  -2.631   2.607  0.00  0.00    +0.003 C 
ATOM      6  C   LIG A   1      -0.270  -2.408   1.150  0.00  0.00    +0.039 C 
ATOM      7  C   LIG A   1      -0.810  -1.023   0.819  0.00  0.00    +0.117 C 
ATOM      8  O   LIG A   1      -2.133  -0.916   1.409  0.00  0.00    -0.355 OA
ATOM      9  C   LIG A   1      -1.159  -0.010   1.938  0.00  0.00    +0.133 C 
ATOM     10  C   LIG A   1      -1.302   1.417   1.528  0.00  0.00    +0.023 C 
ATOM     11  C   LIG A   1      -0.467   1.847   0.402  0.00  0.00    +0.137 C 
ATOM     12  C   LIG A   1      -0.252   1.036  -0.667  0.00  0.00    -0.014 C 
ATOM     13  C   LIG A   1      -0.720  -0.453  -0.672  0.00  0.00    +0.062 C 
ATOM     14  C   LIG A   1      -2.137  -0.479  -1.306  0.00  0.00    +0.022 C 
ATOM     15  C   LIG A   1       0.280  -1.326  -1.537  0.00  0.00    +0.190 C 
ATOM     16  C   LIG A   1       0.830  -0.708  -2.833  0.00  0.00    +0.056 C 
ATOM     17  C   LIG A   1       1.410   0.703  -2.663  0.00  0.00    -0.007 C 
ATOM     18  C   LIG A   1       1.660   1.292  -4.074  0.00  0.00    +0.016 C 
ATOM     19  C   LIG A   1       0.314   1.568  -1.983  0.00  0.00    +0.046 C 
ATOM     20  C   LIG A   1      -2.296   2.194   2.003  0.00  0.00    +0.019 C 
ENDROOT
BRANCH  17  21
ATOM     21  C   LIG A   1       2.713   0.654  -1.867  0.00  0.00    -0.028 C 
ATOM     22  C   LIG A   1       3.962   0.608  -2.357  0.00  0.00    +0.004 C 
ENDBRANCH  17  21
BRANCH  11  23
ATOM     23  O   LIG A   1      -0.132   3.219   0.417  0.00  0.00    -0.426 OA
BRANCH  23  24
ATOM     24  C   LIG A   1       1.221   3.490   0.400  0.00  0.00    +0.309 C 
ATOM     25  C   LIG A   1       1.443   4.978   0.306  0.00  0.00    +0.136 C 
ATOM     26  O   LIG A   1       2.125   2.694   0.412  0.00  0.00    -0.251 OA
ENDBRANCH  23  24
ENDBRANCH  11  23
BRANCH  15  27
ATOM     27  O   LIG A   1      -0.253  -2.675  -1.727  0.00  0.00    -0.461 OA
BRANCH  27  28
ATOM     28  C   LIG A   1      -1.023  -3.037  -2.798  0.00  0.00    +0.304 C 
ATOM     29  C   LIG A   1      -1.674  -4.364  -2.532  0.00  0.00    +0.136 C 
ATOM     30  O   LIG A   1      -1.242  -2.378  -3.814  0.00  0.00    -0.251 OA
ENDBRANCH  27  28
ENDBRANCH  15  27
TORSDOF 5
