REMARK  Name = NuBBE_103
REMARK  16 active torsions:
REMARK  status: ('A' for Active; 'I' for Inactive)
REMARK    1  A    between atoms: C_2  and  C_3
REMARK    2  A    between atoms: C_4  and  O_32
REMARK    3  A    between atoms: C_8  and  C_28
REMARK    4  A    between atoms: C_9  and  C_10
REMARK    5  A    between atoms: C_10  and  C_11
REMARK    6  A    between atoms: CA_13  and  C_14
REMARK    7  A    between atoms: C_14  and  O_15
REMARK    8  A    between atoms: C_24  and  O_27
REMARK    9  A    between atoms: C_28  and  O_29
REMARK   10  A    between atoms: O_29  and  C_30
REMARK   11  A    between atoms: O_32  and  C_33
REMARK   12  A    between atoms: C_36  and  C_44
REMARK   13  A    between atoms: C_38  and  O_43
REMARK   14  A    between atoms: C_40  and  O_42
REMARK   15  A    between atoms: C_44  and  O_45
REMARK   16  A    between atoms: C_46  and  O_48
REMARK                            x       y       z     vdW  Elec       q    Type
REMARK                         _______ _______ _______ _____ _____    ______ ____
ROOT
ATOM      1  C   LIG A   1      -0.870   1.280   1.860  0.00  0.00    +0.088 C 
ATOM      2  C   LIG A   1      -0.759   2.554   0.958  0.00  0.00    +0.316 C 
ATOM      3  O   LIG A   1       0.503   3.212   1.127  0.00  0.00    -0.470 OA
ATOM      4  C   LIG A   1       1.583   2.440   1.426  0.00  0.00    +0.201 C 
ATOM      5  C   LIG A   1       1.577   1.126   1.702  0.00  0.00    +0.075 C 
ATOM      6  C   LIG A   1       0.320   0.285   1.661  0.00  0.00    +0.048 C 
ENDROOT
BRANCH   1   8
ATOM      7  C   LIG A   1      -3.154   0.952   2.876  0.00  0.00    +0.004 C 
ATOM      8  C   LIG A   1      -2.258   0.670   1.916  0.00  0.00    -0.025 C 
ENDBRANCH   1   8
BRANCH   5   9
ATOM      9  C   LIG A   1       2.761   0.542   2.378  0.00  0.00    +0.338 C 
ATOM     10  O   LIG A   1       2.702  -0.476   3.050  0.00  0.00    -0.245 OA
BRANCH   9  11
ATOM     11  O   LIG A   1       3.842   1.350   2.270  0.00  0.00    -0.465 OA
ATOM     12  C   LIG A   1       5.000   0.922   2.979  0.00  0.00    +0.280 C 
ENDBRANCH   9  11
ENDBRANCH   5   9
BRANCH   6  13
ATOM     13  C   LIG A   1       0.210  -0.667   0.438  0.00  0.00    +0.067 C 
BRANCH  13  14
ATOM     14  C   LIG A   1       1.280  -1.741   0.278  0.00  0.00    +0.067 A 
ATOM     15  N   LIG A   1       2.575  -1.360   0.072  0.00  0.00    -0.243 NA
ATOM     16  CA  LIG A   1       3.543  -2.302  -0.126  0.00  0.00    +0.148 A 
ATOM     17  C   LIG A   1       3.315  -3.667  -0.234  0.00  0.00    +0.045 A 
ATOM     18  C   LIG A   1       1.988  -4.082  -0.093  0.00  0.00    +0.011 A 
ATOM     19  C   LIG A   1       1.013  -3.125   0.197  0.00  0.00    +0.069 A 
ATOM     20  N   LIG A   1      -0.165  -3.824   0.354  0.00  0.00    -0.353 N 
ATOM     21  C   LIG A   1      -0.024  -5.134  -0.037  0.00  0.00    +0.048 A 
ATOM     22  C   LIG A   1      -0.988  -6.132  -0.222  0.00  0.00    +0.030 A 
ATOM     23  C   LIG A   1      -0.543  -7.394  -0.628  0.00  0.00    +0.047 A 
ATOM     24  C   LIG A   1       0.814  -7.639  -0.803  0.00  0.00    +0.118 A 
ATOM     25  C   LIG A   1       1.768  -6.637  -0.619  0.00  0.00    +0.056 A 
ATOM     26  C   LIG A   1       1.335  -5.346  -0.251  0.00  0.00    +0.011 A 
ATOM     27  H   LIG A   1      -1.040  -3.418   0.650  0.00  0.00    +0.166 HD
BRANCH  16  28
ATOM     28  C   LIG A   1       4.964  -1.860  -0.242  0.00  0.00    +0.355 C 
ATOM     29  OXT LIG A   1       5.855  -2.456  -0.801  0.00  0.00    -0.243 OA
BRANCH  28  30
ATOM     30  O   LIG A   1       5.216  -0.732   0.454  0.00  0.00    -0.476 OA
ATOM     31  H   LIG A   1       6.183  -0.618   0.369  0.00  0.00    +0.295 HD
ENDBRANCH  28  30
ENDBRANCH  16  28
BRANCH  24  32
ATOM     32  O   LIG A   1       1.265  -8.872  -1.180  0.00  0.00    -0.507 OA
ATOM     33  H   LIG A   1       0.506  -9.476  -1.236  0.00  0.00    +0.292 HD
ENDBRANCH  24  32
ENDBRANCH  13  14
ENDBRANCH   6  13
BRANCH   2  34
ATOM     34  O   LIG A   1      -1.043   2.353  -0.437  0.00  0.00    -0.309 OA
BRANCH  34  35
ATOM     35  C   LIG A   1      -0.919   3.604  -1.154  0.00  0.00    +0.286 C 
ATOM     36  O   LIG A   1      -1.832   4.609  -0.694  0.00  0.00    -0.340 OA
ATOM     37  C   LIG A   1      -3.194   4.489  -1.121  0.00  0.00    +0.178 C 
ATOM     38  C   LIG A   1      -3.324   4.329  -2.647  0.00  0.00    +0.177 C 
ATOM     39  C   LIG A   1      -2.411   3.219  -3.186  0.00  0.00    +0.179 C 
ATOM     40  C   LIG A   1      -0.975   3.420  -2.688  0.00  0.00    +0.201 C 
BRANCH  39  41
ATOM     41  O   LIG A   1      -2.915   1.931  -2.834  0.00  0.00    -0.386 OA
ATOM     42  H   LIG A   1      -2.297   1.273  -3.202  0.00  0.00    +0.210 HD
ENDBRANCH  39  41
BRANCH  38  43
ATOM     43  O   LIG A   1      -2.935   5.572  -3.274  0.00  0.00    -0.387 OA
ATOM     44  H   LIG A   1      -3.644   6.213  -3.076  0.00  0.00    +0.210 HD
ENDBRANCH  38  43
BRANCH  40  45
ATOM     45  O   LIG A   1      -0.401   4.568  -3.344  0.00  0.00    -0.384 OA
ATOM     46  H   LIG A   1      -1.067   5.290  -3.282  0.00  0.00    +0.210 HD
ENDBRANCH  40  45
BRANCH  37  47
ATOM     47  C   LIG A   1      -3.967   3.436  -0.322  0.00  0.00    +0.190 C 
BRANCH  47  48
ATOM     48  O   LIG A   1      -5.340   3.436  -0.702  0.00  0.00    -0.392 OA
ATOM     49  H   LIG A   1      -5.765   2.712  -0.212  0.00  0.00    +0.209 HD
ENDBRANCH  47  48
ENDBRANCH  37  47
ENDBRANCH  34  35
ENDBRANCH   2  34
TORSDOF 15
