@<TRIPOS>MOLECULE
NuBBE_388
 99 104 0 0 0
SMALL
GASTEIGER

@<TRIPOS>ATOM
      1 C          -1.4761    3.1773   -1.9994 C.3     1  LIG1       -0.0553
      2 C          -0.4452    3.1682   -0.8218 C.3     1  LIG1       -0.0051
      3 C          -0.4696    1.7757    0.0208 C.3     1  LIG1       -0.0194
      4 C          -1.8653    1.5375    0.6544 C.3     1  LIG1       -0.0463
      5 C          -2.1075    0.1190    1.1598 C.3     1  LIG1       -0.0486
      6 C          -1.9002   -0.9102    0.0326 C.3     1  LIG1       -0.0267
      7 C          -2.5012   -2.3279    0.3527 C.3     1  LIG1        0.0080
      8 C          -2.1206   -2.8275    1.7699 C.3     1  LIG1       -0.0561
      9 C          -2.1591   -3.3605   -0.7835 C.3     1  LIG1        0.1344
     10 H          -3.1012   -3.7391   -1.2049 H       1  LIG1        0.0766
     11 C          -1.4529   -2.7648   -2.0140 C.3     1  LIG1        0.0931
     12 H          -1.0909   -3.5701   -2.6658 H       1  LIG1        0.0630
     13 C          -0.2759   -1.8305   -1.7300 C.3     1  LIG1       -0.0174
     14 C          -0.4199   -0.8796   -0.4923 C.3     1  LIG1       -0.0226
     15 C          -0.1175    0.6091   -0.9706 C.3     1  LIG1       -0.0257
     16 C           1.2809    0.8342   -1.5925 C.3     1  LIG1       -0.0306
     17 C           1.6346    2.2713   -1.8670 C.2     1  LIG1       -0.0836
     18 C           0.9288    3.3635   -1.4984 C.2     1  LIG1       -0.0629
     19 C           1.3602    4.7977   -1.8871 C.3     1  LIG1       -0.0031
     20 C           0.9000    5.9223   -0.9026 C.3     1  LIG1        0.0741
     21 C           0.9156    7.2730   -1.6376 C.2     1  LIG1        0.3115
     22 O           1.1432    8.3348   -0.8393 O.3     1  LIG1       -0.4802
     23 O           0.6938    7.4588   -2.8231 O.2     1  LIG1       -0.2504
     24 C          -0.5689    5.7248   -0.4745 C.3     1  LIG1       -0.0359
     25 C          -0.8304    4.3467    0.1122 C.3     1  LIG1       -0.0424
     26 C           1.8178    5.9580    0.3447 C.3     1  LIG1       -0.0362
     27 C           3.3014    6.1345    0.0203 C.3     1  LIG1       -0.0468
     28 C           3.8381    5.1163   -1.0026 C.3     1  LIG1       -0.0343
     29 C           5.2063    5.6107   -1.5198 C.3     1  LIG1       -0.0598
     30 C           2.8740    4.9987   -2.2126 C.3     1  LIG1       -0.0403
     31 C           4.0875    3.7680   -0.3050 C.3     1  LIG1       -0.0598
     32 C           0.5966   -1.3512    0.5746 C.3     1  LIG1       -0.0589
     33 O          -2.4018   -2.0177   -2.7969 O.3     1  LIG1       -0.3881
     34 O          -1.4343   -4.4883   -0.2538 O.3     1  LIG1       -0.4551
     35 C          -2.2294   -5.4894    0.1977 C.2     1  LIG1        0.3323
     36 C          -1.4427   -6.4255    0.9961 C.2     1  LIG1        0.0231
     37 C          -2.0261   -7.5544    1.4337 C.2     1  LIG1       -0.0478
     38 C          -1.2510   -8.5326    2.1765 C.ar    1  LIG1       -0.0246
     39 C          -1.1977   -8.4756    3.5722 C.ar    1  LIG1       -0.0511
     40 C          -0.4110   -9.3872    4.2741 C.ar    1  LIG1       -0.0196
     41 C           0.3146  -10.3466    3.5724 C.ar    1  LIG1        0.1169
     42 C           0.2670  -10.4121    2.1845 C.ar    1  LIG1       -0.0196
     43 C          -0.5186   -9.5020    1.4825 C.ar    1  LIG1       -0.0511
     44 O           1.0990  -11.2515    4.2223 O.3     1  LIG1       -0.5068
     45 O          -3.4522   -5.5847    0.0388 O.2     1  LIG1       -0.2456
     46 C          -4.0548   -2.2103    0.3694 C.3     1  LIG1       -0.0561
     47 C           0.5629    1.8503    1.1928 C.3     1  LIG1       -0.0585
     48 H          -1.2788    2.4085   -2.7524 H       1  LIG1        0.0238
     49 H          -1.4528    4.1224   -2.5527 H       1  LIG1        0.0238
     50 H          -2.5050    3.0511   -1.6531 H       1  LIG1        0.0238
     51 H          -2.6573    1.7476   -0.0696 H       1  LIG1        0.0271
     52 H          -2.0270    2.2286    1.4902 H       1  LIG1        0.0271
     53 H          -3.1374    0.0823    1.5282 H       1  LIG1        0.0268
     54 H          -1.4766   -0.0909    2.0276 H       1  LIG1        0.0268
     55 H          -2.5097   -0.5300   -0.8017 H       1  LIG1        0.0312
     56 H          -1.0529   -3.0153    1.8859 H       1  LIG1        0.0236
     57 H          -2.6388   -3.7586    2.0215 H       1  LIG1        0.0236
     58 H          -2.4190   -2.1179    2.5471 H       1  LIG1        0.0236
     59 H          -0.1516   -1.2296   -2.6405 H       1  LIG1        0.0297
     60 H           0.6469   -2.4181   -1.6497 H       1  LIG1        0.0297
     61 H          -0.8178    0.7200   -1.8077 H       1  LIG1        0.0315
     62 H           1.3565    0.2940   -2.5431 H       1  LIG1        0.0310
     63 H           2.0723    0.4360   -0.9520 H       1  LIG1        0.0310
     64 H           2.5605    2.3694   -2.4245 H       1  LIG1        0.0572
     65 H           0.8369    4.9647   -2.8418 H       1  LIG1        0.0357
     66 H           1.1317    9.1005   -1.4510 H       1  LIG1        0.2951
     67 H          -1.2496    5.9008   -1.3161 H       1  LIG1        0.0276
     68 H          -0.8450    6.4763    0.2776 H       1  LIG1        0.0276
     69 H          -1.8953    4.2796    0.3695 H       1  LIG1        0.0274
     70 H          -0.3088    4.3022    1.0678 H       1  LIG1        0.0274
     71 H           1.7050    5.0402    0.9299 H       1  LIG1        0.0276
     72 H           1.5142    6.7719    1.0162 H       1  LIG1        0.0276
     73 H           3.8699    6.0585    0.9569 H       1  LIG1        0.0271
     74 H           3.4714    7.1544   -0.3452 H       1  LIG1        0.0271
     75 H           5.1151    6.5783   -2.0258 H       1  LIG1        0.0235
     76 H           5.6377    4.9006   -2.2345 H       1  LIG1        0.0235
     77 H           5.9203    5.7343   -0.6975 H       1  LIG1        0.0235
     78 H           3.2365    4.2357   -2.9102 H       1  LIG1        0.0276
     79 H           2.9539    5.9303   -2.7914 H       1  LIG1        0.0276
     80 H           3.1950    3.3897    0.1943 H       1  LIG1        0.0235
     81 H           4.8589    3.8635    0.4689 H       1  LIG1        0.0235
     82 H           4.4373    3.0102   -1.0143 H       1  LIG1        0.0235
     83 H           0.5585   -2.4318    0.7283 H       1  LIG1        0.0235
     84 H           0.4289   -0.9070    1.5534 H       1  LIG1        0.0235
     85 H           1.6302   -1.1310    0.2954 H       1  LIG1        0.0235
     86 H          -3.0323   -2.6509   -3.1835 H       1  LIG1        0.2099
     87 H          -0.4150   -6.1701    1.2249 H       1  LIG1        0.0689
     88 H          -3.0648   -7.7986    1.2271 H       1  LIG1        0.0626
     89 H          -1.7606   -7.7189    4.1138 H       1  LIG1        0.0625
     90 H          -0.3729   -9.3293    5.3567 H       1  LIG1        0.0654
     91 H           0.8413  -11.1637    1.6511 H       1  LIG1        0.0654
     92 H          -0.5515   -9.5473    0.3962 H       1  LIG1        0.0625
     93 H           1.0157  -11.0991    5.1778 H       1  LIG1        0.2921
     94 H          -4.4323   -1.7893   -0.5687 H       1  LIG1        0.0236
     95 H          -4.4143   -1.5871    1.1923 H       1  LIG1        0.0236
     96 H          -4.5224   -3.1935    0.4999 H       1  LIG1        0.0236
     97 H           0.3743    2.6861    1.8688 H       1  LIG1        0.0235
     98 H           1.5943    1.9422    0.8489 H       1  LIG1        0.0235
     99 H           0.5263    0.9869    1.8508 H       1  LIG1        0.0235
@<TRIPOS>BOND
     1     2     3    1
     2     3     4    1
     3     4     5    1
     4     5     6    1
     5     6     7    1
     6     7     9    1
     7     9    11    1
     8    11    13    1
     9    13    14    1
    10    14    15    1
    11    15    16    1
    12    16    17    1
    13    17    18    2
    14     2    18    1
    15    18    19    1
    16    19    20    1
    17    21    22    1
    18    21    23    2
    19    20    24    1
    20    24    25    1
    21     2    25    1
    22    20    26    1
    23    26    27    1
    24    27    28    1
    25    28    30    1
    26    19    30    1
    27     6    14    1
    28    34    35    1
    29    35    36    1
    30    36    37    2
    31    37    38    1
    32    38    39   ar
    33    39    40   ar
    34    40    41   ar
    35    41    42   ar
    36    42    43   ar
    37    38    43   ar
    38    41    44    1
    39    35    45    2
    40    15     3    1
    41     1     2    1
    42     3    47    1
    43     7     8    1
    44     7    46    1
    45     9    10    1
    46     9    34    1
    47    14    32    1
    48    20    21    1
    49    28    29    1
    50    28    31    1
    51    11    33    1
    52    11    12    1
    53     1    48    1
    54     1    49    1
    55     1    50    1
    56     4    51    1
    57     4    52    1
    58     5    53    1
    59     5    54    1
    60     6    55    1
    61     8    56    1
    62     8    57    1
    63     8    58    1
    64    13    59    1
    65    13    60    1
    66    15    61    1
    67    16    62    1
    68    16    63    1
    69    17    64    1
    70    19    65    1
    71    22    66    1
    72    24    67    1
    73    24    68    1
    74    25    69    1
    75    25    70    1
    76    26    71    1
    77    26    72    1
    78    27    73    1
    79    27    74    1
    80    29    75    1
    81    29    76    1
    82    29    77    1
    83    30    78    1
    84    30    79    1
    85    31    80    1
    86    31    81    1
    87    31    82    1
    88    32    83    1
    89    32    84    1
    90    32    85    1
    91    33    86    1
    92    36    87    1
    93    37    88    1
    94    39    89    1
    95    40    90    1
    96    42    91    1
    97    43    92    1
    98    44    93    1
    99    46    94    1
   100    46    95    1
   101    46    96    1
   102    47    97    1
   103    47    98    1
   104    47    99    1
