REMARK  Name = NuBBE_173
REMARK  17 active torsions:
REMARK  status: ('A' for Active; 'I' for Inactive)
REMARK    1  A    between atoms: O_1  and  C_2
REMARK    2  A    between atoms: C_4  and  C_6
REMARK    3  A    between atoms: C_9  and  C_11
REMARK    4  A    between atoms: C_11  and  C_12
REMARK    5  A    between atoms: C_12  and  C_13
REMARK    6  A    between atoms: C_13  and  C_14
REMARK    7  A    between atoms: C_14  and  C_15
REMARK    8  A    between atoms: C_15  and  C_16
REMARK    9  A    between atoms: C_16  and  C_17
REMARK   10  A    between atoms: C_17  and  C_18
REMARK   11  A    between atoms: C_18  and  C_19
REMARK   12  A    between atoms: C_19  and  C_20
REMARK   13  A    between atoms: C_20  and  C_21
REMARK   14  A    between atoms: C_21  and  C_22
REMARK   15  A    between atoms: C_22  and  C_23
REMARK   16  A    between atoms: C_23  and  C_24
REMARK   17  A    between atoms: N_25  and  O_26
REMARK                            x       y       z     vdW  Elec       q    Type
REMARK                         _______ _______ _______ _____ _____    ______ ____
ROOT
ATOM      1  C   LIG A   1       2.474  -0.597  -1.038  0.00  0.00    -0.000 C 
ENDROOT
BRANCH   1   2
ATOM      2  C   LIG A   1       1.326   0.399  -0.824  0.00  0.00    +0.000 C 
BRANCH   2   3
ATOM      3  C   LIG A   1       0.790   0.410   0.594  0.00  0.00    +0.002 C 
BRANCH   3   4
ATOM      4  C   LIG A   1       1.819   0.934   1.571  0.00  0.00    +0.019 C 
BRANCH   4  10
ATOM      5  C   LIG A   1       2.038  -0.117   5.624  0.00  0.00    +0.131 C 
ATOM      6  C   LIG A   1       2.188   1.371   5.249  0.00  0.00    +0.079 C 
ATOM      7  C   LIG A   1       3.358   2.019   5.986  0.00  0.00    +0.026 C 
ATOM      8  N   LIG A   1       2.439   1.459   3.805  0.00  0.00    -0.308 NA
ATOM      9  H   LIG A   1       2.618   2.429   3.540  0.00  0.00    +0.122 HD
ATOM     10  C   LIG A   1       1.314   0.940   3.015  0.00  0.00    +0.054 C 
ATOM     11  C   LIG A   1       0.867  -0.478   3.429  0.00  0.00    +0.021 C 
ATOM     12  C   LIG A   1       0.801  -0.687   4.937  0.00  0.00    +0.034 C 
BRANCH   5  13
ATOM     13  O   LIG A   1       3.191  -0.844   5.179  0.00  0.00    -0.390 OA
ATOM     14  H   LIG A   1       3.456  -0.398   4.346  0.00  0.00    +0.210 HD
ENDBRANCH   5  13
ENDBRANCH   4  10
ENDBRANCH   3   4
ENDBRANCH   2   3
ENDBRANCH   1   2
BRANCH   1  15
ATOM     15  C   LIG A   1       2.995  -0.753  -2.474  0.00  0.00    -0.000 C 
BRANCH  15  16
ATOM     16  C   LIG A   1       2.050  -1.423  -3.489  0.00  0.00    -0.000 C 
BRANCH  16  17
ATOM     17  C   LIG A   1       0.785  -0.627  -3.781  0.00  0.00    -0.000 C 
BRANCH  17  18
ATOM     18  C   LIG A   1      -0.237  -1.257  -4.714  0.00  0.00    -0.000 C 
BRANCH  18  19
ATOM     19  C   LIG A   1      -1.491  -0.360  -4.838  0.00  0.00    +0.000 C 
BRANCH  19  20
ATOM     20  C   LIG A   1      -2.262  -0.127  -3.520  0.00  0.00    +0.000 C 
BRANCH  20  21
ATOM     21  C   LIG A   1      -3.515   0.735  -3.736  0.00  0.00    +0.006 C 
BRANCH  21  22
ATOM     22  C   LIG A   1      -4.309   1.012  -2.445  0.00  0.00    +0.054 C 
BRANCH  22  23
ATOM     23  C   LIG A   1      -4.805  -0.246  -1.732  0.00  0.00    +0.054 C 
ATOM     24  C   LIG A   1      -4.974  -0.161  -0.231  0.00  0.00    +0.064 C 
ATOM     25  N   LIG A   1      -5.055  -1.296  -2.424  0.00  0.00    -0.097 NA
BRANCH  25  26
ATOM     26  O   LIG A   1      -5.437  -2.390  -1.624  0.00  0.00    -0.409 OA
ATOM     27  H   LIG A   1      -5.594  -3.090  -2.272  0.00  0.00    +0.328 HD
ENDBRANCH  25  26
ENDBRANCH  22  23
ENDBRANCH  21  22
ENDBRANCH  20  21
ENDBRANCH  19  20
ENDBRANCH  18  19
ENDBRANCH  17  18
ENDBRANCH  16  17
ENDBRANCH  15  16
ENDBRANCH   1  15
TORSDOF 15
