REMARK  Name = NuBBE_1750
REMARK  4 active torsions:
REMARK  status: ('A' for Active; 'I' for Inactive)
REMARK    1  A    between atoms: C_1  and  C_2
REMARK    2  A    between atoms: C_1  and  C_3
REMARK    3  A    between atoms: C_1  and  C_4
REMARK    4  A    between atoms: C_7  and  C_10
REMARK                            x       y       z     vdW  Elec       q    Type
REMARK                         _______ _______ _______ _____ _____    ______ ____
ROOT
ATOM      1  C   LIG A   1      -0.575   0.213   0.091  0.00  0.00    -0.067 C 
ATOM      2  C   LIG A   1       0.119   1.364   0.195  0.00  0.00    -0.023 C 
ATOM      3  C   LIG A   1       1.613   1.470   0.070  0.00  0.00    +0.057 C 
ATOM      4  C   LIG A   1       2.304   0.155  -0.189  0.00  0.00    -0.072 C 
ATOM      5  C   LIG A   1       1.621  -0.999  -0.292  0.00  0.00    -0.023 C 
ATOM      6  C   LIG A   1       0.126  -1.106  -0.166  0.00  0.00    +0.057 C 
ATOM      7  C   LIG A   1       3.798   0.215  -0.323  0.00  0.00    +0.039 C 
ENDROOT
BRANCH   1   8
ATOM      8  C   LIG A   1      -2.092   0.203   0.229  0.00  0.00    +0.009 C 
ATOM      9  C   LIG A   1      -2.781  -0.242  -1.063  0.00  0.00    +0.012 C 
ATOM     10  C   LIG A   1      -2.558  -0.649   1.411  0.00  0.00    +0.012 C 
ENDBRANCH   1   8
TORSDOF 1
