@<TRIPOS>MOLECULE
NuBBE_2500
 50 52 0 0 0
SMALL
GASTEIGER

@<TRIPOS>ATOM
      1 C          -3.6369    2.8680    0.0265 C.3     1  LIG1       -0.0612
      2 C          -3.0707    2.1307   -1.1786 C.3     1  LIG1       -0.0299
      3 C          -2.5537    0.7413   -0.8303 C.ar    1  LIG1       -0.0388
      4 C          -3.4306   -0.3643   -0.9524 C.ar    1  LIG1       -0.0469
      5 C          -4.8485   -0.2287   -1.4455 C.3     1  LIG1       -0.0394
      6 C          -2.9728   -1.6415   -0.6257 C.ar    1  LIG1       -0.0583
      7 C          -1.6729   -1.8380   -0.1723 C.ar    1  LIG1       -0.0574
      8 C          -0.7649   -0.7713   -0.0347 C.ar    1  LIG1       -0.0353
      9 C          -1.2153    0.5324   -0.3646 C.ar    1  LIG1       -0.0120
     10 C          -0.2724    1.6975   -0.1597 C.3     1  LIG1        0.0810
     11 H          -0.4785    2.5147   -0.8528 H       1  LIG1        0.0644
     12 O          -0.4057    2.2143    1.1621 O.3     1  LIG1       -0.3872
     13 C           1.1736    1.2895   -0.3980 C.3     1  LIG1       -0.0182
     14 C           1.6136    0.1875    0.5796 C.3     1  LIG1       -0.0171
     15 H           1.4605    0.6073    1.5855 H       1  LIG1        0.0319
     16 C           3.1617   -0.1041    0.4577 C.3     1  LIG1        0.0271
     17 C           3.9136    0.8187    1.4441 C.3     1  LIG1       -0.0528
     18 C           3.7671    0.1391   -0.9417 C.3     1  LIG1       -0.0528
     19 C           3.4708   -1.5609    0.8055 C.2     1  LIG1        0.1392
     20 O           4.3920   -1.8811    1.5588 O.2     1  LIG1       -0.2968
     21 C           2.6729   -2.6329    0.1040 C.3     1  LIG1        0.0072
     22 C           1.3327   -2.1318   -0.4162 C.3     1  LIG1       -0.0366
     23 C           0.6637   -1.0698    0.4956 C.3     1  LIG1       -0.0025
     24 C           0.4906   -1.6302    1.9379 C.3     1  LIG1       -0.0552
     25 H          -4.0408    3.8374   -0.2827 H       1  LIG1        0.0233
     26 H          -2.8723    3.0537    0.7850 H       1  LIG1        0.0233
     27 H          -4.4450    2.3017    0.5006 H       1  LIG1        0.0233
     28 H          -2.2938    2.7311   -1.6597 H       1  LIG1        0.0311
     29 H          -3.8465    2.0636   -1.9497 H       1  LIG1        0.0311
     30 H          -5.3952    0.5158   -0.8594 H       1  LIG1        0.0278
     31 H          -5.3988   -1.1715   -1.3529 H       1  LIG1        0.0278
     32 H          -4.8556    0.0533   -2.5031 H       1  LIG1        0.0278
     33 H          -3.6308   -2.5037   -0.7156 H       1  LIG1        0.0620
     34 H          -1.3846   -2.8550    0.0852 H       1  LIG1        0.0621
     35 H          -1.1177    1.7174    1.6017 H       1  LIG1        0.2102
     36 H           1.8094    2.1719   -0.2548 H       1  LIG1        0.0297
     37 H           1.2887    0.9573   -1.4370 H       1  LIG1        0.0297
     38 H           3.7111    1.8749    1.2365 H       1  LIG1        0.0239
     39 H           4.9986    0.6725    1.3836 H       1  LIG1        0.0239
     40 H           3.6187    0.6148    2.4802 H       1  LIG1        0.0239
     41 H           3.7629    1.2009   -1.2101 H       1  LIG1        0.0239
     42 H           3.2371   -0.4087   -1.7260 H       1  LIG1        0.0239
     43 H           4.8116   -0.1949   -0.9784 H       1  LIG1        0.0239
     44 H           2.5048   -3.4427    0.8238 H       1  LIG1        0.0342
     45 H           3.2704   -3.0330   -0.7217 H       1  LIG1        0.0342
     46 H           0.6974   -3.0139   -0.5568 H       1  LIG1        0.0278
     47 H           1.4579   -1.7142   -1.4234 H       1  LIG1        0.0278
     48 H           0.0075   -2.6137    1.9411 H       1  LIG1        0.0238
     49 H          -0.1292   -0.9593    2.5459 H       1  LIG1        0.0238
     50 H           1.4440   -1.7423    2.4631 H       1  LIG1        0.0238
@<TRIPOS>BOND
     1     1     2    1
     2     2     3    1
     3     3     4   ar
     4     4     5    1
     5     4     6   ar
     6     6     7   ar
     7     7     8   ar
     8     8     9   ar
     9     3     9   ar
    10     9    10    1
    11    10    13    1
    12    13    14    1
    13    14    15    1
    14    14    16    1
    15    16    17    1
    16    16    18    1
    17    16    19    1
    18    19    20    2
    19    19    21    1
    20    21    22    1
    21    22    23    1
    22     8    23    1
    23    14    23    1
    24    23    24    1
    25    10    12    1
    26    10    11    1
    27     1    25    1
    28     1    26    1
    29     1    27    1
    30     2    28    1
    31     2    29    1
    32     5    30    1
    33     5    31    1
    34     5    32    1
    35     6    33    1
    36     7    34    1
    37    12    35    1
    38    13    36    1
    39    13    37    1
    40    17    38    1
    41    17    39    1
    42    17    40    1
    43    18    41    1
    44    18    42    1
    45    18    43    1
    46    21    44    1
    47    21    45    1
    48    22    46    1
    49    22    47    1
    50    24    48    1
    51    24    49    1
    52    24    50    1
