@<TRIPOS>MOLECULE
NuBBE_1126
 41 42 0 0 0
SMALL
GASTEIGER

@<TRIPOS>ATOM
      1 O          -6.0008   -0.6138   -1.5406 O.3     1  LIG1       -0.5062
      2 C          -4.6581   -0.6198   -1.2480 C.ar    1  LIG1        0.1248
      3 C          -4.0715   -1.7924   -0.7894 C.ar    1  LIG1       -0.0161
      4 C          -2.7016   -1.8196   -0.5123 C.ar    1  LIG1       -0.0159
      5 C          -1.8977   -0.6959   -0.7419 C.ar    1  LIG1        0.1285
      6 C          -2.5005    0.5198   -1.2001 C.ar    1  LIG1        0.0273
      7 C          -1.7820    1.7181   -1.4430 C.ar    1  LIG1       -0.0504
      8 C          -2.4263    2.8962   -1.8430 C.ar    1  LIG1       -0.0611
      9 C          -3.8006    2.9189   -2.0067 C.ar    1  LIG1       -0.0611
     10 C          -4.5314    1.7566   -1.8123 C.ar    1  LIG1       -0.0504
     11 C          -3.9081    0.5492   -1.4198 C.ar    1  LIG1        0.0270
     12 O          -0.5226   -0.7008   -0.5372 O.3     1  LIG1       -0.4888
     13 C           0.0532   -1.9380   -0.0683 C.3     1  LIG1        0.1166
     14 C           1.5910   -1.8699    0.0619 C.3     1  LIG1        0.1015
     15 H           1.9501   -2.8546    0.3879 H       1  LIG1        0.0640
     16 O           2.1845   -1.6154   -1.2197 O.3     1  LIG1       -0.3872
     17 C           2.0443   -0.8024    1.0772 C.3     1  LIG1        0.0254
     18 N           3.5093   -0.7609    1.2095 N.3     1  LIG1       -0.3112
     19 C           3.9892    0.2240    2.1868 C.3     1  LIG1        0.0021
     20 C           5.5207    0.1822    2.2286 C.3     1  LIG1       -0.0499
     21 C           3.5342    1.6570    1.8986 C.3     1  LIG1       -0.0499
     22 H          -6.3395   -1.5216   -1.4887 H       1  LIG1        0.2922
     23 H          -4.6594   -2.6911   -0.6379 H       1  LIG1        0.0655
     24 H          -2.3064   -2.7477   -0.1201 H       1  LIG1        0.0655
     25 H          -0.7027    1.7308   -1.3197 H       1  LIG1        0.0625
     26 H          -1.8470    3.7995   -2.0116 H       1  LIG1        0.0618
     27 H          -4.3117    3.8405   -2.2874 H       1  LIG1        0.0618
     28 H          -5.6155    1.7891   -1.9459 H       1  LIG1        0.0625
     29 H          -0.1808   -2.7356   -0.7843 H       1  LIG1        0.0723
     30 H          -0.3660   -2.1769    0.9167 H       1  LIG1        0.0723
     31 H           1.9158   -0.7168   -1.4783 H       1  LIG1        0.2100
     32 H           1.5966   -1.0192    2.0533 H       1  LIG1        0.0450
     33 H           1.6819    0.1670    0.7253 H       1  LIG1        0.0450
     34 H           3.9290   -0.6119    0.2898 H       1  LIG1        0.1223
     35 H           3.6246   -0.0654    3.1800 H       1  LIG1        0.0455
     36 H           5.9587    0.4133    1.2506 H       1  LIG1        0.0245
     37 H           5.8832   -0.8033    2.5401 H       1  LIG1        0.0245
     38 H           5.9075    0.9163    2.9454 H       1  LIG1        0.0245
     39 H           3.8663    1.9921    0.9102 H       1  LIG1        0.0245
     40 H           3.9441    2.3460    2.6452 H       1  LIG1        0.0245
     41 H           2.4457    1.7562    1.9494 H       1  LIG1        0.0245
@<TRIPOS>BOND
     1     1     2    1
     2     2     3   ar
     3     3     4   ar
     4     4     5   ar
     5     5     6   ar
     6     6     7   ar
     7     7     8   ar
     8     8     9   ar
     9     9    10   ar
    10    10    11   ar
    11     6    11   ar
    12     2    11   ar
    13     5    12    1
    14    12    13    1
    15    13    14    1
    16    14    15    1
    17    14    16    1
    18    14    17    1
    19    17    18    1
    20    18    19    1
    21    19    20    1
    22    19    21    1
    23     1    22    1
    24     3    23    1
    25     4    24    1
    26     7    25    1
    27     8    26    1
    28     9    27    1
    29    10    28    1
    30    13    29    1
    31    13    30    1
    32    16    31    1
    33    17    32    1
    34    17    33    1
    35    18    34    1
    36    19    35    1
    37    20    36    1
    38    20    37    1
    39    20    38    1
    40    21    39    1
    41    21    40    1
    42    21    41    1
