@<TRIPOS>MOLECULE
NuBBE_1027
 82 86 0 0 0
SMALL
GASTEIGER

@<TRIPOS>ATOM
      1 O           2.8969    0.7165   -4.8301 O.3     1  LIG1       -0.3912
      2 C           3.9217    0.7277   -3.8310 C.3     1  LIG1        0.0606
      3 H           4.8636    0.8337   -4.3832 H       1  LIG1        0.0599
      4 C           3.7316    1.9711   -2.9661 C.3     1  LIG1       -0.0258
      5 C           2.5255    1.8746   -2.0250 C.3     1  LIG1       -0.0447
      6 C           2.5100    0.6045   -1.1152 C.3     1  LIG1       -0.0252
      7 C           3.6217    0.7866   -0.0542 C.3     1  LIG1       -0.0590
      8 C           2.7113   -0.6514   -2.0460 C.3     1  LIG1       -0.0278
      9 C           2.5655   -1.9633   -1.2504 C.3     1  LIG1       -0.0486
     10 C           1.1585   -2.0824   -0.6544 C.3     1  LIG1       -0.0466
     11 C           0.7462   -0.9089    0.2808 C.3     1  LIG1       -0.0229
     12 C           1.5834   -1.0740    1.5846 C.3     1  LIG1       -0.0588
     13 C           1.0670    0.4634   -0.4458 C.3     1  LIG1       -0.0271
     14 H           0.4007    0.4971   -1.3167 H       1  LIG1        0.0312
     15 C           0.6389    1.6636    0.4326 C.3     1  LIG1       -0.0227
     16 C          -0.8574    1.6293    0.7697 C.3     1  LIG1        0.0591
     17 O          -1.5884    1.8346   -0.4330 O.3     1  LIG1       -0.3915
     18 C          -1.2595    0.3115    1.4593 C.3     1  LIG1       -0.0052
     19 H          -0.6248    0.2784    2.3563 H       1  LIG1        0.0334
     20 C          -0.8531   -0.9698    0.6348 C.3     1  LIG1       -0.0209
     21 C          -1.6957   -1.1098   -0.6673 C.3     1  LIG1       -0.0587
     22 C          -1.1900   -2.2120    1.5114 C.3     1  LIG1       -0.0463
     23 C          -2.6537   -2.2680    1.9382 C.3     1  LIG1       -0.0468
     24 C          -3.1017   -1.0301    2.7437 C.3     1  LIG1       -0.0283
     25 C          -2.5592   -1.1330    4.1821 C.3     1  LIG1       -0.0593
     26 C          -2.6935    0.3284    2.0931 C.3     1  LIG1       -0.0235
     27 H          -2.6064    1.0553    2.9167 H       1  LIG1        0.0315
     28 C          -3.9214    0.8048    1.2524 C.3     1  LIG1       -0.0167
     29 H          -3.7051    0.8062    0.1816 H       1  LIG1        0.0348
     30 C          -4.4070    2.2153    1.6265 C.2     1  LIG1       -0.0763
     31 C          -4.0971    3.3167    0.6470 C.3     1  LIG1       -0.0438
     32 C          -5.1203    2.5055    2.7294 C.2     1  LIG1       -0.0994
     33 C          -5.0106   -0.2657    1.4801 C.3     1  LIG1       -0.0457
     34 C          -4.6366   -0.9709    2.7759 C.3     1  LIG1       -0.0468
     35 H           1.8396   -0.6473   -2.7201 H       1  LIG1        0.0312
     36 C           3.9445   -0.6041   -3.0226 C.3     1  LIG1       -0.0056
     37 C           5.3020   -0.7496   -2.3055 C.3     1  LIG1       -0.0572
     38 C           3.8621   -1.7808   -4.0334 C.3     1  LIG1       -0.0572
     39 H           2.0345    0.6219   -4.3942 H       1  LIG1        0.2098
     40 H           3.5820    2.8439   -3.6146 H       1  LIG1        0.0290
     41 H           4.6441    2.1690   -2.3955 H       1  LIG1        0.0290
     42 H           1.6100    1.9062   -2.6296 H       1  LIG1        0.0271
     43 H           2.5149    2.7831   -1.4110 H       1  LIG1        0.0271
     44 H           4.4374    1.4250   -0.4028 H       1  LIG1        0.0235
     45 H           4.0867   -0.1545    0.2432 H       1  LIG1        0.0235
     46 H           3.2548    1.2762    0.8510 H       1  LIG1        0.0235
     47 H           3.3273   -2.0567   -0.4724 H       1  LIG1        0.0268
     48 H           2.7022   -2.8288   -1.9063 H       1  LIG1        0.0268
     49 H           1.0857   -3.0385   -0.1225 H       1  LIG1        0.0271
     50 H           0.4717   -2.1551   -1.5034 H       1  LIG1        0.0271
     51 H           2.6557   -1.0417    1.4091 H       1  LIG1        0.0235
     52 H           1.4207   -2.0525    2.0470 H       1  LIG1        0.0235
     53 H           1.3675   -0.3131    2.3367 H       1  LIG1        0.0235
     54 H           0.8388    2.6016   -0.0943 H       1  LIG1        0.0293
     55 H           1.2128    1.6980    1.3632 H       1  LIG1        0.0293
     56 H          -1.0817    2.4677    1.4391 H       1  LIG1        0.0596
     57 H          -1.3264    2.6985   -0.7941 H       1  LIG1        0.2098
     58 H          -1.4106   -0.4102   -1.4535 H       1  LIG1        0.0235
     59 H          -2.7616   -0.9632   -0.4949 H       1  LIG1        0.0235
     60 H          -1.6067   -2.1169   -1.0903 H       1  LIG1        0.0235
     61 H          -0.5866   -2.2266    2.4227 H       1  LIG1        0.0271
     62 H          -0.9509   -3.1355    0.9710 H       1  LIG1        0.0271
     63 H          -2.8063   -3.1727    2.5421 H       1  LIG1        0.0271
     64 H          -3.2831   -2.4171    1.0549 H       1  LIG1        0.0271
     65 H          -2.8892   -2.0612    4.6619 H       1  LIG1        0.0235
     66 H          -2.9156   -0.3021    4.8019 H       1  LIG1        0.0235
     67 H          -1.4655   -1.1100    4.2084 H       1  LIG1        0.0235
     68 H          -4.7030    4.2109    0.8319 H       1  LIG1        0.0274
     69 H          -4.3053    2.9972   -0.3788 H       1  LIG1        0.0274
     70 H          -3.0495    3.6161    0.7246 H       1  LIG1        0.0274
     71 H          -5.4584    3.5171    2.9361 H       1  LIG1        0.0534
     72 H          -5.3906    1.7566    3.4637 H       1  LIG1        0.0534
     73 H          -4.9915   -0.9836    0.6511 H       1  LIG1        0.0271
     74 H          -6.0289    0.1356    1.5142 H       1  LIG1        0.0271
     75 H          -5.0984   -1.9622    2.8406 H       1  LIG1        0.0271
     76 H          -4.9922   -0.3963    3.6375 H       1  LIG1        0.0271
     77 H           5.3263   -1.6337   -1.6607 H       1  LIG1        0.0236
     78 H           5.5630    0.1189   -1.7010 H       1  LIG1        0.0236
     79 H           6.1127   -0.8642   -3.0358 H       1  LIG1        0.0236
     80 H           2.8662   -1.8618   -4.4825 H       1  LIG1        0.0236
     81 H           4.0944   -2.7414   -3.5618 H       1  LIG1        0.0236
     82 H           4.5837   -1.6476   -4.8483 H       1  LIG1        0.0236
@<TRIPOS>BOND
     1     2     4    1
     2     4     5    1
     3     5     6    1
     4     6     8    1
     5     8     9    1
     6     9    10    1
     7    10    11    1
     8    11    13    1
     9     6    13    1
    10    13    15    1
    11    15    16    1
    12    16    18    1
    13    18    20    1
    14    11    20    1
    15    20    22    1
    16    22    23    1
    17    23    24    1
    18    24    26    1
    19    18    26    1
    20    26    28    1
    21    30    31    1
    22    30    32    2
    23    28    33    1
    24    33    34    1
    25    24    34    1
    26     8    36    1
    27     2    36    1
    28     1     2    1
    29     2     3    1
    30     6     7    1
    31     8    35    1
    32    11    12    1
    33    13    14    1
    34    16    17    1
    35    18    19    1
    36    20    21    1
    37    24    25    1
    38    26    27    1
    39    36    37    1
    40    36    38    1
    41    28    30    1
    42    28    29    1
    43     1    39    1
    44     4    40    1
    45     4    41    1
    46     5    42    1
    47     5    43    1
    48     7    44    1
    49     7    45    1
    50     7    46    1
    51     9    47    1
    52     9    48    1
    53    10    49    1
    54    10    50    1
    55    12    51    1
    56    12    52    1
    57    12    53    1
    58    15    54    1
    59    15    55    1
    60    16    56    1
    61    17    57    1
    62    21    58    1
    63    21    59    1
    64    21    60    1
    65    22    61    1
    66    22    62    1
    67    23    63    1
    68    23    64    1
    69    25    65    1
    70    25    66    1
    71    25    67    1
    72    31    68    1
    73    31    69    1
    74    31    70    1
    75    32    71    1
    76    32    72    1
    77    33    73    1
    78    33    74    1
    79    34    75    1
    80    34    76    1
    81    37    77    1
    82    37    78    1
    83    37    79    1
    84    38    80    1
    85    38    81    1
    86    38    82    1
