REMARK  Name = NuBBE_2069
REMARK  3 active torsions:
REMARK  status: ('A' for Active; 'I' for Inactive)
REMARK    1  A    between atoms: C_3  and  C_4
REMARK    2  A    between atoms: C_5  and  O_6
REMARK    3  A    between atoms: C_16  and  O_18
REMARK                            x       y       z     vdW  Elec       q    Type
REMARK                         _______ _______ _______ _____ _____    ______ ____
ROOT
ATOM      1  O   LIG A   1      -1.073  -2.930   3.229  0.00  0.00    -0.250 OA
ATOM      2  C   LIG A   1      -0.666  -2.026   2.507  0.00  0.00    +0.319 C 
ATOM      3  C   LIG A   1      -0.900  -1.865   1.034  0.00  0.00    +0.125 C 
ATOM      4  C   LIG A   1      -2.261  -1.004   1.197  0.00  0.00    +0.029 C 
ATOM      5  C   LIG A   1      -1.270  -2.973  -0.392  0.00  0.00    +0.183 C 
ATOM      6  C   LIG A   1      -0.896  -1.752  -0.971  0.00  0.00    +0.066 C 
ATOM      7  C   LIG A   1       0.852  -2.208  -0.692  0.00  0.00    +0.015 C 
ATOM      8  C   LIG A   1       1.186  -0.813  -0.704  0.00  0.00    +0.005 C 
ATOM      9  C   LIG A   1       0.652  -1.537  -2.337  0.00  0.00    +0.170 C 
ATOM     10  O   LIG A   1      -0.397  -3.021  -2.010  0.00  0.00    -0.347 OA
ATOM     11  C   LIG A   1       0.728   0.728  -0.817  0.00  0.00    +0.003 C 
ATOM     12  C   LIG A   1      -0.553   1.256  -1.555  0.00  0.00    +0.004 C 
ATOM     13  C   LIG A   1      -0.558   2.779  -1.783  0.00  0.00    +0.003 C 
ATOM     14  C   LIG A   1      -0.168   3.607  -0.560  0.00  0.00    +0.031 C 
ATOM     15  C   LIG A   1       1.037   3.018   0.172  0.00  0.00    +0.118 C 
ATOM     16  C   LIG A   1       0.685   1.559   0.538  0.00  0.00    +0.025 C 
ATOM     17  C   LIG A   1       1.431   1.005   1.741  0.00  0.00    +0.051 C 
ATOM     18  C   LIG A   1       0.949  -0.387   2.103  0.00  0.00    +0.182 C 
ATOM     19  O   LIG A   1      -0.129  -0.779   2.975  0.00  0.00    -0.461 OA
ATOM     20  C   LIG A   1       0.639  -1.158   0.872  0.00  0.00    +0.060 C 
ENDROOT
BRANCH   5  21
ATOM     21  O   LIG A   1      -0.748  -4.216   0.010  0.00  0.00    -0.364 OA
ATOM     22  H   LIG A   1      -0.551  -4.210   0.961  0.00  0.00    +0.213 HD
ENDBRANCH   5  21
BRANCH  15  23
ATOM     23  O   LIG A   1       1.319   3.805   1.317  0.00  0.00    -0.392 OA
ATOM     24  H   LIG A   1       1.594   4.685   1.000  0.00  0.00    +0.210 HD
ENDBRANCH  15  23
TORSDOF 2
