@<TRIPOS>MOLECULE
NuBBE_240
 81 85 0 0 0
SMALL
GASTEIGER

@<TRIPOS>ATOM
      1 C          -1.8053   -2.1614   -1.4922 C.3     1  LIG1       -0.0585
      2 C          -0.4743   -1.3745   -1.2082 C.3     1  LIG1       -0.0194
      3 C           0.4018   -2.0628    0.0281 C.3     1  LIG1       -0.0051
      4 C           0.3763   -3.6029   -0.1479 C.3     1  LIG1       -0.0553
      5 C          -0.2666   -1.7473    1.4175 C.2     1  LIG1       -0.0632
      6 C          -1.4692   -1.1396    1.4557 C.2     1  LIG1       -0.0836
      7 C          -1.8228   -0.0703    0.4518 C.3     1  LIG1       -0.0306
      8 C          -0.7697    0.0619   -0.6808 C.3     1  LIG1       -0.0257
      9 H           0.1572    0.3783   -0.2008 H       1  LIG1        0.0315
     10 C          -1.0494    1.2486   -1.6741 C.3     1  LIG1       -0.0250
     11 C          -2.5740    1.4440   -1.8210 C.3     1  LIG1       -0.0590
     12 C          -0.2495    1.0784   -3.0181 C.3     1  LIG1       -0.0278
     13 H           0.8172    1.1716   -2.7490 H       1  LIG1        0.0312
     14 C          -0.3630   -0.3453   -3.5816 C.3     1  LIG1       -0.0486
     15 C           0.2328   -1.3608   -2.5942 C.3     1  LIG1       -0.0463
     16 C          -0.4928    2.2451   -4.0526 C.3     1  LIG1       -0.0056
     17 C           0.4862    2.1475   -5.2571 C.3     1  LIG1       -0.0572
     18 C          -1.9090    2.2062   -4.6832 C.3     1  LIG1       -0.0572
     19 C          -0.1464    3.5993   -3.3372 C.3     1  LIG1        0.0606
     20 H           0.9481    3.6598   -3.2625 H       1  LIG1        0.0599
     21 C          -0.6698    3.7836   -1.9096 C.3     1  LIG1       -0.0258
     22 C          -0.4746    2.5533   -1.0314 C.3     1  LIG1       -0.0447
     23 O          -0.5341    4.7241   -4.1251 O.3     1  LIG1       -0.3912
     24 C           0.5788   -1.2926    2.6369 C.3     1  LIG1       -0.0111
     25 H           0.2735   -0.2306    2.5474 H       1  LIG1        0.0354
     26 C           2.0915   -1.0671    2.5190 C.3     1  LIG1       -0.0253
     27 C           2.3704   -0.6009    1.0707 C.3     1  LIG1       -0.0463
     28 C           1.9108   -1.6212    0.0164 C.3     1  LIG1       -0.0429
     29 C           2.9969   -2.2916    2.7642 C.3     1  LIG1       -0.0590
     30 C           2.4860    0.0590    3.5403 C.3     1  LIG1       -0.0468
     31 C           1.3815    0.6164    4.4798 C.3     1  LIG1       -0.0497
     32 C           0.2202   -0.3142    4.9299 C.3     1  LIG1       -0.0407
     33 H           0.3984   -0.5978    5.9755 H       1  LIG1        0.0301
     34 C           0.0732   -1.6057    4.0776 C.3     1  LIG1       -0.0343
     35 H          -0.9829   -1.8930    4.0347 H       1  LIG1        0.0307
     36 C           0.7333   -2.7619    4.8281 C.3     1  LIG1       -0.0616
     37 C          -1.1095    0.4708    4.9371 C.3     1  LIG1       -0.0622
     38 H          -2.4026   -2.3736   -0.6031 H       1  LIG1        0.0235
     39 H          -1.6056   -3.1333   -1.9582 H       1  LIG1        0.0235
     40 H          -2.4521   -1.6144   -2.1850 H       1  LIG1        0.0235
     41 H          -0.6302   -4.0209   -0.0321 H       1  LIG1        0.0238
     42 H           1.0020   -4.1063    0.5991 H       1  LIG1        0.0238
     43 H           0.7486   -3.8932   -1.1371 H       1  LIG1        0.0238
     44 H          -1.9692   -0.9387    2.4068 H       1  LIG1        0.0572
     45 H          -1.8707    0.8735    1.0027 H       1  LIG1        0.0310
     46 H          -2.8248   -0.2810    0.0792 H       1  LIG1        0.0310
     47 H          -3.0616    0.5586   -2.2331 H       1  LIG1        0.0235
     48 H          -2.8491    2.3006   -2.4316 H       1  LIG1        0.0235
     49 H          -3.0404    1.6746   -0.8563 H       1  LIG1        0.0235
     50 H           0.2174   -0.4355   -4.5059 H       1  LIG1        0.0268
     51 H          -1.3942   -0.5970   -3.8400 H       1  LIG1        0.0268
     52 H           1.2955   -1.1350   -2.5343 H       1  LIG1        0.0271
     53 H           0.1877   -2.3584   -3.0513 H       1  LIG1        0.0271
     54 H           1.5316    2.1993   -4.9366 H       1  LIG1        0.0236
     55 H           0.3176    2.9759   -5.9580 H       1  LIG1        0.0236
     56 H           0.3506    1.2247   -5.8284 H       1  LIG1        0.0236
     57 H          -2.4685    1.3116   -4.3965 H       1  LIG1        0.0236
     58 H          -1.8786    2.1758   -5.7781 H       1  LIG1        0.0236
     59 H          -2.5147    3.0758   -4.4145 H       1  LIG1        0.0236
     60 H          -1.7202    4.0914   -1.9128 H       1  LIG1        0.0290
     61 H          -0.1382    4.6290   -1.4507 H       1  LIG1        0.0290
     62 H          -0.9219    2.7367   -0.0473 H       1  LIG1        0.0271
     63 H           0.6042    2.4321   -0.8483 H       1  LIG1        0.0271
     64 H          -1.4850    4.8746   -3.9916 H       1  LIG1        0.2098
     65 H           3.4458   -0.4307    0.9339 H       1  LIG1        0.0271
     66 H           1.9009    0.3700    0.8835 H       1  LIG1        0.0271
     67 H           2.5494   -2.5097    0.1004 H       1  LIG1        0.0274
     68 H           2.2092   -1.2005   -0.9392 H       1  LIG1        0.0274
     69 H           2.7077   -3.1574    2.1646 H       1  LIG1        0.0235
     70 H           3.0271   -2.6110    3.8034 H       1  LIG1        0.0235
     71 H           4.0381   -2.0442    2.5190 H       1  LIG1        0.0235
     72 H           2.8730    0.9243    2.9820 H       1  LIG1        0.0271
     73 H           3.3277   -0.2681    4.1608 H       1  LIG1        0.0271
     74 H           0.9586    1.5030    3.9858 H       1  LIG1        0.0268
     75 H           1.8685    1.0163    5.3789 H       1  LIG1        0.0268
     76 H           1.6924   -2.4715    5.2671 H       1  LIG1        0.0233
     77 H           0.8571   -3.6460    4.1989 H       1  LIG1        0.0233
     78 H           0.1062   -3.0478    5.6823 H       1  LIG1        0.0233
     79 H          -1.9707   -0.1970    5.0539 H       1  LIG1        0.0233
     80 H          -1.2570    1.0382    4.0114 H       1  LIG1        0.0233
     81 H          -1.1328    1.1783    5.7723 H       1  LIG1        0.0233
@<TRIPOS>BOND
     1     2     3    1
     2     3     5    1
     3     5     6    2
     4     6     7    1
     5     7     8    1
     6     2     8    1
     7     8    10    1
     8    10    12    1
     9    12    14    1
    10    14    15    1
    11     2    15    1
    12    12    16    1
    13    16    19    1
    14    19    21    1
    15    21    22    1
    16    10    22    1
    17     5    24    1
    18    24    26    1
    19    26    27    1
    20    27    28    1
    21     3    28    1
    22    26    30    1
    23    30    31    1
    24    31    32    1
    25    32    34    1
    26    24    34    1
    27     1     2    1
    28     3     4    1
    29     8     9    1
    30    10    11    1
    31    12    13    1
    32    16    17    1
    33    16    18    1
    34    24    25    1
    35    26    29    1
    36    34    35    1
    37    34    36    1
    38    19    23    1
    39    19    20    1
    40    32    37    1
    41    32    33    1
    42     1    38    1
    43     1    39    1
    44     1    40    1
    45     4    41    1
    46     4    42    1
    47     4    43    1
    48     6    44    1
    49     7    45    1
    50     7    46    1
    51    11    47    1
    52    11    48    1
    53    11    49    1
    54    14    50    1
    55    14    51    1
    56    15    52    1
    57    15    53    1
    58    17    54    1
    59    17    55    1
    60    17    56    1
    61    18    57    1
    62    18    58    1
    63    18    59    1
    64    21    60    1
    65    21    61    1
    66    22    62    1
    67    22    63    1
    68    23    64    1
    69    27    65    1
    70    27    66    1
    71    28    67    1
    72    28    68    1
    73    29    69    1
    74    29    70    1
    75    29    71    1
    76    30    72    1
    77    30    73    1
    78    31    74    1
    79    31    75    1
    80    36    76    1
    81    36    77    1
    82    36    78    1
    83    37    79    1
    84    37    80    1
    85    37    81    1
