REMARK  Name = NuBBE_2474
REMARK  16 active torsions:
REMARK  status: ('A' for Active; 'I' for Inactive)
REMARK    1  A    between atoms: C_1  and  O_2
REMARK    2  A    between atoms: O_2  and  C_3
REMARK    3  A    between atoms: C_5  and  C_6
REMARK    4  A    between atoms: C_6  and  C_7
REMARK    5  A    between atoms: C_9  and  C_11
REMARK    6  A    between atoms: C_11  and  O_12
REMARK    7  A    between atoms: O_12  and  C_13
REMARK    8  A    between atoms: C_13  and  C_14
REMARK    9  A    between atoms: C_16  and  C_18
REMARK   10  A    between atoms: C_21  and  O_22
REMARK   11  A    between atoms: O_22  and  C_23
REMARK   12  A    between atoms: C_23  and  C_24
REMARK   13  A    between atoms: C_26  and  O_27
REMARK   14  A    between atoms: O_27  and  C_28
REMARK   15  A    between atoms: C_34  and  O_35
REMARK   16  A    between atoms: O_35  and  C_36
REMARK                            x       y       z     vdW  Elec       q    Type
REMARK                         _______ _______ _______ _____ _____    ______ ____
ROOT
ATOM      1  C   LIG A   1       0.321  -1.102  -0.424  0.00  0.00    +0.028 C 
ATOM      2  C   LIG A   1      -1.010  -0.353  -0.472  0.00  0.00    +0.066 C 
ATOM      3  C   LIG A   1      -0.647   1.043   0.015  0.00  0.00    +0.155 C 
ATOM      4  O   LIG A   1       0.434   0.838   0.954  0.00  0.00    -0.371 OA
ATOM      5  C   LIG A   1       0.845  -0.537   0.895  0.00  0.00    +0.165 C 
ENDROOT
BRANCH   3   6
ATOM      6  C   LIG A   1      -1.689   1.884   0.724  0.00  0.00    -0.015 A 
ATOM      7  C   LIG A   1      -2.757   1.381   1.469  0.00  0.00    +0.010 A 
ATOM      8  C   LIG A   1      -3.561   2.235   2.243  0.00  0.00    +0.050 A 
ATOM      9  C   LIG A   1      -3.347   3.618   2.241  0.00  0.00    +0.173 A 
ATOM     10  C   LIG A   1      -2.310   4.155   1.460  0.00  0.00    +0.163 A 
ATOM     11  C   LIG A   1      -1.500   3.273   0.726  0.00  0.00    +0.055 A 
BRANCH  10  12
ATOM     12  O   LIG A   1      -2.122   5.519   1.433  0.00  0.00    -0.491 OA
ATOM     13  C   LIG A   1      -1.053   5.963   0.587  0.00  0.00    +0.277 C 
ENDBRANCH  10  12
BRANCH   9  14
ATOM     14  O   LIG A   1      -4.133   4.506   3.032  0.00  0.00    -0.422 OA
BRANCH  14  15
ATOM     15  C   LIG A   1      -5.451   4.240   3.425  0.00  0.00    +0.309 C 
ATOM     16  C   LIG A   1      -6.027   5.418   4.160  0.00  0.00    +0.136 C 
ATOM     17  O   LIG A   1      -6.088   3.212   3.224  0.00  0.00    -0.251 OA
ENDBRANCH  14  15
ENDBRANCH   9  14
ENDBRANCH   3   6
BRANCH   1  18
ATOM     18  C   LIG A   1       1.313  -0.861  -1.583  0.00  0.00    +0.041 C 
BRANCH  18  21
ATOM     19  C   LIG A   1       4.121  -3.270  -0.439  0.00  0.00    +0.162 A 
ATOM     20  C   LIG A   1       2.880  -2.619  -0.529  0.00  0.00    +0.053 A 
ATOM     21  C   LIG A   1       2.587  -1.693  -1.541  0.00  0.00    -0.043 A 
ATOM     22  C   LIG A   1       3.540  -1.518  -2.544  0.00  0.00    +0.007 A 
ATOM     23  C   LIG A   1       4.764  -2.193  -2.493  0.00  0.00    +0.050 A 
ATOM     24  C   LIG A   1       5.081  -3.061  -1.437  0.00  0.00    +0.162 A 
BRANCH  19  26
ATOM     25  C   LIG A   1       5.441  -4.311   1.263  0.00  0.00    +0.277 C 
ATOM     26  O   LIG A   1       4.182  -4.119   0.636  0.00  0.00    -0.491 OA
ENDBRANCH  19  26
BRANCH  24  27
ATOM     27  O   LIG A   1       6.300  -3.670  -1.331  0.00  0.00    -0.491 OA
ATOM     28  C   LIG A   1       6.988  -3.966  -2.541  0.00  0.00    +0.277 C 
ENDBRANCH  24  27
ENDBRANCH  18  21
ENDBRANCH   1  18
BRANCH   2  29
ATOM     29  C   LIG A   1      -1.814  -0.438  -1.755  0.00  0.00    +0.238 C 
BRANCH  29  30
ATOM     30  O   LIG A   1      -2.159  -1.795  -2.092  0.00  0.00    -0.464 OA
BRANCH  30  31
ATOM     31  C   LIG A   1      -3.169  -2.326  -1.325  0.00  0.00    +0.304 C 
ATOM     32  C   LIG A   1      -3.961  -3.293  -2.159  0.00  0.00    +0.136 C 
ATOM     33  O   LIG A   1      -3.480  -1.982  -0.209  0.00  0.00    -0.251 OA
ENDBRANCH  30  31
ENDBRANCH  29  30
ENDBRANCH   2  29
TORSDOF 11
