@<TRIPOS>MOLECULE
NuBBE_251
 27 27 0 0 0
SMALL
GASTEIGER

@<TRIPOS>ATOM
      1 O          -3.6779    1.7886    0.3035 O.3     1  LIG1       -0.5066
      2 C          -2.3275    1.9736    0.2839 C.ar    1  LIG1        0.1209
      3 C          -1.7641    3.2378    0.2399 C.ar    1  LIG1        0.0220
      4 C          -0.3734    3.3516    0.2193 C.ar    1  LIG1        0.1311
      5 O           0.1818    4.6050    0.1684 O.3     1  LIG1       -0.5059
      6 C           0.4602    2.2125    0.2461 C.ar    1  LIG1        0.0629
      7 C           1.9322    2.4580    0.2028 C.2     1  LIG1        0.1543
      8 H           2.2455    3.5143    0.1502 H       1  LIG1        0.1083
      9 O           2.7910    1.5884    0.2195 O.2     1  LIG1       -0.2956
     10 C          -0.1196    0.9235    0.2854 C.ar    1  LIG1       -0.0079
     11 C           0.6610   -0.3323    0.3479 C.2     1  LIG1       -0.0537
     12 C           0.2504   -1.5041   -0.1639 C.2     1  LIG1       -0.0615
     13 C           1.0368   -2.7136   -0.1080 C.2     1  LIG1       -0.0659
     14 C           0.6093   -3.8649   -0.6471 C.2     1  LIG1       -0.0871
     15 C           1.3859   -5.1386   -0.6166 C.3     1  LIG1       -0.0465
     16 C          -1.5271    0.8368    0.3124 C.ar    1  LIG1       -0.0121
     17 H          -4.1260    2.6495    0.2837 H       1  LIG1        0.2921
     18 H          -2.3960    4.1184    0.2232 H       1  LIG1        0.0691
     19 H          -0.5199    5.2768    0.1213 H       1  LIG1        0.2922
     20 H           1.6320   -0.2780    0.8342 H       1  LIG1        0.0624
     21 H          -0.7113   -1.5852   -0.6635 H       1  LIG1        0.0618
     22 H           2.0077   -2.6643    0.3813 H       1  LIG1        0.0614
     23 H          -0.3566   -3.9096   -1.1456 H       1  LIG1        0.0569
     24 H           2.2989   -5.0522   -0.0197 H       1  LIG1        0.0272
     25 H           1.6634   -5.4298   -1.6341 H       1  LIG1        0.0272
     26 H           0.7712   -5.9345   -0.1856 H       1  LIG1        0.0272
     27 H          -2.0277   -0.1279    0.3611 H       1  LIG1        0.0660
@<TRIPOS>BOND
     1     1     2    1
     2     2     3   ar
     3     3     4   ar
     4     4     5    1
     5     4     6   ar
     6     6     7    1
     7     7     8    1
     8     7     9    2
     9     6    10   ar
    10    10    11    1
    11    11    12    2
    12    12    13    1
    13    13    14    2
    14    14    15    1
    15    10    16   ar
    16     2    16   ar
    17     1    17    1
    18     3    18    1
    19     5    19    1
    20    11    20    1
    21    12    21    1
    22    13    22    1
    23    14    23    1
    24    15    24    1
    25    15    25    1
    26    15    26    1
    27    16    27    1
