@<TRIPOS>MOLECULE
NuBBE_2452
 31 33 0 0 0
SMALL
GASTEIGER

@<TRIPOS>ATOM
      1 O          -3.5744   -0.9088    0.5539 O.2     1  LIG1       -0.2918
      2 C          -2.3555   -0.8192    0.4481 C.2     1  LIG1        0.1705
      3 C          -1.5178   -2.0205    0.2577 C.ar    1  LIG1        0.0594
      4 C          -0.1351   -1.8643    0.1315 C.ar    1  LIG1        0.1353
      5 O           0.4887   -0.6442    0.1340 O.3     1  LIG1       -0.4830
      6 C          -0.3778    0.4212   -0.2917 C.3     1  LIG1        0.1322
      7 C          -1.6275    0.4891    0.5765 C.3     1  LIG1        0.0519
      8 C           0.4095    1.7168   -0.2314 C.ar    1  LIG1       -0.0067
      9 C           0.4856    2.5507   -1.3591 C.ar    1  LIG1       -0.0516
     10 C           1.2025    3.7496   -1.3132 C.ar    1  LIG1       -0.0198
     11 C           1.8431    4.1196   -0.1360 C.ar    1  LIG1        0.1169
     12 C           1.7800    3.3118    0.9917 C.ar    1  LIG1       -0.0198
     13 C           1.0671    2.1128    0.9451 C.ar    1  LIG1       -0.0516
     14 O           2.5533    5.2799   -0.0474 O.3     1  LIG1       -0.5068
     15 C           0.6872   -2.9851    0.0205 C.ar    1  LIG1        0.0223
     16 C           0.1102   -4.2522    0.0033 C.ar    1  LIG1        0.1204
     17 C          -1.2689   -4.4151    0.1069 C.ar    1  LIG1       -0.0193
     18 C          -2.0906   -3.2952    0.2396 C.ar    1  LIG1       -0.0443
     19 O           0.8717   -5.3766   -0.1165 O.3     1  LIG1       -0.5066
     20 H          -0.6521    0.2263   -1.3391 H       1  LIG1        0.0789
     21 H          -2.2852    1.2986    0.2414 H       1  LIG1        0.0385
     22 H          -1.3934    0.6352    1.6372 H       1  LIG1        0.0385
     23 H          -0.0106    2.2716   -2.2865 H       1  LIG1        0.0623
     24 H           1.2492    4.3746   -2.1993 H       1  LIG1        0.0654
     25 H           2.2871    3.6121    1.9043 H       1  LIG1        0.0654
     26 H           1.0344    1.4844    1.8329 H       1  LIG1        0.0623
     27 H           2.5179    5.7318   -0.9061 H       1  LIG1        0.2921
     28 H           1.7614   -2.8526   -0.0617 H       1  LIG1        0.0691
     29 H          -1.7011   -5.4124    0.0936 H       1  LIG1        0.0654
     30 H          -3.1667   -3.4198    0.3389 H       1  LIG1        0.0627
     31 H           1.8076   -5.1203   -0.1691 H       1  LIG1        0.2921
@<TRIPOS>BOND
     1     1     2    2
     2     2     3    1
     3     3     4   ar
     4     4     5    1
     5     5     6    1
     6     6     7    1
     7     2     7    1
     8     6     8    1
     9     8     9   ar
    10     9    10   ar
    11    10    11   ar
    12    11    12   ar
    13    12    13   ar
    14     8    13   ar
    15    11    14    1
    16     4    15   ar
    17    15    16   ar
    18    16    17   ar
    19    17    18   ar
    20     3    18   ar
    21    16    19    1
    22     6    20    1
    23     7    21    1
    24     7    22    1
    25     9    23    1
    26    10    24    1
    27    12    25    1
    28    13    26    1
    29    14    27    1
    30    15    28    1
    31    17    29    1
    32    18    30    1
    33    19    31    1
