@<TRIPOS>MOLECULE
NuBBE_2274
 86 85 0 0 0
SMALL
GASTEIGER

@<TRIPOS>ATOM
      1 O           2.2931   -9.3556    6.1498 O.3     1  LIG1       -0.4806
      2 C           1.3185  -10.3192    6.2891 C.2     1  LIG1        0.3047
      3 C           0.4445  -10.3942    5.0232 C.3     1  LIG1        0.0448
      4 C          -0.8940   -9.6520    5.0174 C.3     1  LIG1       -0.0430
      5 C          -0.7883   -8.1197    4.9816 C.3     1  LIG1       -0.0526
      6 C           0.0289   -7.4808    3.8347 C.3     1  LIG1       -0.0530
      7 C          -0.5515   -7.6438    2.4198 C.3     1  LIG1       -0.0531
      8 C           0.2767   -7.0196    1.2704 C.3     1  LIG1       -0.0531
      9 C           0.8048   -5.5981    1.5065 C.3     1  LIG1       -0.0531
     10 C           1.5349   -5.0566    0.2646 C.3     1  LIG1       -0.0531
     11 C           2.0981   -3.6343    0.4243 C.3     1  LIG1       -0.0531
     12 C           3.1101   -3.5291    1.5727 C.3     1  LIG1       -0.0531
     13 C           3.5764   -2.1001    1.9032 C.3     1  LIG1       -0.0531
     14 C           4.2868   -1.4298    0.7297 C.3     1  LIG1       -0.0531
     15 C           4.8226   -0.0062    0.9713 C.3     1  LIG1       -0.0531
     16 C           3.8602    1.1863    1.3084 C.3     1  LIG1       -0.0531
     17 C           2.7507    1.5331    0.2471 C.3     1  LIG1       -0.0531
     18 C           1.7772    2.7682    0.5335 C.3     1  LIG1       -0.0531
     19 C           0.6618    3.0883   -0.5736 C.3     1  LIG1       -0.0531
     20 C          -0.2402    4.3831   -0.3653 C.3     1  LIG1       -0.0531
     21 C          -1.3971    4.6464   -1.4308 C.3     1  LIG1       -0.0531
     22 C          -2.3058    5.8836   -1.1004 C.3     1  LIG1       -0.0531
     23 C          -3.4380    6.3600   -2.1106 C.3     1  LIG1       -0.0531
     24 C          -2.9893    6.7351   -3.5694 C.3     1  LIG1       -0.0531
     25 C          -4.0695    7.2122   -4.6056 C.3     1  LIG1       -0.0531
     26 C          -3.5856    7.6690   -6.0278 C.3     1  LIG1       -0.0531
     27 C          -2.7445    8.9407   -6.2829 C.3     1  LIG1       -0.0533
     28 C          -3.1908   10.2674   -5.6715 C.3     1  LIG1       -0.0559
     29 C          -4.5805   10.7009   -6.1151 C.3     1  LIG1       -0.0653
     30 O           1.2213  -11.0270    7.2416 O.2     1  LIG1       -0.2510
     31 H           2.2821   -8.8627    5.3205 H       1  LIG1        0.2951
     32 H           0.2629  -11.4635    4.8680 H       1  LIG1        0.0377
     33 H           1.0298  -10.0690    4.1728 H       1  LIG1        0.0377
     34 H          -1.5169   -9.9498    5.8751 H       1  LIG1        0.0270
     35 H          -1.4430   -9.9842    4.1259 H       1  LIG1        0.0270
     36 H          -0.3348   -7.8034    5.9290 H       1  LIG1        0.0265
     37 H          -1.8014   -7.6954    4.9736 H       1  LIG1        0.0265
     38 H           1.0530   -7.8610    3.8600 H       1  LIG1        0.0265
     39 H           0.0969   -6.4098    4.0606 H       1  LIG1        0.0265
     40 H          -1.5602   -7.2159    2.3883 H       1  LIG1        0.0265
     41 H          -0.6570   -8.7119    2.1951 H       1  LIG1        0.0265
     42 H          -0.3389   -7.0159    0.3603 H       1  LIG1        0.0265
     43 H           1.1239   -7.6824    1.0524 H       1  LIG1        0.0265
     44 H           1.4984   -5.6306    2.3507 H       1  LIG1        0.0265
     45 H          -0.0122   -4.9181    1.7729 H       1  LIG1        0.0265
     46 H           0.8487   -5.0628   -0.5924 H       1  LIG1        0.0265
     47 H           2.3611   -5.7315    0.0105 H       1  LIG1        0.0265
     48 H           1.2813   -2.9160    0.5621 H       1  LIG1        0.0265
     49 H           2.5885   -3.3693   -0.5223 H       1  LIG1        0.0265
     50 H           3.9769   -4.1586    1.3330 H       1  LIG1        0.0265
     51 H           2.6764   -3.9372    2.4900 H       1  LIG1        0.0265
     52 H           4.2673   -2.1736    2.7547 H       1  LIG1        0.0265
     53 H           2.7239   -1.5005    2.2363 H       1  LIG1        0.0265
     54 H           3.6544   -1.4349   -0.1606 H       1  LIG1        0.0265
     55 H           5.1518   -2.0689    0.4891 H       1  LIG1        0.0265
     56 H           5.3931    0.2627    0.0724 H       1  LIG1        0.0265
     57 H           5.5720   -0.0819    1.7744 H       1  LIG1        0.0265
     58 H           4.5162    2.0625    1.4291 H       1  LIG1        0.0265
     59 H           3.4177    1.0093    2.2954 H       1  LIG1        0.0265
     60 H           2.1337    0.6372    0.1390 H       1  LIG1        0.0265
     61 H           3.2619    1.7074   -0.7067 H       1  LIG1        0.0265
     62 H           2.3814    3.6693    0.6953 H       1  LIG1        0.0265
     63 H           1.2533    2.5572    1.4730 H       1  LIG1        0.0265
     64 H          -0.0058    2.2210   -0.6311 H       1  LIG1        0.0265
     65 H           1.1530    3.1898   -1.5480 H       1  LIG1        0.0265
     66 H           0.4177    5.2601   -0.3994 H       1  LIG1        0.0265
     67 H          -0.6866    4.3540    0.6361 H       1  LIG1        0.0265
     68 H          -2.0310    3.7550   -1.5096 H       1  LIG1        0.0265
     69 H          -0.9315    4.8149   -2.4061 H       1  LIG1        0.0265
     70 H          -1.6590    6.7467   -0.9050 H       1  LIG1        0.0265
     71 H          -2.8055    5.6688   -0.1421 H       1  LIG1        0.0265
     72 H          -3.8806    7.2624   -1.6566 H       1  LIG1        0.0265
     73 H          -4.2482    5.6177   -2.1146 H       1  LIG1        0.0265
     74 H          -2.5119    5.8466   -3.9908 H       1  LIG1        0.0265
     75 H          -2.2448    7.5285   -3.4827 H       1  LIG1        0.0265
     76 H          -4.7270    7.9811   -4.1847 H       1  LIG1        0.0265
     77 H          -4.7186    6.3459   -4.8108 H       1  LIG1        0.0265
     78 H          -4.4843    7.7636   -6.6575 H       1  LIG1        0.0265
     79 H          -3.0246    6.8414   -6.4809 H       1  LIG1        0.0265
     80 H          -2.7244    9.1013   -7.3752 H       1  LIG1        0.0265
     81 H          -1.7014    8.7535   -6.0077 H       1  LIG1        0.0265
     82 H          -2.4787   11.0458   -5.9873 H       1  LIG1        0.0263
     83 H          -3.1248   10.2258   -4.5802 H       1  LIG1        0.0263
     84 H          -4.5453   11.6897   -6.5877 H       1  LIG1        0.0230
     85 H          -5.2491   10.7704   -5.2526 H       1  LIG1        0.0230
     86 H          -5.0215   10.0111   -6.8391 H       1  LIG1        0.0230
@<TRIPOS>BOND
     1     1     2    1
     2     2     3    1
     3     3     4    1
     4     4     5    1
     5     5     6    1
     6     6     7    1
     7     7     8    1
     8     8     9    1
     9     9    10    1
    10    10    11    1
    11    11    12    1
    12    12    13    1
    13    13    14    1
    14    14    15    1
    15    15    16    1
    16    16    17    1
    17    17    18    1
    18    18    19    1
    19    19    20    1
    20    20    21    1
    21    21    22    1
    22    22    23    1
    23    23    24    1
    24    24    25    1
    25    25    26    1
    26    26    27    1
    27    27    28    1
    28    28    29    1
    29     2    30    2
    30     1    31    1
    31     3    32    1
    32     3    33    1
    33     4    34    1
    34     4    35    1
    35     5    36    1
    36     5    37    1
    37     6    38    1
    38     6    39    1
    39     7    40    1
    40     7    41    1
    41     8    42    1
    42     8    43    1
    43     9    44    1
    44     9    45    1
    45    10    46    1
    46    10    47    1
    47    11    48    1
    48    11    49    1
    49    12    50    1
    50    12    51    1
    51    13    52    1
    52    13    53    1
    53    14    54    1
    54    14    55    1
    55    15    56    1
    56    15    57    1
    57    16    58    1
    58    16    59    1
    59    17    60    1
    60    17    61    1
    61    18    62    1
    62    18    63    1
    63    19    64    1
    64    19    65    1
    65    20    66    1
    66    20    67    1
    67    21    68    1
    68    21    69    1
    69    22    70    1
    70    22    71    1
    71    23    72    1
    72    23    73    1
    73    24    74    1
    74    24    75    1
    75    25    76    1
    76    25    77    1
    77    26    78    1
    78    26    79    1
    79    27    80    1
    80    27    81    1
    81    28    82    1
    82    28    83    1
    83    29    84    1
    84    29    85    1
    85    29    86    1
