@<TRIPOS>MOLECULE
NuBBE_1678
 59 59 0 0 0
SMALL
GASTEIGER

@<TRIPOS>ATOM
      1 C           4.5706    3.1291    8.4796 C.3     1  LIG1       -0.0653
      2 C           3.5415    2.5849    7.4758 C.3     1  LIG1       -0.0559
      3 C           3.0883    3.4646    6.2943 C.3     1  LIG1       -0.0533
      4 C           1.9527    2.7999    5.3994 C.3     1  LIG1       -0.0531
      5 C           2.3041    1.4717    4.5993 C.3     1  LIG1       -0.0531
      6 C           1.1611    0.8390    3.6466 C.3     1  LIG1       -0.0531
      7 C           1.4734   -0.5059    2.8524 C.3     1  LIG1       -0.0531
      8 C           0.3929   -1.1537    1.8472 C.3     1  LIG1       -0.0531
      9 C          -0.0552   -0.4025    0.5380 C.3     1  LIG1       -0.0531
     10 C          -1.0666   -1.1973   -0.3774 C.3     1  LIG1       -0.0531
     11 C          -1.6482   -0.4937   -1.6417 C.3     1  LIG1       -0.0531
     12 C          -0.6772   -0.0406   -2.7381 C.3     1  LIG1       -0.0530
     13 C           0.2931   -1.0625   -3.3534 C.3     1  LIG1       -0.0528
     14 C          -0.1061   -2.3267   -4.1563 C.3     1  LIG1       -0.0491
     15 C          -0.7523   -2.3207   -5.5660 C.3     1  LIG1       -0.0275
     16 C          -2.1915   -1.8877   -5.7256 C.ar    1  LIG1       -0.0405
     17 C          -2.5050   -0.5403   -5.6057 C.ar    1  LIG1       -0.0168
     18 C          -3.7699   -0.0489   -5.8001 C.ar    1  LIG1        0.1206
     19 O          -4.0761    1.2624   -5.6515 O.3     1  LIG1       -0.5066
     20 C          -4.8065   -0.9214   -6.1998 C.ar    1  LIG1        0.0213
     21 C          -4.4991   -2.2618   -6.3658 C.ar    1  LIG1        0.1206
     22 O          -5.5218   -3.0702   -6.7954 O.3     1  LIG1       -0.5066
     23 C          -3.2257   -2.7693   -6.1337 C.ar    1  LIG1       -0.0168
     24 H           4.7316    2.3624    9.2529 H       1  LIG1        0.0230
     25 H           4.2370    4.0303    9.0058 H       1  LIG1        0.0230
     26 H           5.5509    3.3244    8.0322 H       1  LIG1        0.0230
     27 H           2.6532    2.3206    8.0578 H       1  LIG1        0.0263
     28 H           3.9633    1.6660    7.0638 H       1  LIG1        0.0263
     29 H           3.9449    3.7423    5.6680 H       1  LIG1        0.0265
     30 H           2.7011    4.4146    6.7010 H       1  LIG1        0.0265
     31 H           1.6347    3.5657    4.6792 H       1  LIG1        0.0265
     32 H           1.0899    2.6198    6.0544 H       1  LIG1        0.0265
     33 H           2.6183    0.7205    5.3327 H       1  LIG1        0.0265
     34 H           3.1733    1.7061    3.9750 H       1  LIG1        0.0265
     35 H           0.9047    1.5937    2.8998 H       1  LIG1        0.0265
     36 H           0.2760    0.6564    4.2669 H       1  LIG1        0.0265
     37 H           1.6675   -1.2866    3.6073 H       1  LIG1        0.0265
     38 H           2.4143   -0.3956    2.3010 H       1  LIG1        0.0265
     39 H          -0.4997   -1.4335    2.4214 H       1  LIG1        0.0265
     40 H           0.8228   -2.1138    1.5118 H       1  LIG1        0.0265
     41 H           0.8336   -0.1810   -0.0610 H       1  LIG1        0.0265
     42 H          -0.5204    0.5427    0.8291 H       1  LIG1        0.0265
     43 H          -1.9355   -1.4759    0.2346 H       1  LIG1        0.0265
     44 H          -0.6135   -2.1387   -0.7081 H       1  LIG1        0.0265
     45 H          -2.2189    0.3908   -1.3207 H       1  LIG1        0.0265
     46 H          -2.3941   -1.1532   -2.1106 H       1  LIG1        0.0265
     47 H          -0.0643    0.7605   -2.3045 H       1  LIG1        0.0265
     48 H          -1.2438    0.4759   -3.5133 H       1  LIG1        0.0265
     49 H           0.8733   -1.4434   -2.5026 H       1  LIG1        0.0265
     50 H           1.0160   -0.4975   -3.9567 H       1  LIG1        0.0265
     51 H          -0.6375   -3.0292   -3.5092 H       1  LIG1        0.0268
     52 H           0.8730   -2.8023   -4.3490 H       1  LIG1        0.0268
     53 H          -0.6748   -3.3459   -5.9475 H       1  LIG1        0.0313
     54 H          -0.1351   -1.7281   -6.2585 H       1  LIG1        0.0313
     55 H          -1.6881    0.1683   -5.3934 H       1  LIG1        0.0657
     56 H          -3.2404    1.7376   -5.4319 H       1  LIG1        0.2921
     57 H          -5.7883   -0.5347   -6.3890 H       1  LIG1        0.0691
     58 H          -5.2004   -3.9736   -6.8706 H       1  LIG1        0.2921
     59 H          -3.0011   -3.8139   -6.2904 H       1  LIG1        0.0657
@<TRIPOS>BOND
     1     1     2    1
     2     2     3    1
     3     3     4    1
     4     4     5    1
     5     5     6    1
     6     6     7    1
     7     7     8    1
     8     8     9    1
     9     9    10    1
    10    10    11    1
    11    11    12    1
    12    12    13    1
    13    13    14    1
    14    14    15    1
    15    15    16    1
    16    16    17   ar
    17    17    18   ar
    18    18    19    1
    19    18    20   ar
    20    20    21   ar
    21    21    22    1
    22    21    23   ar
    23    16    23   ar
    24     1    24    1
    25     1    25    1
    26     1    26    1
    27     2    27    1
    28     2    28    1
    29     3    29    1
    30     3    30    1
    31     4    31    1
    32     4    32    1
    33     5    33    1
    34     5    34    1
    35     6    35    1
    36     6    36    1
    37     7    37    1
    38     7    38    1
    39     8    39    1
    40     8    40    1
    41     9    41    1
    42     9    42    1
    43    10    43    1
    44    10    44    1
    45    11    45    1
    46    11    46    1
    47    12    47    1
    48    12    48    1
    49    13    49    1
    50    13    50    1
    51    14    51    1
    52    14    52    1
    53    15    53    1
    54    15    54    1
    55    17    55    1
    56    19    56    1
    57    20    57    1
    58    22    58    1
    59    23    59    1
