@<TRIPOS>MOLECULE
NuBBE_136
 28 28 0 0 0
SMALL
GASTEIGER

@<TRIPOS>ATOM
      1 O          -1.7395   -0.3349    5.3252 O.3     1  LIG1       -0.4775
      2 C          -1.9971   -0.9339    4.1441 C.2     1  LIG1        0.3296
      3 C          -1.2661   -0.2949    3.0365 C.2     1  LIG1        0.0229
      4 C          -1.1172   -0.9235    1.8593 C.2     1  LIG1       -0.0476
      5 C          -0.4092   -0.3414    0.7044 C.ar    1  LIG1       -0.0177
      6 C          -0.3929    1.0398    0.4467 C.ar    1  LIG1       -0.0089
      7 C           0.2188    1.5634   -0.7002 C.ar    1  LIG1        0.1655
      8 O           0.1347    2.9269   -0.8167 O.3     1  LIG1       -0.4913
      9 C           0.1803    3.4364   -2.1468 C.3     1  LIG1        0.0790
     10 C           0.8425    0.6847   -1.5852 C.ar    1  LIG1        0.2010
     11 O           1.4587    1.1312   -2.7265 O.3     1  LIG1       -0.5009
     12 C           0.8528   -0.6961   -1.3420 C.ar    1  LIG1        0.1655
     13 O           1.5104   -1.4333   -2.2966 O.3     1  LIG1       -0.4913
     14 C           1.5308   -2.8413   -2.1045 C.3     1  LIG1        0.0790
     15 C           0.2192   -1.2040   -0.2054 C.ar    1  LIG1       -0.0089
     16 O          -2.7469   -1.8960    4.0254 O.2     1  LIG1       -0.2458
     17 H          -1.0738    0.3772    5.2899 H       1  LIG1        0.2954
     18 H          -0.8627    0.6939    3.2054 H       1  LIG1        0.0689
     19 H          -1.5237   -1.9260    1.7229 H       1  LIG1        0.0626
     20 H          -0.8897    1.7348    1.1193 H       1  LIG1        0.0661
     21 H          -0.0793    4.4981   -2.1129 H       1  LIG1        0.0660
     22 H          -0.5536    2.9334   -2.7870 H       1  LIG1        0.0660
     23 H           1.1896    3.3826   -2.5640 H       1  LIG1        0.0660
     24 H           1.6538    0.3305   -3.2495 H       1  LIG1        0.2924
     25 H           2.1086   -3.2811   -2.9221 H       1  LIG1        0.0660
     26 H           0.5163   -3.2495   -2.1494 H       1  LIG1        0.0660
     27 H           2.0269   -3.1061   -1.1650 H       1  LIG1        0.0660
     28 H           0.2085   -2.2708   -0.0051 H       1  LIG1        0.0661
@<TRIPOS>BOND
     1     1     2    1
     2     2     3    1
     3     3     4    2
     4     4     5    1
     5     5     6   ar
     6     6     7   ar
     7     7     8    1
     8     8     9    1
     9     7    10   ar
    10    10    11    1
    11    10    12   ar
    12    12    13    1
    13    13    14    1
    14    12    15   ar
    15     5    15   ar
    16     2    16    2
    17     1    17    1
    18     3    18    1
    19     4    19    1
    20     6    20    1
    21     9    21    1
    22     9    22    1
    23     9    23    1
    24    11    24    1
    25    14    25    1
    26    14    26    1
    27    14    27    1
    28    15    28    1
