REMARK  Name = NuBBE_2276
REMARK  8 active torsions:
REMARK  status: ('A' for Active; 'I' for Inactive)
REMARK    1  A    between atoms: C_5  and  O_6
REMARK    2  A    between atoms: O_6  and  C_7
REMARK    3  A    between atoms: C_9  and  C_10
REMARK    4  A    between atoms: C_11  and  C_12
REMARK    5  A    between atoms: C_15  and  O_16
REMARK    6  A    between atoms: O_16  and  C_17
REMARK    7  A    between atoms: C_18  and  O_19
REMARK    8  A    between atoms: O_19  and  C_20
REMARK                            x       y       z     vdW  Elec       q    Type
REMARK                         _______ _______ _______ _____ _____    ______ ____
ROOT
ATOM      1  C   LIG A   1      -0.438   1.067   0.466  0.00  0.00    +0.047 C 
ATOM      2  C   LIG A   1      -0.217   0.383  -0.667  0.00  0.00    +0.012 C 
ENDROOT
BRANCH   1   9
ATOM      3  O   LIG A   1      -3.252   4.024  -1.815  0.00  0.00    -0.245 OA
ATOM      4  C   LIG A   1      -2.731   3.667  -0.764  0.00  0.00    +0.341 A 
ATOM      5  O   LIG A   1      -1.872   2.601  -0.695  0.00  0.00    -0.423 OA
ATOM      6  C   LIG A   1      -3.016   4.395   0.479  0.00  0.00    +0.137 A 
ATOM      7  C   LIG A   1      -2.447   4.024   1.637  0.00  0.00    +0.130 A 
ATOM      8  C   LIG A   1      -1.549   2.904   1.663  0.00  0.00    +0.092 A 
ATOM      9  C   LIG A   1      -1.296   2.228   0.537  0.00  0.00    +0.135 A 
BRANCH   7  10
ATOM     10  O   LIG A   1      -2.629   4.598   2.870  0.00  0.00    -0.495 OA
ATOM     11  C   LIG A   1      -3.521   5.706   2.943  0.00  0.00    +0.277 C 
ENDBRANCH   7  10
ENDBRANCH   1   9
BRANCH   2  12
ATOM     12  C   LIG A   1       0.636  -0.798  -0.715  0.00  0.00    -0.021 A 
ATOM     13  C   LIG A   1       1.994  -0.649  -0.980  0.00  0.00    +0.012 A 
ATOM     14  C   LIG A   1       2.816  -1.771  -1.054  0.00  0.00    +0.050 A 
ATOM     15  C   LIG A   1       2.297  -3.059  -0.860  0.00  0.00    +0.162 A 
ATOM     16  C   LIG A   1       0.920  -3.214  -0.615  0.00  0.00    +0.162 A 
ATOM     17  C   LIG A   1       0.103  -2.077  -0.527  0.00  0.00    +0.057 A 
BRANCH  15  18
ATOM     18  O   LIG A   1       3.080  -4.179  -0.862  0.00  0.00    -0.491 OA
ATOM     19  C   LIG A   1       4.461  -4.029  -1.152  0.00  0.00    +0.277 C 
ENDBRANCH  15  18
BRANCH  16  20
ATOM     20  O   LIG A   1       0.252  -4.394  -0.395  0.00  0.00    -0.491 OA
ATOM     21  C   LIG A   1       0.743  -5.543  -1.080  0.00  0.00    +0.277 C 
ENDBRANCH  16  20
ENDBRANCH   2  12
TORSDOF 5
