@<TRIPOS>MOLECULE
NuBBE_1896
 42 43 0 0 0
SMALL
GASTEIGER

@<TRIPOS>ATOM
      1 C          -4.6189   -3.6347    0.3053 C.3     1  LIG1        0.0369
      2 O          -3.2027   -3.5192    0.2746 O.3     1  LIG1       -0.3784
      3 C          -2.7917   -2.2757   -0.3088 C.3     1  LIG1        0.0730
      4 C          -1.2797   -2.1715   -0.3217 C.ar    1  LIG1       -0.0111
      5 C          -0.5111   -3.3411   -0.4024 C.ar    1  LIG1       -0.0555
      6 C           0.8806   -3.2907   -0.3702 C.ar    1  LIG1       -0.0582
      7 C           1.5523   -2.0670   -0.2610 C.ar    1  LIG1       -0.0466
      8 C           3.0574   -2.0783   -0.1890 C.3     1  LIG1       -0.0394
      9 C           0.8082   -0.8640   -0.2293 C.ar    1  LIG1       -0.0331
     10 C           1.5384    0.4595   -0.0935 C.3     1  LIG1       -0.0185
     11 C           0.7043    1.7619   -0.2123 C.3     1  LIG1        0.0246
     12 H           0.5447    1.9663   -1.2817 H       1  LIG1        0.0361
     13 C           1.4848    2.9859    0.3834 C.3     1  LIG1        0.0664
     14 C           0.7352    4.3248    0.2996 C.3     1  LIG1       -0.0360
     15 O           1.7793    2.7261    1.7623 O.3     1  LIG1       -0.3887
     16 C           2.8393    3.1772   -0.3211 C.3     1  LIG1       -0.0360
     17 C          -0.6694    1.5248    0.4209 C.3     1  LIG1        0.1233
     18 H          -0.6066    1.3223    1.4956 H       1  LIG1        0.0680
     19 O          -1.5212    2.6585    0.2407 O.3     1  LIG1       -0.3835
     20 C          -0.6007   -0.9335   -0.2734 C.ar    1  LIG1        0.0288
     21 C          -1.3448    0.3447   -0.2593 C.2     1  LIG1        0.1923
     22 O          -2.4620    0.4571   -0.7674 O.2     1  LIG1       -0.2893
     23 H          -4.8755   -4.5845    0.7822 H       1  LIG1        0.0524
     24 H          -5.0222   -3.6330   -0.7115 H       1  LIG1        0.0524
     25 H          -5.0620   -2.8219    0.8892 H       1  LIG1        0.0524
     26 H          -3.2272   -1.4826    0.3057 H       1  LIG1        0.0610
     27 H          -3.1655   -2.2119   -1.3371 H       1  LIG1        0.0610
     28 H          -0.9993   -4.3127   -0.4677 H       1  LIG1        0.0621
     29 H           1.4368   -4.2256   -0.4124 H       1  LIG1        0.0620
     30 H           3.4479   -3.0993   -0.1161 H       1  LIG1        0.0278
     31 H           3.4037   -1.5397    0.6986 H       1  LIG1        0.0278
     32 H           3.4842   -1.6221   -1.0873 H       1  LIG1        0.0278
     33 H           2.3151    0.4917   -0.8676 H       1  LIG1        0.0318
     34 H           2.0403    0.4367    0.8815 H       1  LIG1        0.0318
     35 H          -0.0909    4.3811    1.0152 H       1  LIG1        0.0257
     36 H           0.3562    4.5124   -0.7098 H       1  LIG1        0.0257
     37 H           1.3949    5.1571    0.5739 H       1  LIG1        0.0257
     38 H           1.0090    2.9966    2.2932 H       1  LIG1        0.2101
     39 H           2.7088    3.3926   -1.3866 H       1  LIG1        0.0257
     40 H           3.4877    2.3023   -0.2134 H       1  LIG1        0.0257
     41 H           3.3972    4.0062    0.1317 H       1  LIG1        0.0257
     42 H          -2.3552    2.3230   -0.1531 H       1  LIG1        0.2104
@<TRIPOS>BOND
     1     1     2    1
     2     2     3    1
     3     3     4    1
     4     4     5   ar
     5     5     6   ar
     6     6     7   ar
     7     7     8    1
     8     7     9   ar
     9     9    10    1
    10    10    11    1
    11    11    12    1
    12    11    13    1
    13    13    14    1
    14    13    15    1
    15    13    16    1
    16    11    17    1
    17    17    18    1
    18    17    19    1
    19     9    20   ar
    20     4    20   ar
    21    20    21    1
    22    17    21    1
    23    21    22    2
    24     1    23    1
    25     1    24    1
    26     1    25    1
    27     3    26    1
    28     3    27    1
    29     5    28    1
    30     6    29    1
    31     8    30    1
    32     8    31    1
    33     8    32    1
    34    10    33    1
    35    10    34    1
    36    14    35    1
    37    14    36    1
    38    14    37    1
    39    15    38    1
    40    16    39    1
    41    16    40    1
    42    16    41    1
    43    19    42    1
