@<TRIPOS>MOLECULE
NuBBE_1099
 75 80 0 0 0
SMALL
GASTEIGER

@<TRIPOS>ATOM
      1 O          -3.9586    3.8865    1.5645 O.2     1  LIG1       -0.2921
      2 C          -2.9673    3.2032    1.7982 C.2     1  LIG1        0.1618
      3 C          -3.1166    1.9444    2.5802 C.2     1  LIG1       -0.0220
      4 C          -2.1365    1.0259    2.6118 C.2     1  LIG1       -0.0741
      5 C          -0.8386    1.0572    1.7844 C.3     1  LIG1       -0.0030
      6 C           0.3431    1.1217    2.7758 C.3     1  LIG1       -0.0554
      7 C          -0.9907    2.2482    0.7610 C.3     1  LIG1        0.0209
      8 C           0.1844    2.3550   -0.2179 C.3     1  LIG1        0.1448
      9 H           0.0325    3.1845   -0.9156 H       1  LIG1        0.0775
     10 O           1.3589    2.6045    0.5745 O.3     1  LIG1       -0.4574
     11 C           2.1434    3.6610    0.2607 C.2     1  LIG1        0.3043
     12 C           2.9880    4.0459    1.4380 C.3     1  LIG1        0.0332
     13 O           2.1442    4.2532   -0.8200 O.2     1  LIG1       -0.2512
     14 C           0.2216    1.0518   -1.0905 C.3     1  LIG1        0.1483
     15 H          -0.7323    1.0174   -1.6287 H       1  LIG1        0.0778
     16 O           1.3076    1.2117   -2.0392 O.3     1  LIG1       -0.4571
     17 C           0.9526    1.6960   -3.2635 C.2     1  LIG1        0.3043
     18 C           2.1341    2.2844   -3.9695 C.3     1  LIG1        0.0332
     19 O          -0.1780    1.6830   -3.7294 O.2     1  LIG1       -0.2512
     20 C           0.3472   -0.2754   -0.2594 C.3     1  LIG1        0.0440
     21 C           1.8366   -0.3939    0.1467 C.3     1  LIG1       -0.0530
     22 C          -0.7250   -0.2652    0.9360 C.3     1  LIG1       -0.0201
     23 H          -1.7071   -0.3182    0.4365 H       1  LIG1        0.0316
     24 C          -0.6630   -1.5858    1.7633 C.3     1  LIG1       -0.0481
     25 C          -1.0101   -2.8119    0.8978 C.3     1  LIG1       -0.0440
     26 C          -0.0922   -2.9315   -0.3326 C.3     1  LIG1        0.0071
     27 C           1.3036   -3.3633    0.1270 C.3     1  LIG1       -0.0563
     28 C          -0.0724   -1.5597   -1.0530 C.3     1  LIG1        0.1109
     29 O          -1.3274   -1.3009   -1.7600 O.3     1  LIG1       -0.3635
     30 C          -0.2369   -1.7928   -2.5216 C.3     1  LIG1        0.0902
     31 H           0.1993   -1.1752   -3.2856 H       1  LIG1        0.0625
     32 C          -0.3472   -3.2645   -2.8034 C.3     1  LIG1       -0.0163
     33 C          -0.6861   -3.9289   -1.4328 C.3     1  LIG1       -0.0023
     34 H          -1.7843   -3.8963   -1.3381 H       1  LIG1        0.0357
     35 C          -0.2968   -5.4003   -1.3996 C.ar    1  LIG1       -0.0059
     36 C           0.9288   -5.9906   -1.1359 C.ar    1  LIG1        0.0951
     37 O           0.8789   -7.3386   -1.2196 O.2     1  LIG1       -0.4708
     38 C          -0.3796   -7.6550   -1.5931 C.ar    1  LIG1        0.0919
     39 C          -1.1410   -6.5149   -1.7194 C.ar    1  LIG1       -0.0205
     40 H          -1.8176    1.9439    0.0924 H       1  LIG1        0.0356
     41 C          -1.5409    3.5810    1.3815 C.3     1  LIG1        0.0345
     42 C          -1.5678    4.7238    0.3484 C.3     1  LIG1       -0.0524
     43 C          -0.8685    4.1403    2.6446 C.3     1  LIG1       -0.0524
     44 H          -4.0397    1.8348    3.1364 H       1  LIG1        0.0649
     45 H          -2.2959    0.1718    3.2657 H       1  LIG1        0.0579
     46 H           0.4378    2.0758    3.2900 H       1  LIG1        0.0238
     47 H           1.3083    0.9402    2.3035 H       1  LIG1        0.0238
     48 H           0.2437    0.3622    3.5610 H       1  LIG1        0.0238
     49 H           2.4461    3.8450    2.3688 H       1  LIG1        0.0342
     50 H           3.1779    5.1230    1.4094 H       1  LIG1        0.0342
     51 H           3.9278    3.4940    1.4362 H       1  LIG1        0.0342
     52 H           2.6578    2.9730   -3.3014 H       1  LIG1        0.0342
     53 H           1.7787    2.8647   -4.8275 H       1  LIG1        0.0342
     54 H           2.8037    1.4978   -4.3201 H       1  LIG1        0.0342
     55 H           2.3651    0.5599    0.1800 H       1  LIG1        0.0237
     56 H           2.3944   -0.9957   -0.5812 H       1  LIG1        0.0237
     57 H           1.9775   -0.8169    1.1407 H       1  LIG1        0.0237
     58 H          -1.3821   -1.5714    2.5860 H       1  LIG1        0.0269
     59 H           0.3171   -1.7121    2.2318 H       1  LIG1        0.0269
     60 H          -2.0573   -2.7128    0.5824 H       1  LIG1        0.0272
     61 H          -0.9581   -3.7225    1.5065 H       1  LIG1        0.0272
     62 H           1.7652   -2.7082    0.8556 H       1  LIG1        0.0236
     63 H           1.9938   -3.4331   -0.7201 H       1  LIG1        0.0236
     64 H           1.2549   -4.3084    0.6740 H       1  LIG1        0.0236
     65 H           0.5923   -3.6383   -3.2197 H       1  LIG1        0.0297
     66 H          -1.1460   -3.4586   -3.5306 H       1  LIG1        0.0297
     67 H           1.9065   -5.6204   -0.8672 H       1  LIG1        0.1032
     68 H          -0.5615   -8.7111   -1.7338 H       1  LIG1        0.1029
     69 H          -2.1785   -6.4966   -2.0222 H       1  LIG1        0.0652
     70 H          -1.9429    4.3866   -0.6232 H       1  LIG1        0.0239
     71 H          -0.5647    5.1430    0.2023 H       1  LIG1        0.0239
     72 H          -2.2111    5.5491    0.6743 H       1  LIG1        0.0239
     73 H           0.1977    4.3168    2.4978 H       1  LIG1        0.0239
     74 H          -1.0081    3.5066    3.5252 H       1  LIG1        0.0239
     75 H          -1.3227    5.1001    2.9243 H       1  LIG1        0.0239
@<TRIPOS>BOND
     1     1     2    2
     2     2     3    1
     3     3     4    2
     4     4     5    1
     5     5     6    1
     6     5     7    1
     7     7     8    1
     8     8     9    1
     9     8    10    1
    10    10    11    1
    11    11    12    1
    12    11    13    2
    13     8    14    1
    14    14    15    1
    15    14    16    1
    16    16    17    1
    17    17    18    1
    18    17    19    2
    19    14    20    1
    20    20    21    1
    21    20    22    1
    22    22    23    1
    23     5    22    1
    24    22    24    1
    25    24    25    1
    26    25    26    1
    27    26    27    1
    28    26    28    1
    29    28    29    1
    30    20    28    1
    31    28    30    1
    32    30    31    1
    33    29    30    1
    34    30    32    1
    35    32    33    1
    36    26    33    1
    37    35    36   ar
    38    36    37   ar
    39    37    38   ar
    40    38    39   ar
    41    35    39   ar
    42     7    40    1
    43     7    41    1
    44    41    42    1
    45     2    41    1
    46    41    43    1
    47    33    35    1
    48    33    34    1
    49     3    44    1
    50     4    45    1
    51     6    46    1
    52     6    47    1
    53     6    48    1
    54    12    49    1
    55    12    50    1
    56    12    51    1
    57    18    52    1
    58    18    53    1
    59    18    54    1
    60    21    55    1
    61    21    56    1
    62    21    57    1
    63    24    58    1
    64    24    59    1
    65    25    60    1
    66    25    61    1
    67    27    62    1
    68    27    63    1
    69    27    64    1
    70    32    65    1
    71    32    66    1
    72    36    67    1
    73    38    68    1
    74    39    69    1
    75    42    70    1
    76    42    71    1
    77    42    72    1
    78    43    73    1
    79    43    74    1
    80    43    75    1
