@<TRIPOS>MOLECULE
NuBBE_1439
 46 48 0 0 0
SMALL
GASTEIGER

@<TRIPOS>ATOM
      1 O          -2.0746    1.8893    0.1734 O.3     1  LIG1       -0.3885
      2 C          -0.6835    1.8324    0.5286 C.3     1  LIG1        0.0903
      3 H          -0.5953    2.3476    1.4955 H       1  LIG1        0.0626
      4 C           0.0474    2.6726   -0.5244 C.3     1  LIG1       -0.0196
      5 C           1.4438    2.1851   -0.8693 C.3     1  LIG1       -0.0200
      6 C           1.4193    0.7254   -1.2409 C.ar    1  LIG1        0.0194
      7 C           0.5640   -0.1446   -0.5426 C.ar    1  LIG1        0.0863
      8 N           0.4741   -1.4705   -0.7987 N.ar    1  LIG1       -0.2136
      9 C           1.3128   -1.9185   -1.7415 C.ar    1  LIG1        0.2309
     10 O           1.3812   -3.2374   -2.0717 O.2     1  LIG1       -0.4449
     11 C           2.3647   -3.3696   -2.9917 C.ar    1  LIG1        0.0952
     12 C           2.9326   -2.1480   -3.2666 C.ar    1  LIG1       -0.0109
     13 C           2.2446   -1.1843   -2.4738 C.ar    1  LIG1        0.0816
     14 C           2.2864    0.2034   -2.2256 C.ar    1  LIG1        0.1374
     15 O           3.2027    1.0957   -2.7603 O.3     1  LIG1       -0.4940
     16 C           3.5725    0.8727   -4.1140 C.3     1  LIG1        0.0788
     17 C          -0.1557    0.3620    0.7252 C.3     1  LIG1        0.1401
     18 O           0.8462    0.4569    1.7914 O.3     1  LIG1       -0.3676
     19 C           1.4163   -0.7716    2.2370 C.3     1  LIG1        0.0378
     20 C          -1.3334   -0.5884    1.1448 C.3     1  LIG1        0.0028
     21 C          -2.0310   -0.2115    2.4372 C.2     1  LIG1       -0.0821
     22 C          -3.3323   -0.4140    2.7505 C.2     1  LIG1       -0.0795
     23 C          -4.3354   -1.0897    1.8604 C.3     1  LIG1       -0.0440
     24 C          -3.8769    0.0285    4.0809 C.3     1  LIG1       -0.0440
     25 H          -2.3899    2.7851    0.3843 H       1  LIG1        0.2099
     26 H           0.0954    3.7150   -0.1836 H       1  LIG1        0.0294
     27 H          -0.5536    2.7031   -1.4449 H       1  LIG1        0.0294
     28 H           2.1381    2.3461   -0.0383 H       1  LIG1        0.0316
     29 H           1.7929    2.7908   -1.7148 H       1  LIG1        0.0316
     30 H           2.5456   -4.3772   -3.3395 H       1  LIG1        0.1030
     31 H           3.7509   -1.9964   -3.9528 H       1  LIG1        0.0657
     32 H           4.0777    1.7754   -4.4725 H       1  LIG1        0.0660
     33 H           2.7005    0.6986   -4.7525 H       1  LIG1        0.0660
     34 H           4.2974    0.0601   -4.1917 H       1  LIG1        0.0660
     35 H           2.1230   -0.5398    3.0392 H       1  LIG1        0.0524
     36 H           1.9732   -1.2721    1.4415 H       1  LIG1        0.0524
     37 H           0.6648   -1.4433    2.6584 H       1  LIG1        0.0524
     38 H          -0.9648   -1.6117    1.2845 H       1  LIG1        0.0340
     39 H          -2.0458   -0.6391    0.3137 H       1  LIG1        0.0340
     40 H          -1.3940    0.2645    3.1788 H       1  LIG1        0.0572
     41 H          -3.9216   -1.4250    0.9072 H       1  LIG1        0.0274
     42 H          -5.1636   -0.4076    1.6409 H       1  LIG1        0.0274
     43 H          -4.7423   -1.9749    2.3621 H       1  LIG1        0.0274
     44 H          -3.1057    0.4629    4.7253 H       1  LIG1        0.0274
     45 H          -4.3130   -0.8226    4.6150 H       1  LIG1        0.0274
     46 H          -4.6560    0.7845    3.9362 H       1  LIG1        0.0274
@<TRIPOS>BOND
     1     1     2    1
     2     2     3    1
     3     2     4    1
     4     4     5    1
     5     5     6    1
     6     6     7   ar
     7     7     8   ar
     8     8     9   ar
     9     9    10   ar
    10    10    11   ar
    11    11    12   ar
    12     9    13   ar
    13    12    13   ar
    14    13    14   ar
    15     6    14   ar
    16    14    15    1
    17    15    16    1
    18     7    17    1
    19    17    18    1
    20    18    19    1
    21     2    17    1
    22    17    20    1
    23    20    21    1
    24    21    22    2
    25    22    23    1
    26    22    24    1
    27     1    25    1
    28     4    26    1
    29     4    27    1
    30     5    28    1
    31     5    29    1
    32    11    30    1
    33    12    31    1
    34    16    32    1
    35    16    33    1
    36    16    34    1
    37    19    35    1
    38    19    36    1
    39    19    37    1
    40    20    38    1
    41    20    39    1
    42    21    40    1
    43    23    41    1
    44    23    42    1
    45    23    43    1
    46    24    44    1
    47    24    45    1
    48    24    46    1
