@<TRIPOS>MOLECULE
NuBBE_2242
 64 67 0 0 0
SMALL
GASTEIGER

@<TRIPOS>ATOM
      1 C          -1.6180    0.2636    4.4599 C.3     1  LIG1       -0.0568
      2 C          -0.6992   -0.3456    3.3797 C.3     1  LIG1        0.0012
      3 C           0.7284    0.1954    3.6166 C.3     1  LIG1       -0.0568
      4 C          -0.7315   -1.8795    3.6053 C.3     1  LIG1       -0.0447
      5 C           0.1302   -2.6311    2.6067 C.3     1  LIG1       -0.0497
      6 C          -0.2700   -2.4080    1.1499 C.3     1  LIG1       -0.0197
      7 C          -0.8104   -1.0226    0.8191 C.3     1  LIG1        0.1168
      8 O          -2.1326   -0.9163    1.4087 O.3     1  LIG1       -0.3546
      9 C          -1.1594   -0.0101    1.9381 C.3     1  LIG1        0.1328
     10 C          -1.3024    1.4165    1.5284 C.2     1  LIG1        0.0228
     11 C          -0.4667    1.8466    0.4019 C.2     1  LIG1        0.1371
     12 O          -0.1324    3.2190    0.4172 O.3     1  LIG1       -0.4257
     13 C           1.2213    3.4899    0.4000 C.2     1  LIG1        0.3092
     14 C           1.4427    4.9775    0.3059 C.3     1  LIG1        0.0336
     15 O           2.1247    2.6941    0.4122 O.2     1  LIG1       -0.2507
     16 C          -0.2516    1.0361   -0.6672 C.2     1  LIG1       -0.0138
     17 C          -0.7203   -0.4532   -0.6716 C.3     1  LIG1        0.0616
     18 C          -2.1370   -0.4792   -1.3060 C.3     1  LIG1       -0.0495
     19 C           0.2796   -1.3260   -1.5370 C.3     1  LIG1        0.1157
     20 H           1.1787   -1.4775   -0.9253 H       1  LIG1        0.0744
     21 O          -0.2530   -2.6750   -1.7272 O.3     1  LIG1       -0.4605
     22 C          -1.0231   -3.0373   -2.7978 C.2     1  LIG1        0.3042
     23 C          -1.6737   -4.3638   -2.5318 C.3     1  LIG1        0.0332
     24 O          -1.2419   -2.3777   -3.8137 O.2     1  LIG1       -0.2512
     25 C           0.8296   -0.7080   -2.8332 C.3     1  LIG1       -0.0056
     26 C           1.4101    0.7029   -2.6632 C.3     1  LIG1       -0.0071
     27 C           1.6601    1.2921   -4.0743 C.3     1  LIG1       -0.0557
     28 C           2.7126    0.6543   -1.8674 C.2     1  LIG1       -0.0848
     29 C           3.9618    0.6075   -2.3575 C.2     1  LIG1       -0.1021
     30 C           0.3141    1.5677   -1.9829 C.3     1  LIG1       -0.0183
     31 C          -2.2962    2.1944    2.0032 C.2     1  LIG1       -0.0891
     32 H          -1.3660   -0.1189    5.4566 H       1  LIG1        0.0236
     33 H          -2.6696    0.0232    4.2703 H       1  LIG1        0.0236
     34 H          -1.5196    1.3528    4.5159 H       1  LIG1        0.0236
     35 H           1.1270   -0.1546    4.5762 H       1  LIG1        0.0236
     36 H           0.7436    1.2911    3.6364 H       1  LIG1        0.0236
     37 H           1.4214   -0.1149    2.8279 H       1  LIG1        0.0236
     38 H          -1.7636   -2.2501    3.5400 H       1  LIG1        0.0271
     39 H          -0.3879   -2.1199    4.6198 H       1  LIG1        0.0271
     40 H           0.0854   -3.7050    2.8265 H       1  LIG1        0.0266
     41 H           1.1805   -2.3491    2.7429 H       1  LIG1        0.0266
     42 H          -1.0390   -3.1430    0.8792 H       1  LIG1        0.0294
     43 H           0.6176   -2.6674    0.5723 H       1  LIG1        0.0294
     44 H           0.7436    5.5088    0.9542 H       1  LIG1        0.0342
     45 H           1.3429    5.3140   -0.7288 H       1  LIG1        0.0342
     46 H           2.4563    5.1942    0.6570 H       1  LIG1        0.0342
     47 H          -2.7901    0.2853   -0.8662 H       1  LIG1        0.0240
     48 H          -2.6349   -1.4421   -1.1450 H       1  LIG1        0.0240
     49 H          -2.1097   -0.2849   -2.3828 H       1  LIG1        0.0240
     50 H          -1.2756   -4.8394   -1.6439 H       1  LIG1        0.0342
     51 H          -1.5350   -5.0245   -3.3893 H       1  LIG1        0.0342
     52 H          -2.7483   -4.1720   -2.3804 H       1  LIG1        0.0342
     53 H           0.0440   -0.6373   -3.5865 H       1  LIG1        0.0309
     54 H           1.5842   -1.3862   -3.2572 H       1  LIG1        0.0309
     55 H           0.7424    1.2994   -4.6735 H       1  LIG1        0.0238
     56 H           2.3919    0.7046   -4.6400 H       1  LIG1        0.0238
     57 H           2.0235    2.3246   -4.0126 H       1  LIG1        0.0238
     58 H           2.6213    0.6576   -0.7815 H       1  LIG1        0.0572
     59 H           4.1825    0.5761   -3.4188 H       1  LIG1        0.0532
     60 H           4.8181    0.5925   -1.6891 H       1  LIG1        0.0532
     61 H          -0.5421    1.6455   -2.6706 H       1  LIG1        0.0320
     62 H           0.6778    2.5957   -1.8926 H       1  LIG1        0.0320
     63 H          -2.9934    1.8012    2.7398 H       1  LIG1        0.0540
     64 H          -2.5034    3.1959    1.6470 H       1  LIG1        0.0540
@<TRIPOS>BOND
     1     1     2    1
     2     2     3    1
     3     2     4    1
     4     4     5    1
     5     5     6    1
     6     6     7    1
     7     7     8    1
     8     7     9    1
     9     8     9    1
    10     2     9    1
    11     9    10    1
    12    10    11    1
    13    11    12    1
    14    12    13    1
    15    13    14    1
    16    13    15    2
    17    11    16    2
    18    16    17    1
    19    17    18    1
    20     7    17    1
    21    17    19    1
    22    19    20    1
    23    19    21    1
    24    21    22    1
    25    22    23    1
    26    22    24    2
    27    19    25    1
    28    25    26    1
    29    28    29    2
    30    26    30    1
    31    16    30    1
    32    10    31    2
    33    26    28    1
    34    26    27    1
    35     1    32    1
    36     1    33    1
    37     1    34    1
    38     3    35    1
    39     3    36    1
    40     3    37    1
    41     4    38    1
    42     4    39    1
    43     5    40    1
    44     5    41    1
    45     6    42    1
    46     6    43    1
    47    14    44    1
    48    14    45    1
    49    14    46    1
    50    18    47    1
    51    18    48    1
    52    18    49    1
    53    23    50    1
    54    23    51    1
    55    23    52    1
    56    25    53    1
    57    25    54    1
    58    27    55    1
    59    27    56    1
    60    27    57    1
    61    28    58    1
    62    29    59    1
    63    29    60    1
    64    30    61    1
    65    30    62    1
    66    31    63    1
    67    31    64    1
