REMARK  Name = NuBBE_1374
REMARK  11 active torsions:
REMARK  status: ('A' for Active; 'I' for Inactive)
REMARK    1  A    between atoms: O_1  and  C_2
REMARK    2  A    between atoms: O_1  and  C_17
REMARK    3  A    between atoms: C_4  and  O_6
REMARK    4  A    between atoms: C_7  and  O_9
REMARK    5  A    between atoms: C_10  and  O_16
REMARK    6  A    between atoms: C_12  and  C_15
REMARK    7  A    between atoms: C_19  and  C_32
REMARK    8  A    between atoms: C_26  and  O_27
REMARK    9  A    between atoms: C_29  and  O_31
REMARK   10  A    between atoms: C_34  and  O_35
REMARK   11  A    between atoms: C_36  and  O_39
REMARK                            x       y       z     vdW  Elec       q    Type
REMARK                         _______ _______ _______ _____ _____    ______ ____
ROOT
ATOM      1  C   LIG A   1       0.324   0.024  -0.692  0.00  0.00    +0.237 C 
ATOM      2  C   LIG A   1       0.877  -0.964   0.355  0.00  0.00    +0.240 C 
ATOM      3  O   LIG A   1       2.224  -1.352   0.011  0.00  0.00    -0.480 OA
ATOM      4  C   LIG A   1       3.086  -0.299  -0.139  0.00  0.00    +0.139 A 
ATOM      5  C   LIG A   1       2.674   1.003  -0.428  0.00  0.00    +0.103 A 
ATOM      6  C   LIG A   1       1.239   1.249  -0.692  0.00  0.00    +0.203 C 
ATOM      7  O   LIG A   1       0.863   2.395  -0.926  0.00  0.00    -0.289 OA
ATOM      8  C   LIG A   1       3.623   2.032  -0.472  0.00  0.00    +0.134 A 
ATOM      9  C   LIG A   1       4.974   1.758  -0.263  0.00  0.00    +0.091 A 
ATOM     10  C   LIG A   1       5.372   0.445  -0.028  0.00  0.00    +0.124 A 
ATOM     11  C   LIG A   1       4.440  -0.586   0.025  0.00  0.00    +0.092 A 
ENDROOT
BRANCH   2  12
ATOM     12  C   LIG A   1       0.773  -0.589   1.837  0.00  0.00    -0.001 A 
ATOM     13  C   LIG A   1       1.300  -1.476   2.797  0.00  0.00    +0.056 A 
ATOM     14  C   LIG A   1       1.196  -1.180   4.153  0.00  0.00    +0.159 A 
ATOM     15  C   LIG A   1       0.560  -0.017   4.574  0.00  0.00    +0.158 A 
ATOM     16  C   LIG A   1       0.033   0.870   3.654  0.00  0.00    +0.049 A 
ATOM     17  C   LIG A   1       0.142   0.587   2.291  0.00  0.00    +0.011 A 
BRANCH  14  18
ATOM     18  O   LIG A   1       1.705  -2.007   5.115  0.00  0.00    -0.503 OA
ATOM     19  H   LIG A   1       2.201  -2.718   4.674  0.00  0.00    +0.292 HD
ENDBRANCH  14  18
BRANCH  15  20
ATOM     20  O   LIG A   1       0.450   0.262   5.904  0.00  0.00    -0.503 OA
ATOM     21  H   LIG A   1       0.887  -0.490   6.351  0.00  0.00    +0.292 HD
ENDBRANCH  15  20
ENDBRANCH   2  12
BRANCH   8  22
ATOM     22  O   LIG A   1       3.295   3.339  -0.711  0.00  0.00    -0.506 OA
ATOM     23  H   LIG A   1       2.321   3.396  -0.837  0.00  0.00    +0.292 HD
ENDBRANCH   8  22
BRANCH  10  24
ATOM     24  O   LIG A   1       6.682   0.123   0.171  0.00  0.00    -0.506 OA
ATOM     25  H   LIG A   1       7.213   0.938   0.157  0.00  0.00    +0.292 HD
ENDBRANCH  10  24
BRANCH   1  26
ATOM     26  O   LIG A   1      -1.045   0.408  -0.505  0.00  0.00    -0.334 OA
BRANCH  26  27
ATOM     27  C   LIG A   1      -1.980  -0.661  -0.552  0.00  0.00    +0.283 C 
ATOM     28  C   LIG A   1      -3.405  -0.178  -0.215  0.00  0.00    +0.201 C 
ATOM     29  C   LIG A   1      -3.920   0.759  -1.308  0.00  0.00    +0.179 C 
ATOM     30  C   LIG A   1      -3.794   0.113  -2.691  0.00  0.00    +0.174 C 
ATOM     31  C   LIG A   1      -2.382  -0.453  -2.900  0.00  0.00    +0.149 C 
ATOM     32  O   LIG A   1      -1.988  -1.319  -1.821  0.00  0.00    -0.343 OA
ATOM     33  C   LIG A   1      -2.303  -1.278  -4.181  0.00  0.00    +0.040 C 
BRANCH  28  34
ATOM     34  O   LIG A   1      -4.315  -1.296  -0.117  0.00  0.00    -0.384 OA
ATOM     35  H   LIG A   1      -3.984  -1.994  -0.717  0.00  0.00    +0.210 HD
ENDBRANCH  28  34
BRANCH  29  36
ATOM     36  O   LIG A   1      -5.307   1.070  -1.084  0.00  0.00    -0.386 OA
ATOM     37  H   LIG A   1      -5.695   0.269  -0.671  0.00  0.00    +0.210 HD
ENDBRANCH  29  36
BRANCH  30  38
ATOM     38  O   LIG A   1      -4.110   1.080  -3.696  0.00  0.00    -0.387 OA
ATOM     39  H   LIG A   1      -4.893   1.563  -3.361  0.00  0.00    +0.210 HD
ENDBRANCH  30  38
ENDBRANCH  26  27
ENDBRANCH   1  26
TORSDOF 10
