REMARK  Name = NuBBE_653
REMARK  3 active torsions:
REMARK  status: ('A' for Active; 'I' for Inactive)
REMARK    1  A    between atoms: O_1  and  C_2
REMARK    2  A    between atoms: C_6  and  C_8
REMARK    3  A    between atoms: C_8  and  C_9
REMARK                            x       y       z     vdW  Elec       q    Type
REMARK                         _______ _______ _______ _____ _____    ______ ____
ROOT
ATOM      1  C   LIG A   1       0.009   0.194   2.289  0.00  0.00    +0.115 C 
ATOM      2  C   LIG A   1       0.361  -1.177   1.715  0.00  0.00    +0.031 C 
ATOM      3  C   LIG A   1      -0.183  -1.363   0.298  0.00  0.00    +0.006 C 
ATOM      4  C   LIG A   1       0.277  -0.241  -0.648  0.00  0.00    -0.011 C 
ATOM      5  C   LIG A   1      -0.087   1.135  -0.068  0.00  0.00    +0.006 C 
ATOM      6  C   LIG A   1       0.448   1.317   1.354  0.00  0.00    +0.031 C 
ENDROOT
BRANCH   1   7
ATOM      7  O   LIG A   1      -1.400   0.289   2.489  0.00  0.00    -0.392 OA
ATOM      8  H   LIG A   1      -1.659  -0.428   3.094  0.00  0.00    +0.210 HD
ENDBRANCH   1   7
BRANCH   4   9
ATOM      9  C   LIG A   1      -0.326  -0.465  -2.047  0.00  0.00    -0.000 C 
ATOM     10  C   LIG A   1       0.191   0.506  -3.099  0.00  0.00    +0.004 C 
ENDBRANCH   4   9
TORSDOF 2
