REMARK  Name = NuBBE_828
REMARK  12 active torsions:
REMARK  status: ('A' for Active; 'I' for Inactive)
REMARK    1  A    between atoms: C_1  and  C_2
REMARK    2  A    between atoms: C_8  and  O_24
REMARK    3  A    between atoms: C_10  and  O_20
REMARK    4  A    between atoms: C_12  and  C_13
REMARK    5  A    between atoms: C_13  and  O_14
REMARK    6  A    between atoms: O_14  and  C_15
REMARK    7  A    between atoms: O_20  and  C_21
REMARK    8  A    between atoms: C_21  and  C_22
REMARK    9  A    between atoms: O_24  and  C_25
REMARK   10  A    between atoms: C_25  and  C_26
REMARK   11  A    between atoms: C_26  and  C_27
REMARK   12  A    between atoms: C_28  and  C_31
REMARK                            x       y       z     vdW  Elec       q    Type
REMARK                         _______ _______ _______ _____ _____    ______ ____
ROOT
ATOM      1  C   LIG A   1       1.757   3.427  -1.422  0.00  0.00    +0.038 C 
ATOM      2  C   LIG A   1       0.703   2.994  -0.422  0.00  0.00    -0.073 C 
ATOM      3  C   LIG A   1       1.023   2.094   0.542  0.00  0.00    +0.017 C 
ATOM      4  C   LIG A   1       0.212   1.497   1.680  0.00  0.00    +0.211 C 
ATOM      5  C   LIG A   1      -0.161  -0.018   1.771  0.00  0.00    +0.115 C 
ATOM      6  C   LIG A   1      -0.268  -0.911   0.508  0.00  0.00    +0.233 C 
ATOM      7  C   LIG A   1      -1.574  -0.754  -0.358  0.00  0.00    +0.254 C 
ATOM      8  C   LIG A   1      -2.084   0.678  -0.459  0.00  0.00    +0.076 C 
ATOM      9  C   LIG A   1      -1.555   1.439  -1.443  0.00  0.00    -0.012 C 
ATOM     10  C   LIG A   1      -1.564   2.928  -1.633  0.00  0.00    +0.032 C 
ATOM     11  C   LIG A   1      -0.655   3.655  -0.623  0.00  0.00    +0.034 C 
ATOM     12  C   LIG A   1       0.801  -0.519   2.802  0.00  0.00    +0.040 C 
ATOM     13  C   LIG A   1       1.008  -1.780   3.228  0.00  0.00    +0.020 C 
ATOM     14  O   LIG A   1       0.997   1.761   2.874  0.00  0.00    -0.453 OA
ATOM     15  C   LIG A   1       1.468   0.630   3.453  0.00  0.00    +0.336 C 
ATOM     16  O   LIG A   1       2.238   0.578   4.367  0.00  0.00    -0.245 OA
ENDROOT
BRANCH   8  17
ATOM     17  C   LIG A   1      -2.991   1.250   0.588  0.00  0.00    +0.338 C 
ATOM     18  O   LIG A   1      -3.333   2.419   0.656  0.00  0.00    -0.245 OA
BRANCH  17  19
ATOM     19  O   LIG A   1      -3.299   0.305   1.509  0.00  0.00    -0.465 OA
ATOM     20  C   LIG A   1      -3.992   0.749   2.678  0.00  0.00    +0.280 C 
ENDBRANCH  17  19
ENDBRANCH   8  17
BRANCH   7  21
ATOM     21  O   LIG A   1      -2.628  -1.660   0.040  0.00  0.00    -0.453 OA
BRANCH  21  22
ATOM     22  C   LIG A   1      -2.565  -2.910  -0.495  0.00  0.00    +0.305 C 
ATOM     23  C   LIG A   1      -3.789  -3.717  -0.174  0.00  0.00    +0.136 C 
ATOM     24  O   LIG A   1      -1.644  -3.326  -1.185  0.00  0.00    -0.251 OA
ENDBRANCH  21  22
ENDBRANCH   7  21
BRANCH   6  25
ATOM     25  O   LIG A   1       0.863  -0.662  -0.363  0.00  0.00    -0.454 OA
BRANCH  25  26
ATOM     26  C   LIG A   1       1.783  -1.646  -0.571  0.00  0.00    +0.342 C 
ATOM     27  O   LIG A   1       1.913  -2.665   0.092  0.00  0.00    -0.247 OA
BRANCH  26  28
ATOM     28  C   LIG A   1       2.551  -1.367  -1.822  0.00  0.00    +0.189 C 
ATOM     29  C   LIG A   1       1.743  -1.062  -3.059  0.00  0.00    +0.056 C 
ATOM     30  C   LIG A   1       4.028  -1.706  -2.026  0.00  0.00    +0.159 C 
ATOM     31  O   LIG A   1       3.606  -0.403  -1.614  0.00  0.00    -0.353 OA
ATOM     32  C   LIG A   1       4.935  -2.366  -1.050  0.00  0.00    +0.041 C 
ENDBRANCH  26  28
ENDBRANCH  25  26
ENDBRANCH   6  25
TORSDOF 7
