REMARK  Name = NuBBE_1192
REMARK  6 active torsions:
REMARK  status: ('A' for Active; 'I' for Inactive)
REMARK    1  A    between atoms: C_7  and  C_12
REMARK    2  A    between atoms: C_8  and  O_9
REMARK    3  A    between atoms: O_9  and  C_10
REMARK    4  A    between atoms: C_12  and  C_13
REMARK    5  A    between atoms: C_14  and  C_15
REMARK    6  A    between atoms: C_14  and  C_16
REMARK                            x       y       z     vdW  Elec       q    Type
REMARK                         _______ _______ _______ _____ _____    ______ ____
ROOT
ATOM      1  O   LIG A   1      -6.086   1.220   0.233  0.00  0.00    -0.245 OA
ATOM      2  C   LIG A   1      -4.867   1.146   0.293  0.00  0.00    +0.337 A 
ATOM      3  C   LIG A   1      -4.039   2.364   0.380  0.00  0.00    +0.092 A 
ATOM      4  C   LIG A   1      -2.707   2.323   0.466  0.00  0.00    +0.018 A 
ATOM      5  C   LIG A   1      -2.029   1.036   0.489  0.00  0.00    +0.018 A 
ATOM      6  C   LIG A   1      -0.646   0.925   0.638  0.00  0.00    +0.019 A 
ATOM      7  C   LIG A   1      -0.031  -0.343   0.698  0.00  0.00    -0.001 A 
ATOM      8  C   LIG A   1      -0.815  -1.503   0.538  0.00  0.00    +0.127 A 
ATOM      9  C   LIG A   1      -2.199  -1.392   0.395  0.00  0.00    +0.092 A 
ATOM     10  C   LIG A   1      -2.785  -0.126   0.382  0.00  0.00    +0.142 A 
ATOM     11  O   LIG A   1      -4.190  -0.068   0.274  0.00  0.00    -0.422 OA
ENDROOT
BRANCH   8  12
ATOM     12  O   LIG A   1      -0.151  -2.700   0.604  0.00  0.00    -0.495 OA
ATOM     13  C   LIG A   1      -0.712  -3.772  -0.146  0.00  0.00    +0.277 C 
ENDBRANCH   8  12
BRANCH   7  14
ATOM     14  C   LIG A   1       1.465  -0.426   0.931  0.00  0.00    +0.066 C 
BRANCH  14  15
ATOM     15  C   LIG A   1       2.259  -0.372  -0.347  0.00  0.00    -0.023 C 
ATOM     16  C   LIG A   1       3.184   0.537  -0.713  0.00  0.00    -0.079 C 
ATOM     17  C   LIG A   1       3.611   1.720   0.110  0.00  0.00    +0.038 C 
ATOM     18  C   LIG A   1       3.889   0.426  -2.040  0.00  0.00    +0.038 C 
ENDBRANCH  14  15
ENDBRANCH   7  14
TORSDOF 3
