REMARK  Name = NuBBE_2255
REMARK  7 active torsions:
REMARK  status: ('A' for Active; 'I' for Inactive)
REMARK    1  A    between atoms: O_1  and  C_2
REMARK    2  A    between atoms: O_1  and  C_3
REMARK    3  A    between atoms: C_7  and  C_13
REMARK    4  A    between atoms: C_8  and  O_11
REMARK    5  A    between atoms: O_11  and  C_12
REMARK    6  A    between atoms: C_20  and  O_22
REMARK    7  A    between atoms: O_22  and  C_23
REMARK                            x       y       z     vdW  Elec       q    Type
REMARK                         _______ _______ _______ _____ _____    ______ ____
ROOT
ATOM      1  C   LIG A   1      -1.377  -2.176   0.959  0.00  0.00    +0.138 A 
ATOM      2  C   LIG A   1      -0.647  -0.984   0.896  0.00  0.00    +0.109 A 
ATOM      3  C   LIG A   1       0.564  -0.927   0.218  0.00  0.00    +0.146 A 
ATOM      4  O   LIG A   1       1.244   0.252   0.049  0.00  0.00    -0.451 OA
ATOM      5  C   LIG A   1       0.516   1.440   0.166  0.00  0.00    +0.181 A 
ATOM      6  C   LIG A   1      -0.637   1.517   0.873  0.00  0.00    +0.211 A 
ATOM      7  C   LIG A   1      -1.061   0.257   1.557  0.00  0.00    +0.238 A 
ATOM      8  O   LIG A   1      -1.668   0.250   2.624  0.00  0.00    -0.283 OA
ATOM      9  C   LIG A   1       1.121  -2.077  -0.333  0.00  0.00    +0.092 A 
ATOM     10  C   LIG A   1       0.427  -3.283  -0.249  0.00  0.00    +0.127 A 
ATOM     11  C   LIG A   1      -0.829  -3.322   0.374  0.00  0.00    +0.092 A 
ENDROOT
BRANCH   5  12
ATOM     12  C   LIG A   1       1.142   2.563  -0.589  0.00  0.00    +0.021 A 
ATOM     13  C   LIG A   1       1.913   2.285  -1.734  0.00  0.00    +0.012 A 
ATOM     14  C   LIG A   1       2.507   3.306  -2.483  0.00  0.00    +0.001 A 
ATOM     15  C   LIG A   1       2.344   4.633  -2.100  0.00  0.00    +0.000 A 
ATOM     16  C   LIG A   1       1.608   4.933  -0.958  0.00  0.00    +0.001 A 
ATOM     17  C   LIG A   1       1.024   3.907  -0.204  0.00  0.00    +0.012 A 
ENDBRANCH   5  12
BRANCH   1  18
ATOM     18  O   LIG A   1      -2.643  -2.125   1.474  0.00  0.00    -0.494 OA
ATOM     19  C   LIG A   1      -3.113  -3.302   2.119  0.00  0.00    +0.277 C 
ENDBRANCH   1  18
BRANCH   6  20
ATOM     20  O   LIG A   1      -1.379   2.680   0.990  0.00  0.00    -0.488 OA
ATOM     21  C   LIG A   1      -2.781   2.483   1.156  0.00  0.00    +0.277 C 
ENDBRANCH   6  20
BRANCH  10  22
ATOM     22  O   LIG A   1       0.850  -4.481  -0.758  0.00  0.00    -0.495 OA
ATOM     23  C   LIG A   1       2.132  -4.493  -1.373  0.00  0.00    +0.277 C 
ENDBRANCH  10  22
TORSDOF 4
