REMARK  Name = NuBBE_1194
REMARK  16 active torsions:
REMARK  status: ('A' for Active; 'I' for Inactive)
REMARK    1  A    between atoms: C_1  and  C_2
REMARK    2  A    between atoms: C_2  and  C_12
REMARK    3  A    between atoms: C_4  and  C_5
REMARK    4  A    between atoms: C_5  and  C_6
REMARK    5  A    between atoms: C_5  and  O_7
REMARK    6  A    between atoms: C_5  and  C_8
REMARK    7  A    between atoms: C_16  and  C_17
REMARK    8  A    between atoms: C_18  and  C_23
REMARK    9  A    between atoms: C_24  and  O_26
REMARK   10  A    between atoms: C_28  and  C_36
REMARK   11  A    between atoms: C_29  and  C_30
REMARK   12  A    between atoms: C_29  and  C_31
REMARK   13  A    between atoms: C_31  and  C_32
REMARK   14  A    between atoms: C_32  and  C_33
REMARK   15  A    between atoms: C_33  and  O_34
REMARK   16  A    between atoms: C_36  and  C_37
REMARK                            x       y       z     vdW  Elec       q    Type
REMARK                         _______ _______ _______ _____ _____    ______ ____
ROOT
ATOM      1  C   LIG A   1      -1.793  -0.112   2.657  0.00  0.00    +0.024 C 
ATOM      2  C   LIG A   1      -1.014   1.068   3.286  0.00  0.00    +0.007 C 
ATOM      3  C   LIG A   1      -1.341   2.332   2.484  0.00  0.00    +0.008 C 
ATOM      4  C   LIG A   1      -1.710   1.891   1.048  0.00  0.00    -0.021 C 
ATOM      5  C   LIG A   1      -2.786   2.877   0.507  0.00  0.00    +0.012 C 
ATOM      6  C   LIG A   1      -0.475   1.780  -0.014  0.00  0.00    +0.003 C 
ATOM      7  C   LIG A   1      -0.882   0.836  -1.218  0.00  0.00    +0.004 C 
ATOM      8  C   LIG A   1      -1.421  -0.504  -0.671  0.00  0.00    +0.005 C 
ATOM      9  C   LIG A   1      -2.679  -0.308   0.141  0.00  0.00    +0.005 C 
ATOM     10  C   LIG A   1      -2.422   0.526   1.371  0.00  0.00    +0.001 C 
ATOM     11  C   LIG A   1       0.801   1.299   0.705  0.00  0.00    +0.014 C 
ATOM     12  C   LIG A   1      -0.103   3.138  -0.682  0.00  0.00    +0.122 C 
ATOM     13  C   LIG A   1       1.166   3.019  -1.525  0.00  0.00    +0.040 C 
ATOM     14  C   LIG A   1       1.125   1.938  -2.627  0.00  0.00    +0.023 C 
ATOM     15  C   LIG A   1       0.170   0.653  -2.407  0.00  0.00    -0.022 C 
ATOM     16  C   LIG A   1       0.953  -0.671  -2.244  0.00  0.00    +0.012 C 
ENDROOT
BRANCH   1  18
ATOM     17  C   LIG A   1      -1.840  -2.672   2.127  0.00  0.00    +0.042 C 
ATOM     18  C   LIG A   1      -1.040  -1.502   2.724  0.00  0.00    +0.070 C 
ATOM     19  O   LIG A   1       0.209  -1.507   2.012  0.00  0.00    -0.367 OA
ATOM     20  C   LIG A   1       1.292  -1.891   2.886  0.00  0.00    +0.150 C 
ATOM     21  C   LIG A   1       0.640  -2.611   4.048  0.00  0.00    +0.037 C 
ATOM     22  C   LIG A   1      -0.667  -1.859   4.181  0.00  0.00    +0.037 C 
BRANCH  20  23
ATOM     23  C   LIG A   1       2.357  -2.673   2.080  0.00  0.00    +0.086 C 
ATOM     24  C   LIG A   1       1.809  -3.946   1.427  0.00  0.00    +0.043 C 
ATOM     25  C   LIG A   1       3.582  -2.993   2.934  0.00  0.00    +0.043 C 
BRANCH  23  26
ATOM     26  O   LIG A   1       2.808  -1.827   1.007  0.00  0.00    -0.387 OA
ATOM     27  H   LIG A   1       1.992  -1.449   0.625  0.00  0.00    +0.210 HD
ENDBRANCH  23  26
ENDBRANCH  20  23
ENDBRANCH   1  18
BRANCH  14  28
ATOM     28  C   LIG A   1       2.569   1.750  -3.153  0.00  0.00    -0.076 C 
ATOM     29  C   LIG A   1       3.531   0.787  -2.500  0.00  0.00    +0.038 C 
ATOM     30  C   LIG A   1       3.054   2.543  -4.127  0.00  0.00    +0.007 C 
ENDBRANCH  14  28
BRANCH  12  31
ATOM     31  O   LIG A   1       0.112   4.149   0.302  0.00  0.00    -0.391 OA
ATOM     32  H   LIG A   1       0.303   4.980  -0.166  0.00  0.00    +0.210 HD
ENDBRANCH  12  31
BRANCH  15  33
ATOM     33  C   LIG A   1      -0.632   0.506  -3.779  0.00  0.00    +0.018 C 
BRANCH  33  34
ATOM     34  C   LIG A   1      -1.666  -0.620  -3.896  0.00  0.00    +0.121 C 
BRANCH  34  35
ATOM     35  C   LIG A   1      -2.340  -0.647  -5.241  0.00  0.00    +0.305 C 
ATOM     36  O   LIG A   1      -2.180   0.115  -6.168  0.00  0.00    -0.251 OA
BRANCH  35  37
ATOM     37  O   LIG A   1      -3.241  -1.651  -5.317  0.00  0.00    -0.481 OA
ATOM     38  H   LIG A   1      -3.640  -1.546  -6.207  0.00  0.00    +0.295 HD
ENDBRANCH  35  37
ENDBRANCH  34  35
ENDBRANCH  33  34
ENDBRANCH  15  33
TORSDOF 9
