REMARK  Name = NuBBE_673
REMARK  3 active torsions:
REMARK  status: ('A' for Active; 'I' for Inactive)
REMARK    1  A    between atoms: O_1  and  C_2
REMARK    2  A    between atoms: C_6  and  C_7
REMARK    3  A    between atoms: C_11  and  O_12
REMARK                            x       y       z     vdW  Elec       q    Type
REMARK                         _______ _______ _______ _____ _____    ______ ____
ROOT
ATOM      1  C   LIG A   1      -1.709  -1.706   0.042  0.00  0.00    +0.131 A 
ATOM      2  C   LIG A   1      -0.984  -0.502   0.070  0.00  0.00    +0.107 A 
ATOM      3  C   LIG A   1       0.424  -0.526   0.059  0.00  0.00    +0.015 A 
ATOM      4  C   LIG A   1       1.173   0.774   0.122  0.00  0.00    +0.084 C 
ATOM      5  C   LIG A   1       0.315   1.907  -0.427  0.00  0.00    +0.178 C 
ATOM      6  C   LIG A   1       0.964   3.259  -0.159  0.00  0.00    +0.052 C 
ATOM      7  O   LIG A   1      -0.976   1.919   0.202  0.00  0.00    -0.458 OA
ATOM      8  C   LIG A   1      -1.719   0.786   0.175  0.00  0.00    +0.343 C 
ATOM      9  O   LIG A   1      -2.938   0.803   0.288  0.00  0.00    -0.245 OA
ATOM     10  C   LIG A   1       1.071  -1.768   0.054  0.00  0.00    +0.121 A 
ATOM     11  C   LIG A   1       0.345  -2.959   0.026  0.00  0.00    +0.049 A 
ATOM     12  C   LIG A   1      -1.046  -2.929   0.015  0.00  0.00    +0.050 A 
ENDROOT
BRANCH   1  13
ATOM     13  O   LIG A   1      -3.077  -1.770   0.052  0.00  0.00    -0.506 OA
ATOM     14  H   LIG A   1      -3.435  -0.857   0.135  0.00  0.00    +0.292 HD
ENDBRANCH   1  13
BRANCH  10  15
ATOM     15  O   LIG A   1       2.429  -1.907   0.086  0.00  0.00    -0.506 OA
ATOM     16  H   LIG A   1       2.855  -1.060   0.281  0.00  0.00    +0.292 HD
ENDBRANCH  10  15
TORSDOF 2
