@<TRIPOS>MOLECULE
NuBBE_642
 60 61 0 0 0
SMALL
GASTEIGER

@<TRIPOS>ATOM
      1 O          -0.2616    3.5115    3.5560 O.3     1  LIG1       -0.4806
      2 C          -0.9244    2.7787    4.4952 C.2     1  LIG1        0.3047
      3 C          -0.7744    1.2765    4.2515 C.3     1  LIG1        0.0448
      4 C           0.4550    0.7280    4.9674 C.3     1  LIG1       -0.0430
      5 C           0.6854   -0.7912    4.8282 C.3     1  LIG1       -0.0526
      6 C           0.9891   -1.3228    3.4086 C.3     1  LIG1       -0.0530
      7 C           1.1303   -2.8694    3.4061 C.3     1  LIG1       -0.0531
      8 C           1.5164   -3.5465    2.0750 C.3     1  LIG1       -0.0531
      9 C           0.4869   -3.3965    0.9775 C.3     1  LIG1       -0.0531
     10 C           0.9219   -4.0284   -0.3508 C.3     1  LIG1       -0.0531
     11 C          -0.0640   -3.8679   -1.5230 C.3     1  LIG1       -0.0531
     12 C          -0.3061   -2.4236   -2.0070 C.3     1  LIG1       -0.0531
     13 C          -0.9964   -1.5526   -0.9587 C.3     1  LIG1       -0.0530
     14 C          -1.2270   -0.0905   -1.2534 C.3     1  LIG1       -0.0528
     15 C          -2.1779    0.1004   -2.4052 C.3     1  LIG1       -0.0491
     16 C          -2.4407    1.5682   -2.6998 C.3     1  LIG1       -0.0276
     17 C          -1.2244    2.3868   -3.0737 C.ar    1  LIG1       -0.0437
     18 C          -0.4362    2.1105   -4.2062 C.ar    1  LIG1       -0.0130
     19 C           0.6078    2.9736   -4.4950 C.ar    1  LIG1        0.1665
     20 O           1.5007    2.8500   -5.5165 O.3     1  LIG1       -0.4526
     21 C           2.2944    4.0449   -5.3357 C.3     1  LIG1        0.2332
     22 O           1.9036    4.8248   -4.1901 O.3     1  LIG1       -0.4526
     23 C           0.8550    4.0917   -3.7329 C.ar    1  LIG1        0.1662
     24 C           0.1147    4.3852   -2.6136 C.ar    1  LIG1       -0.0159
     25 C          -0.9031    3.4995   -2.2630 C.ar    1  LIG1       -0.0549
     26 O          -1.5292    3.2755    5.4080 O.2     1  LIG1       -0.2510
     27 H           0.1999    2.9830    2.8833 H       1  LIG1        0.2951
     28 H          -0.7462    1.0896    3.1815 H       1  LIG1        0.0377
     29 H          -1.6995    0.8077    4.6276 H       1  LIG1        0.0377
     30 H           0.3600    0.9553    6.0396 H       1  LIG1        0.0270
     31 H           1.3456    1.2701    4.6288 H       1  LIG1        0.0270
     32 H          -0.1819   -1.3201    5.2404 H       1  LIG1        0.0265
     33 H           1.5378   -1.0469    5.4726 H       1  LIG1        0.0265
     34 H           1.9221   -0.8716    3.0495 H       1  LIG1        0.0265
     35 H           0.1909   -1.0158    2.7263 H       1  LIG1        0.0265
     36 H           0.1984   -3.3144    3.7737 H       1  LIG1        0.0265
     37 H           1.9203   -3.1379    4.1158 H       1  LIG1        0.0265
     38 H           1.6973   -4.6120    2.2342 H       1  LIG1        0.0265
     39 H           2.4475   -3.0940    1.7129 H       1  LIG1        0.0265
     40 H           0.4872   -2.3286    0.9043 H       1  LIG1        0.0265
     41 H          -0.5199   -3.7307    1.2556 H       1  LIG1        0.0265
     42 H           1.0731   -5.1021   -0.1794 H       1  LIG1        0.0265
     43 H           1.8946   -3.6220   -0.6524 H       1  LIG1        0.0265
     44 H          -1.0213   -4.3383   -1.2673 H       1  LIG1        0.0265
     45 H           0.3326   -4.4448   -2.3726 H       1  LIG1        0.0265
     46 H          -0.9296   -2.4730   -2.9078 H       1  LIG1        0.0265
     47 H           0.6493   -1.9771   -2.3070 H       1  LIG1        0.0265
     48 H          -0.3295   -1.4086   -0.1391 H       1  LIG1        0.0265
     49 H          -1.8994   -2.0459   -0.5828 H       1  LIG1        0.0265
     50 H          -0.2574    0.3938   -1.4239 H       1  LIG1        0.0265
     51 H          -1.6350    0.3657   -0.3380 H       1  LIG1        0.0265
     52 H          -3.1269   -0.3838   -2.1431 H       1  LIG1        0.0268
     53 H          -1.7872   -0.4002   -3.2937 H       1  LIG1        0.0268
     54 H          -2.9233    2.0165   -1.8204 H       1  LIG1        0.0313
     55 H          -3.1759    1.6369   -3.5084 H       1  LIG1        0.0313
     56 H          -0.6256    1.2521   -4.8431 H       1  LIG1        0.0658
     57 H           2.1926    4.6692   -6.2305 H       1  LIG1        0.1166
     58 H           3.3492    3.7671   -5.2206 H       1  LIG1        0.1166
     59 H           0.3211    5.2679   -2.0213 H       1  LIG1        0.0655
     60 H          -1.4567    3.6764   -1.3436 H       1  LIG1        0.0621
@<TRIPOS>BOND
     1     1     2    1
     2     2     3    1
     3     3     4    1
     4     4     5    1
     5     5     6    1
     6     6     7    1
     7     7     8    1
     8     8     9    1
     9     9    10    1
    10    10    11    1
    11    11    12    1
    12    12    13    1
    13    13    14    1
    14    14    15    1
    15    15    16    1
    16    16    17    1
    17    17    18   ar
    18    18    19   ar
    19    19    20    1
    20    20    21    1
    21    21    22    1
    22    19    23   ar
    23    22    23    1
    24    23    24   ar
    25    24    25   ar
    26    17    25   ar
    27     2    26    2
    28     1    27    1
    29     3    28    1
    30     3    29    1
    31     4    30    1
    32     4    31    1
    33     5    32    1
    34     5    33    1
    35     6    34    1
    36     6    35    1
    37     7    36    1
    38     7    37    1
    39     8    38    1
    40     8    39    1
    41     9    40    1
    42     9    41    1
    43    10    42    1
    44    10    43    1
    45    11    44    1
    46    11    45    1
    47    12    46    1
    48    12    47    1
    49    13    48    1
    50    13    49    1
    51    14    50    1
    52    14    51    1
    53    15    52    1
    54    15    53    1
    55    16    54    1
    56    16    55    1
    57    18    56    1
    58    21    57    1
    59    21    58    1
    60    24    59    1
    61    25    60    1
