REMARK  Name = NuBBE_111
REMARK  20 active torsions:
REMARK  status: ('A' for Active; 'I' for Inactive)
REMARK    1  A    between atoms: C_2  and  C_3
REMARK    2  A    between atoms: C_2  and  O_43
REMARK    3  A    between atoms: C_6  and  O_26
REMARK    4  A    between atoms: C_8  and  C_16
REMARK    5  A    between atoms: C_10  and  C_12
REMARK    6  A    between atoms: C_12  and  C_13
REMARK    7  A    between atoms: C_13  and  O_14
REMARK    8  A    between atoms: C_16  and  C_18
REMARK    9  A    between atoms: C_16  and  O_19
REMARK   10  A    between atoms: O_19  and  C_20
REMARK   11  A    between atoms: C_20  and  C_21
REMARK   12  A    between atoms: C_21  and  C_22
REMARK   13  A    between atoms: C_23  and  C_24
REMARK   14  A    between atoms: O_26  and  C_27
REMARK   15  A    between atoms: C_30  and  C_38
REMARK   16  A    between atoms: C_32  and  O_37
REMARK   17  A    between atoms: C_34  and  O_36
REMARK   18  A    between atoms: C_38  and  O_39
REMARK   19  A    between atoms: C_40  and  O_42
REMARK   20  A    between atoms: O_43  and  C_44
REMARK                            x       y       z     vdW  Elec       q    Type
REMARK                         _______ _______ _______ _____ _____    ______ ____
ROOT
ATOM      1  C   LIG A   1       1.708   0.398   1.441  0.00  0.00    +0.075 C 
ATOM      2  C   LIG A   1       0.883  -0.174   2.318  0.00  0.00    +0.201 C 
ATOM      3  O   LIG A   1      -0.397  -0.592   2.087  0.00  0.00    -0.470 OA
ATOM      4  C   LIG A   1      -0.970  -0.194   0.834  0.00  0.00    +0.316 C 
ATOM      5  C   LIG A   1       0.071  -0.423  -0.318  0.00  0.00    +0.106 C 
ATOM      6  C   LIG A   1       1.273   0.572  -0.018  0.00  0.00    +0.052 C 
ENDROOT
BRANCH   5   7
ATOM      7  C   LIG A   1       0.428  -1.974  -0.473  0.00  0.00    +0.183 C 
ATOM      8  C   LIG A   1      -0.800  -2.808  -0.894  0.00  0.00    +0.052 C 
BRANCH   7   9
ATOM      9  O   LIG A   1       1.477  -2.184  -1.467  0.00  0.00    -0.458 OA
BRANCH   9  10
ATOM     10  C   LIG A   1       2.027  -3.431  -1.619  0.00  0.00    +0.335 C 
ATOM     11  O   LIG A   1       1.691  -4.438  -1.005  0.00  0.00    -0.245 OA
BRANCH  10  12
ATOM     12  C   LIG A   1       3.138  -3.451  -2.638  0.00  0.00    +0.029 C 
ATOM     13  C   LIG A   1       3.690  -4.798  -3.023  0.00  0.00    +0.051 C 
ATOM     14  C   LIG A   1       3.595  -2.287  -3.135  0.00  0.00    -0.020 C 
ATOM     15  C   LIG A   1       4.690  -2.028  -4.110  0.00  0.00    +0.035 C 
ENDBRANCH  10  12
ENDBRANCH   9  10
ENDBRANCH   7   9
ENDBRANCH   5   7
BRANCH   1  17
ATOM     16  O   LIG A   1       4.057   0.984   1.278  0.00  0.00    -0.245 OA
ATOM     17  C   LIG A   1       3.068   0.806   1.956  0.00  0.00    +0.338 C 
BRANCH  17  18
ATOM     18  O   LIG A   1       3.003   0.908   3.318  0.00  0.00    -0.465 OA
ATOM     19  C   LIG A   1       4.240   0.887   4.030  0.00  0.00    +0.280 C 
ENDBRANCH  17  18
ENDBRANCH   1  17
BRANCH   4  20
ATOM     20  O   LIG A   1      -1.476   1.172   0.863  0.00  0.00    -0.309 OA
BRANCH  20  21
ATOM     21  C   LIG A   1      -2.408   1.381   1.951  0.00  0.00    +0.286 C 
ATOM     22  O   LIG A   1      -3.566   0.559   1.778  0.00  0.00    -0.340 OA
ATOM     23  C   LIG A   1      -4.787   1.214   1.423  0.00  0.00    +0.178 C 
ATOM     24  C   LIG A   1      -4.524   2.373   0.452  0.00  0.00    +0.177 C 
ATOM     25  C   LIG A   1      -3.815   3.469   1.250  0.00  0.00    +0.179 C 
ATOM     26  C   LIG A   1      -2.707   2.902   2.165  0.00  0.00    +0.201 C 
BRANCH  25  27
ATOM     27  O   LIG A   1      -3.326   4.494   0.373  0.00  0.00    -0.386 OA
ATOM     28  H   LIG A   1      -2.806   4.079  -0.338  0.00  0.00    +0.210 HD
ENDBRANCH  25  27
BRANCH  24  29
ATOM     29  O   LIG A   1      -5.728   2.892  -0.126  0.00  0.00    -0.387 OA
ATOM     30  H   LIG A   1      -5.466   3.659  -0.674  0.00  0.00    +0.210 HD
ENDBRANCH  24  29
BRANCH  26  31
ATOM     31  O   LIG A   1      -3.140   3.079   3.535  0.00  0.00    -0.384 OA
ATOM     32  H   LIG A   1      -3.314   4.028   3.675  0.00  0.00    +0.210 HD
ENDBRANCH  26  31
BRANCH  23  33
ATOM     33  C   LIG A   1      -5.736   0.145   0.867  0.00  0.00    +0.190 C 
BRANCH  33  34
ATOM     34  O   LIG A   1      -7.012   0.652   0.499  0.00  0.00    -0.392 OA
ATOM     35  H   LIG A   1      -6.860   1.511   0.050  0.00  0.00    +0.209 HD
ENDBRANCH  33  34
ENDBRANCH  23  33
ENDBRANCH  20  21
ENDBRANCH   4  20
BRANCH   6  36
ATOM     36  C   LIG A   1       2.401   0.629  -1.066  0.00  0.00    +0.129 C 
BRANCH  36  37
ATOM     37  C   LIG A   1       1.950   1.037  -2.455  0.00  0.00    +0.305 C 
ATOM     38  O   LIG A   1       0.809   0.986  -2.887  0.00  0.00    -0.251 OA
BRANCH  37  39
ATOM     39  O   LIG A   1       2.975   1.475  -3.230  0.00  0.00    -0.481 OA
ATOM     40  H   LIG A   1       3.843   1.491  -2.781  0.00  0.00    +0.295 HD
ENDBRANCH  37  39
ENDBRANCH  36  37
ENDBRANCH   6  36
TORSDOF 16
