@<TRIPOS>MOLECULE
NuBBE_2021
 40 42 0 0 0
SMALL
GASTEIGER

@<TRIPOS>ATOM
      1 O          -2.1079   -1.2102   -0.0672 O.2     1  LIG1       -0.2864
      2 C          -0.8930   -1.3385   -0.0661 C.ar    1  LIG1        0.2003
      3 C          -0.3096   -2.6907   -0.1120 C.ar    1  LIG1        0.0684
      4 C          -1.1467   -3.8032   -0.1627 C.ar    1  LIG1       -0.0437
      5 C          -0.5930   -5.0805   -0.2084 C.ar    1  LIG1       -0.0156
      6 C           0.7967   -5.2406   -0.2090 C.ar    1  LIG1        0.1622
      7 O           1.2925   -6.5145   -0.2296 O.3     1  LIG1       -0.5032
      8 C           1.6501   -4.1266   -0.1623 C.ar    1  LIG1        0.2046
      9 O           3.0209   -4.1554   -0.1052 O.3     1  LIG1       -0.4885
     10 C           3.6795   -5.2532   -0.7228 C.3     1  LIG1        0.0791
     11 C           1.0759   -2.8437   -0.1039 C.ar    1  LIG1        0.1834
     12 O           1.9189   -1.7591   -0.0480 O.2     1  LIG1       -0.4583
     13 C           1.3624   -0.5029   -0.0194 C.ar    1  LIG1        0.1040
     14 C           0.0578   -0.1853   -0.0200 C.ar    1  LIG1        0.0644
     15 C          -0.3940    1.2282   -0.0095 C.ar    1  LIG1       -0.0076
     16 C           0.3500    2.2356    0.6263 C.ar    1  LIG1       -0.0084
     17 C          -0.0566    3.5824    0.6255 C.ar    1  LIG1        0.1621
     18 O           0.8385    4.3917    1.2777 O.3     1  LIG1       -0.4914
     19 C           0.5628    5.7816    1.3623 C.3     1  LIG1        0.0790
     20 C          -1.2615    3.9373    0.0023 C.ar    1  LIG1        0.1615
     21 O          -1.6408    5.2510   -0.0187 O.3     1  LIG1       -0.4915
     22 C          -3.0387    5.5115   -0.0344 C.3     1  LIG1        0.0790
     23 C          -2.0103    2.9437   -0.6365 C.ar    1  LIG1       -0.0157
     24 C          -1.5808    1.6125   -0.6414 C.ar    1  LIG1       -0.0501
     25 H          -2.2276   -3.6798   -0.1603 H       1  LIG1        0.0627
     26 H          -1.2611   -5.9364   -0.2334 H       1  LIG1        0.0655
     27 H           0.5576   -7.1491   -0.2083 H       1  LIG1        0.2923
     28 H           4.7487   -5.0193   -0.7534 H       1  LIG1        0.0660
     29 H           3.3413   -5.3953   -1.7546 H       1  LIG1        0.0660
     30 H           3.5821   -6.1677   -0.1322 H       1  LIG1        0.0660
     31 H           2.1688    0.2223   -0.0055 H       1  LIG1        0.1037
     32 H           1.2756    1.9942    1.1455 H       1  LIG1        0.0661
     33 H           1.4052    6.2563    1.8744 H       1  LIG1        0.0660
     34 H          -0.3316    5.9682    1.9654 H       1  LIG1        0.0660
     35 H           0.4966    6.2395    0.3704 H       1  LIG1        0.0660
     36 H          -3.1804    6.5475    0.2882 H       1  LIG1        0.0660
     37 H          -3.5841    4.8676    0.6638 H       1  LIG1        0.0660
     38 H          -3.4356    5.4205   -1.0499 H       1  LIG1        0.0660
     39 H          -2.9297    3.1768   -1.1645 H       1  LIG1        0.0655
     40 H          -2.1991    0.8835   -1.1621 H       1  LIG1        0.0625
@<TRIPOS>BOND
     1     1     2    2
     2     2     3   ar
     3     3     4   ar
     4     4     5   ar
     5     5     6   ar
     6     6     7    1
     7     6     8   ar
     8     8     9    1
     9     9    10    1
    10     8    11   ar
    11     3    11   ar
    12    11    12   ar
    13    12    13   ar
    14    13    14   ar
    15     2    14   ar
    16    14    15    1
    17    15    16   ar
    18    16    17   ar
    19    17    18    1
    20    18    19    1
    21    17    20   ar
    22    20    21    1
    23    21    22    1
    24    20    23   ar
    25    23    24   ar
    26    15    24   ar
    27     4    25    1
    28     5    26    1
    29     7    27    1
    30    10    28    1
    31    10    29    1
    32    10    30    1
    33    13    31    1
    34    16    32    1
    35    19    33    1
    36    19    34    1
    37    19    35    1
    38    22    36    1
    39    22    37    1
    40    22    38    1
    41    23    39    1
    42    24    40    1
