REMARK  Name = NuBBE_2361
REMARK  12 active torsions:
REMARK  status: ('A' for Active; 'I' for Inactive)
REMARK    1  A    between atoms: C_1  and  C_2
REMARK    2  A    between atoms: C_3  and  O_29
REMARK    3  A    between atoms: C_11  and  C_12
REMARK    4  A    between atoms: C_17  and  C_19
REMARK    5  A    between atoms: C_19  and  C_21
REMARK    6  A    between atoms: C_19  and  C_22
REMARK    7  A    between atoms: C_22  and  C_23
REMARK    8  A    between atoms: C_23  and  C_24
REMARK    9  A    between atoms: C_24  and  C_25
REMARK   10  A    between atoms: C_25  and  C_26
REMARK   11  A    between atoms: C_25  and  C_27
REMARK   12  A    between atoms: C_31  and  O_32
REMARK                            x       y       z     vdW  Elec       q    Type
REMARK                         _______ _______ _______ _____ _____    ______ ____
ROOT
ATOM      1  C   LIG A   1      -0.076  -3.920  -0.355  0.00  0.00    +0.014 C 
ATOM      2  C   LIG A   1       1.291  -3.676  -1.063  0.00  0.00    +0.007 C 
ATOM      3  C   LIG A   1       2.475  -4.283  -0.225  0.00  0.00    +0.131 C 
ATOM      4  C   LIG A   1       2.705  -3.484   1.055  0.00  0.00    +0.166 C 
ATOM      5  C   LIG A   1       2.888  -1.986   0.900  0.00  0.00    +0.081 C 
ATOM      6  C   LIG A   1       1.676  -1.438   0.148  0.00  0.00    +0.003 C 
ATOM      7  C   LIG A   1       1.539  -2.121  -1.253  0.00  0.00    +0.002 C 
ATOM      8  C   LIG A   1       0.534  -1.417  -2.224  0.00  0.00    +0.005 C 
ATOM      9  C   LIG A   1       0.417   0.121  -2.102  0.00  0.00    +0.007 C 
ATOM     10  C   LIG A   1       0.326   0.576  -0.630  0.00  0.00    -0.026 C 
ATOM     11  C   LIG A   1      -0.927  -0.063   0.017  0.00  0.00    +0.012 C 
ATOM     12  C   LIG A   1       1.666   0.079  -0.013  0.00  0.00    -0.001 C 
ATOM     13  C   LIG A   1       1.818   0.932   1.225  0.00  0.00    +0.004 C 
ATOM     14  C   LIG A   1       1.490   2.320   0.686  0.00  0.00    +0.004 C 
ATOM     15  C   LIG A   1       0.378   2.142  -0.393  0.00  0.00    -0.002 C 
ATOM     16  O   LIG A   1       2.823  -4.035   2.171  0.00  0.00    -0.294 OA
ATOM     17  C   LIG A   1       2.276  -5.790   0.012  0.00  0.00    +0.074 C 
ATOM     18  C   LIG A   1       2.142  -6.558  -1.305  0.00  0.00    +0.118 C 
ATOM     19  C   LIG A   1       1.144  -5.942  -2.292  0.00  0.00    +0.032 C 
ATOM     20  C   LIG A   1       1.259  -4.414  -2.433  0.00  0.00    +0.012 C 
ENDROOT
BRANCH  15  21
ATOM     21  C   LIG A   1      -0.939   2.911   0.021  0.00  0.00    -0.010 C 
ATOM     22  C   LIG A   1      -2.087   2.690  -0.978  0.00  0.00    +0.008 C 
BRANCH  21  23
ATOM     23  C   LIG A   1      -0.683   4.438   0.206  0.00  0.00    +0.003 C 
BRANCH  23  24
ATOM     24  C   LIG A   1      -1.880   5.298   0.665  0.00  0.00    +0.000 C 
BRANCH  24  25
ATOM     25  C   LIG A   1      -2.528   4.851   1.983  0.00  0.00    +0.003 C 
BRANCH  25  26
ATOM     26  C   LIG A   1      -3.724   5.735   2.405  0.00  0.00    -0.017 C 
ATOM     27  C   LIG A   1      -4.878   5.678   1.400  0.00  0.00    +0.007 C 
ATOM     28  C   LIG A   1      -4.238   5.309   3.783  0.00  0.00    +0.007 C 
ENDBRANCH  25  26
ENDBRANCH  24  25
ENDBRANCH  23  24
ENDBRANCH  21  23
ENDBRANCH  15  21
BRANCH   3  29
ATOM     29  O   LIG A   1       3.711  -4.130  -0.962  0.00  0.00    -0.380 OA
ATOM     30  H   LIG A   1       4.413  -4.532  -0.410  0.00  0.00    +0.211 HD
ENDBRANCH   3  29
BRANCH  18  31
ATOM     31  O   LIG A   1       3.422  -6.639  -1.934  0.00  0.00    -0.392 OA
ATOM     32  H   LIG A   1       3.709  -5.722  -2.115  0.00  0.00    +0.210 HD
ENDBRANCH  18  31
TORSDOF 7
