REMARK  Name = NuBBE_2203
REMARK  2 active torsions:
REMARK  status: ('A' for Active; 'I' for Inactive)
REMARK    1  A    between atoms: N_15  and  O_19
REMARK    2  A    between atoms: O_19  and  C_20
REMARK                            x       y       z     vdW  Elec       q    Type
REMARK                         _______ _______ _______ _____ _____    ______ ____
ROOT
ATOM      1  O   LIG A   1      -3.508   1.139   0.317  0.00  0.00    -0.267 OA
ATOM      2  C   LIG A   1      -2.285   1.198   0.258  0.00  0.00    +0.256 A 
ATOM      3  N   LIG A   1      -1.404   0.133   0.233  0.00  0.00    -0.274 N 
ATOM      4  C   LIG A   1      -0.049   0.318   0.158  0.00  0.00    +0.085 A 
ATOM      5  C   LIG A   1       0.613  -0.955   0.156  0.00  0.00    +0.015 A 
ATOM      6  C   LIG A   1      -0.439  -1.975   0.224  0.00  0.00    +0.008 A 
ATOM      7  C   LIG A   1      -1.669  -1.258   0.272  0.00  0.00    +0.058 A 
ATOM      8  C   LIG A   1      -2.881  -1.915   0.344  0.00  0.00    +0.027 A 
ATOM      9  C   LIG A   1      -2.855  -3.313   0.368  0.00  0.00    +0.002 A 
ATOM     10  C   LIG A   1      -1.637  -4.023   0.321  0.00  0.00    +0.001 A 
ATOM     11  C   LIG A   1      -0.411  -3.354   0.248  0.00  0.00    +0.010 A 
ATOM     12  C   LIG A   1       1.950  -1.000   0.119  0.00  0.00    +0.084 A 
ATOM     13  C   LIG A   1       2.716   0.303   0.083  0.00  0.00    +0.284 A 
ATOM     14  O   LIG A   1       3.944   0.261   0.111  0.00  0.00    -0.265 OA
ATOM     15  N   LIG A   1       1.943   1.466   0.003  0.00  0.00    -0.142 N 
ATOM     16  C   LIG A   1       0.571   1.492   0.098  0.00  0.00    +0.109 A 
ATOM     17  C   LIG A   1      -0.266   2.673   0.131  0.00  0.00    +0.037 A 
ATOM     18  C   LIG A   1      -1.607   2.550   0.206  0.00  0.00    +0.073 A 
ENDROOT
BRANCH  15  19
ATOM     19  O   LIG A   1       2.610   2.708   0.118  0.00  0.00    -0.411 OA
ATOM     20  C   LIG A   1       3.132   3.080  -1.157  0.00  0.00    +0.311 C 
ENDBRANCH  15  19
TORSDOF 1
