REMARK  Name = NuBBE_1648
REMARK  9 active torsions:
REMARK  status: ('A' for Active; 'I' for Inactive)
REMARK    1  A    between atoms: C_1  and  C_2
REMARK    2  A    between atoms: C_4  and  C_20
REMARK    3  A    between atoms: C_9  and  C_11
REMARK    4  A    between atoms: C_14  and  O_16
REMARK    5  A    between atoms: O_16  and  C_17
REMARK    6  A    between atoms: C_17  and  C_19
REMARK    7  A    between atoms: C_23  and  O_26
REMARK    8  A    between atoms: O_26  and  C_27
REMARK    9  A    between atoms: C_27  and  C_29
REMARK                            x       y       z     vdW  Elec       q    Type
REMARK                         _______ _______ _______ _____ _____    ______ ____
ROOT
ATOM      1  C   LIG A   1      -1.365  -1.428  -3.600  0.00  0.00    +0.009 C 
ATOM      2  C   LIG A   1      -1.385  -1.523  -2.062  0.00  0.00    +0.001 C 
ATOM      3  C   LIG A   1      -0.746  -0.241  -1.449  0.00  0.00    +0.052 C 
ATOM      4  C   LIG A   1       0.782  -0.302  -1.389  0.00  0.00    -0.033 A 
ATOM      5  C   LIG A   1       1.479  -1.522  -1.457  0.00  0.00    -0.043 A 
ATOM      6  C   LIG A   1       0.802  -2.818  -1.821  0.00  0.00    +0.039 C 
ATOM      7  C   LIG A   1      -0.715  -2.836  -1.598  0.00  0.00    -0.006 C 
ATOM      8  C   LIG A   1      -1.050  -3.205  -0.150  0.00  0.00    +0.008 C 
ATOM      9  C   LIG A   1       2.868  -1.536  -1.247  0.00  0.00    +0.007 A 
ATOM     10  C   LIG A   1       3.569  -0.363  -0.969  0.00  0.00    +0.046 A 
ATOM     11  C   LIG A   1       2.893   0.850  -0.961  0.00  0.00    +0.132 A 
ATOM     12  C   LIG A   1       1.512   0.887  -1.167  0.00  0.00    +0.050 A 
ENDROOT
BRANCH   3  13
ATOM     13  C   LIG A   1      -1.411   0.170  -0.121  0.00  0.00    -0.040 A 
ATOM     14  C   LIG A   1      -0.690   0.226   1.082  0.00  0.00    +0.008 A 
ATOM     15  C   LIG A   1      -1.268   0.711   2.253  0.00  0.00    +0.046 A 
ATOM     16  C   LIG A   1      -2.607   1.083   2.261  0.00  0.00    +0.132 A 
ATOM     17  C   LIG A   1      -3.357   1.019   1.088  0.00  0.00    +0.046 A 
ATOM     18  C   LIG A   1      -2.760   0.571  -0.099  0.00  0.00    +0.008 A 
BRANCH  16  19
ATOM     19  O   LIG A   1      -3.244   1.612   3.403  0.00  0.00    -0.426 OA
BRANCH  19  20
ATOM     20  C   LIG A   1      -2.808   1.297   4.692  0.00  0.00    +0.309 C 
ATOM     21  O   LIG A   1      -1.957   0.476   5.007  0.00  0.00    -0.251 OA
ATOM     22  C   LIG A   1      -3.591   2.085   5.696  0.00  0.00    +0.136 C 
ENDBRANCH  19  20
ENDBRANCH  16  19
ENDBRANCH   3  13
BRANCH  11  23
ATOM     23  O   LIG A   1       3.511   2.082  -0.658  0.00  0.00    -0.426 OA
BRANCH  23  24
ATOM     24  C   LIG A   1       4.846   2.340  -0.974  0.00  0.00    +0.309 C 
ATOM     25  O   LIG A   1       5.630   1.585  -1.539  0.00  0.00    -0.251 OA
ATOM     26  C   LIG A   1       5.223   3.708  -0.494  0.00  0.00    +0.136 C 
ENDBRANCH  23  24
ENDBRANCH  11  23
TORSDOF 5
