REMARK  Name = NuBBE_1822
REMARK  12 active torsions:
REMARK  status: ('A' for Active; 'I' for Inactive)
REMARK    1  A    between atoms: C_2  and  C_3
REMARK    2  A    between atoms: C_2  and  C_4
REMARK    3  A    between atoms: C_5  and  C_6
REMARK    4  A    between atoms: C_10  and  O_11
REMARK    5  A    between atoms: O_11  and  C_12
REMARK    6  A    between atoms: C_12  and  C_13
REMARK    7  A    between atoms: C_16  and  O_17
REMARK    8  A    between atoms: O_17  and  C_18
REMARK    9  A    between atoms: C_18  and  C_19
REMARK   10  A    between atoms: C_22  and  O_23
REMARK   11  A    between atoms: O_23  and  C_24
REMARK   12  A    between atoms: C_24  and  C_25
REMARK                            x       y       z     vdW  Elec       q    Type
REMARK                         _______ _______ _______ _____ _____    ______ ____
ROOT
ATOM      1  C   LIG A   1      -1.888  -0.344   1.884  0.00  0.00    +0.063 A 
ATOM      2  C   LIG A   1      -2.373  -1.553   1.327  0.00  0.00    -0.036 A 
ATOM      3  C   LIG A   1      -3.549  -2.335   1.863  0.00  0.00    +0.044 C 
ATOM      4  C   LIG A   1      -1.777  -2.101   0.179  0.00  0.00    +0.013 A 
ATOM      5  C   LIG A   1      -0.692  -1.525  -0.467  0.00  0.00    -0.007 A 
ATOM      6  C   LIG A   1      -0.233  -2.194  -1.623  0.00  0.00    +0.055 A 
ATOM      7  C   LIG A   1       0.860  -1.733  -2.330  0.00  0.00    +0.136 A 
ATOM      8  C   LIG A   1       1.519  -0.613  -1.877  0.00  0.00    +0.093 A 
ATOM      9  C   LIG A   1       1.024   0.107  -0.760  0.00  0.00    +0.146 A 
ATOM     10  C   LIG A   1      -0.119  -0.324   0.024  0.00  0.00    +0.068 A 
ATOM     11  C   LIG A   1      -0.777   0.266   1.217  0.00  0.00    +0.153 A 
ENDROOT
BRANCH   1  13
ATOM     12  O   LIG A   1      -3.861  -0.014   3.189  0.00  0.00    -0.292 OA
ATOM     13  C   LIG A   1      -2.648   0.199   3.097  0.00  0.00    +0.164 C 
ATOM     14  C   LIG A   1      -1.995   0.950   4.237  0.00  0.00    +0.091 C 
ENDBRANCH   1  13
BRANCH   7  15
ATOM     15  O   LIG A   1       1.111  -2.296  -3.591  0.00  0.00    -0.426 OA
BRANCH  15  16
ATOM     16  C   LIG A   1       2.397  -2.404  -4.114  0.00  0.00    +0.309 C 
ATOM     17  C   LIG A   1       2.324  -2.482  -5.616  0.00  0.00    +0.136 C 
ATOM     18  O   LIG A   1       3.447  -2.389  -3.463  0.00  0.00    -0.251 OA
ENDBRANCH  15  16
ENDBRANCH   7  15
BRANCH   9  19
ATOM     19  O   LIG A   1       1.750   1.260  -0.345  0.00  0.00    -0.425 OA
BRANCH  19  20
ATOM     20  C   LIG A   1       2.562   1.944  -1.273  0.00  0.00    +0.309 C 
ATOM     21  C   LIG A   1       3.623   2.685  -0.518  0.00  0.00    +0.136 C 
ATOM     22  O   LIG A   1       2.468   1.948  -2.481  0.00  0.00    -0.251 OA
ENDBRANCH  19  20
ENDBRANCH   9  19
BRANCH  11  23
ATOM     23  O   LIG A   1      -0.209   1.481   1.703  0.00  0.00    -0.425 OA
BRANCH  23  24
ATOM     24  C   LIG A   1      -1.041   2.597   1.831  0.00  0.00    +0.309 C 
ATOM     25  C   LIG A   1      -0.282   3.729   2.473  0.00  0.00    +0.136 C 
ATOM     26  O   LIG A   1      -2.225   2.645   1.558  0.00  0.00    -0.251 OA
ENDBRANCH  23  24
ENDBRANCH  11  23
TORSDOF 7
