REMARK  Name = NuBBE_2298
REMARK  5 active torsions:
REMARK  status: ('A' for Active; 'I' for Inactive)
REMARK    1  A    between atoms: C_1  and  C_2
REMARK    2  A    between atoms: C_4  and  C_19
REMARK    3  A    between atoms: C_5  and  O_6
REMARK    4  A    between atoms: C_8  and  C_10
REMARK    5  A    between atoms: C_19  and  C_20
REMARK                            x       y       z     vdW  Elec       q    Type
REMARK                         _______ _______ _______ _____ _____    ______ ____
ROOT
ATOM      1  C   LIG A   1      -1.552   1.266  -1.496  0.00  0.00    +0.011 C 
ATOM      2  C   LIG A   1      -0.508   0.333  -0.874  0.00  0.00    +0.032 C 
ATOM      3  C   LIG A   1       0.659  -0.133  -1.802  0.00  0.00    +0.044 C 
ATOM      4  C   LIG A   1       1.785   0.821  -1.354  0.00  0.00    +0.239 C 
ATOM      5  O   LIG A   1       1.611   0.966   0.052  0.00  0.00    -0.334 OA
ATOM      6  C   LIG A   1       0.199   1.038   0.312  0.00  0.00    +0.156 C 
ATOM      7  C   LIG A   1       0.422  -0.065  -3.332  0.00  0.00    +0.040 C 
ATOM      8  C   LIG A   1       0.614   1.271  -3.983  0.00  0.00    -0.022 C 
ATOM      9  C   LIG A   1       1.222   2.315  -3.417  0.00  0.00    +0.048 C 
ATOM     10  C   LIG A   1       1.764   2.217  -2.044  0.00  0.00    +0.215 C 
ATOM     11  O   LIG A   1       2.218   3.230  -1.522  0.00  0.00    -0.287 OA
ENDROOT
BRANCH   6  12
ATOM     12  C   LIG A   1      -0.119   0.457   1.680  0.00  0.00    -0.015 A 
ATOM     13  C   LIG A   1      -1.278   0.862   2.370  0.00  0.00    +0.055 A 
ATOM     14  C   LIG A   1      -1.525   0.321   3.620  0.00  0.00    +0.167 A 
ATOM     15  O   LIG A   1      -2.576   0.624   4.430  0.00  0.00    -0.453 OA
ATOM     16  C   LIG A   1      -2.269  -0.183   5.588  0.00  0.00    +0.466 C 
ATOM     17  O   LIG A   1      -1.109  -1.019   5.411  0.00  0.00    -0.453 OA
ATOM     18  C   LIG A   1      -0.685  -0.608   4.186  0.00  0.00    +0.166 A 
ATOM     19  C   LIG A   1       0.457  -1.031   3.548  0.00  0.00    +0.050 A 
ATOM     20  C   LIG A   1       0.744  -0.482   2.294  0.00  0.00    +0.010 A 
ENDBRANCH   6  12
BRANCH   4  21
ATOM     21  O   LIG A   1       3.071   0.265  -1.569  0.00  0.00    -0.358 OA
ATOM     22  H   LIG A   1       3.671   0.897  -1.130  0.00  0.00    +0.213 HD
ENDBRANCH   4  21
BRANCH   3  23
ATOM     23  C   LIG A   1       1.055  -1.619  -1.467  0.00  0.00    +0.040 C 
BRANCH  23  24
ATOM     24  C   LIG A   1      -0.029  -2.653  -1.657  0.00  0.00    -0.034 C 
ATOM     25  C   LIG A   1      -0.493  -3.431  -0.670  0.00  0.00    +0.004 C 
ENDBRANCH  23  24
ENDBRANCH   3  23
TORSDOF 4
