REMARK  Name = NuBBE_2140
REMARK  6 active torsions:
REMARK  status: ('A' for Active; 'I' for Inactive)
REMARK    1  A    between atoms: C_1  and  C_2
REMARK    2  A    between atoms: C_2  and  C_3
REMARK    3  A    between atoms: C_3  and  C_4
REMARK    4  A    between atoms: C_4  and  C_5
REMARK    5  A    between atoms: C_5  and  C_6
REMARK    6  A    between atoms: C_6  and  C_7
REMARK                            x       y       z     vdW  Elec       q    Type
REMARK                         _______ _______ _______ _____ _____    ______ ____
ROOT
ATOM      1  C   LIG A   1       1.227  -0.865  -1.447  0.00  0.00    +0.030 C 
ENDROOT
BRANCH   1   2
ATOM      2  C   LIG A   1       1.683  -0.756  -0.008  0.00  0.00    -0.073 C 
ATOM      3  C   LIG A   1       2.693   0.064   0.352  0.00  0.00    -0.028 C 
ATOM      4  C   LIG A   1       3.149   0.251   1.769  0.00  0.00    +0.027 C 
ATOM      5  C   LIG A   1       2.147  -0.286   2.790  0.00  0.00    +0.004 C 
ATOM      6  C   LIG A   1       1.648  -1.666   2.377  0.00  0.00    +0.005 C 
ATOM      7  C   LIG A   1       0.961  -1.613   1.009  0.00  0.00    +0.030 C 
ENDBRANCH   1   2
BRANCH   1   8
ATOM      8  C   LIG A   1      -0.229  -0.434  -1.681  0.00  0.00    +0.004 C 
BRANCH   8   9
ATOM      9  C   LIG A   1      -0.492   1.037  -1.337  0.00  0.00    +0.000 C 
BRANCH   9  10
ATOM     10  C   LIG A   1      -1.940   1.479  -1.585  0.00  0.00    -0.000 C 
BRANCH  10  12
ATOM     11  C   LIG A   1      -4.381   1.199  -1.010  0.00  0.00    +0.004 C 
ATOM     12  C   LIG A   1      -2.965   0.710  -0.749  0.00  0.00    -0.003 C 
ENDBRANCH  10  12
ENDBRANCH   9  10
ENDBRANCH   8   9
ENDBRANCH   1   8
TORSDOF 5
