@<TRIPOS>MOLECULE
NuBBE_1112
 79 82 0 0 0
SMALL
GASTEIGER

@<TRIPOS>ATOM
      1 C          -4.2656    4.1471    1.4303 C.3     1  LIG1       -0.0556
      2 C          -2.7483    3.8902    1.6075 C.3     1  LIG1       -0.0070
      3 C          -2.5693    3.1564    2.9379 C.2     1  LIG1       -0.0576
      4 C          -2.4053    3.9677    4.2081 C.3     1  LIG1       -0.0047
      5 C          -1.5733    5.2388    4.0401 C.3     1  LIG1        0.0590
      6 H          -1.6097    5.8272    4.9632 H       1  LIG1        0.0596
      7 O          -0.2019    4.9218    3.7988 O.3     1  LIG1       -0.3915
      8 C          -2.1128    6.0702    2.8822 C.3     1  LIG1       -0.0258
      9 C          -2.0337    5.2789    1.5764 C.3     1  LIG1       -0.0413
     10 C          -2.6547    1.8197    3.0291 C.2     1  LIG1       -0.0191
     11 C          -2.9550    0.9559    1.8632 C.2     1  LIG1        0.1597
     12 C          -2.8541    1.5430    0.4515 C.3     1  LIG1        0.0285
     13 H          -3.8997    1.6415    0.1287 H       1  LIG1        0.0386
     14 C          -2.2206    2.9713    0.4264 C.3     1  LIG1       -0.0218
     15 H          -2.5492    3.4352   -0.5155 H       1  LIG1        0.0316
     16 C          -0.6647    2.9379    0.3480 C.3     1  LIG1       -0.0483
     17 C          -0.0667    1.9220   -0.6243 C.3     1  LIG1       -0.0468
     18 C          -0.6146    0.5080   -0.4055 C.3     1  LIG1       -0.0255
     19 C          -0.1879   -0.0575    0.9679 C.3     1  LIG1       -0.0590
     20 C          -2.1488    0.6322   -0.5737 C.3     1  LIG1       -0.0253
     21 C          -2.6059   -0.8046   -0.7759 C.3     1  LIG1       -0.0488
     22 C          -1.4920   -1.4282   -1.6306 C.3     1  LIG1       -0.0492
     23 C          -0.2556   -0.4845   -1.5609 C.3     1  LIG1       -0.0328
     24 H          -0.2414    0.0850   -2.5029 H       1  LIG1        0.0309
     25 C           1.0970   -1.2685   -1.4769 C.3     1  LIG1       -0.0405
     26 H           1.0544   -1.9100   -0.5887 H       1  LIG1        0.0301
     27 C           2.3167   -0.3452   -1.3306 C.3     1  LIG1       -0.0621
     28 C           1.2840   -2.1826   -2.7197 C.3     1  LIG1       -0.0499
     29 C           2.6020   -2.9911   -2.7742 C.3     1  LIG1       -0.0497
     30 C           2.8105   -3.9989   -1.6114 C.3     1  LIG1       -0.0389
     31 H           2.7386   -3.4471   -0.6650 H       1  LIG1        0.0303
     32 C           1.6584   -5.0362   -1.6186 C.3     1  LIG1       -0.0528
     33 C           1.7506   -6.1077   -0.5437 C.3     1  LIG1       -0.0650
     34 C           4.2202   -4.6727   -1.6139 C.3     1  LIG1       -0.0439
     35 C           4.5553   -5.4125   -2.9103 C.3     1  LIG1       -0.0624
     36 C           5.3530   -3.6994   -1.2673 C.3     1  LIG1       -0.0624
     37 H          -2.3361    1.1217   -1.5466 H       1  LIG1        0.0313
     38 O          -3.3260   -0.1835    2.0895 O.2     1  LIG1       -0.2924
     39 H          -4.6537    4.8189    2.2044 H       1  LIG1        0.0238
     40 H          -4.8569    3.2271    1.4901 H       1  LIG1        0.0238
     41 H          -4.4740    4.6084    0.4584 H       1  LIG1        0.0238
     42 H          -3.4052    4.2461    4.5613 H       1  LIG1        0.0335
     43 H          -1.9455    3.3460    4.9879 H       1  LIG1        0.0335
     44 H           0.0913    4.3027    4.4889 H       1  LIG1        0.2098
     45 H          -1.5100    6.9796    2.7708 H       1  LIG1        0.0290
     46 H          -3.1425    6.3839    3.0832 H       1  LIG1        0.0290
     47 H          -0.9675    5.1802    1.3639 H       1  LIG1        0.0274
     48 H          -2.4390    5.8882    0.7585 H       1  LIG1        0.0274
     49 H          -2.5863    1.2944    3.9749 H       1  LIG1        0.0652
     50 H          -0.2347    2.7828    1.3433 H       1  LIG1        0.0269
     51 H          -0.3006    3.9116    0.0014 H       1  LIG1        0.0269
     52 H           1.0207    1.9575   -0.5295 H       1  LIG1        0.0271
     53 H          -0.2877    2.2548   -1.6480 H       1  LIG1        0.0271
     54 H          -0.4638    0.5912    1.7989 H       1  LIG1        0.0235
     55 H           0.8951   -0.1673    1.0505 H       1  LIG1        0.0235
     56 H          -0.6235   -1.0431    1.1592 H       1  LIG1        0.0235
     57 H          -3.5800   -0.8630   -1.2725 H       1  LIG1        0.0268
     58 H          -2.6832   -1.3650    0.1587 H       1  LIG1        0.0268
     59 H          -1.8252   -1.5214   -2.6713 H       1  LIG1        0.0268
     60 H          -1.2714   -2.4362   -1.2648 H       1  LIG1        0.0268
     61 H           2.4420    0.2927   -2.2112 H       1  LIG1        0.0233
     62 H           3.2364   -0.9207   -1.1884 H       1  LIG1        0.0233
     63 H           2.2602    0.2962   -0.4521 H       1  LIG1        0.0233
     64 H           1.2358   -1.5590   -3.6221 H       1  LIG1        0.0268
     65 H           0.4406   -2.8773   -2.8112 H       1  LIG1        0.0268
     66 H           3.4462   -2.2967   -2.8346 H       1  LIG1        0.0268
     67 H           2.6079   -3.5338   -3.7281 H       1  LIG1        0.0268
     68 H           1.5874   -5.5170   -2.6013 H       1  LIG1        0.0265
     69 H           0.7074   -4.5172   -1.4576 H       1  LIG1        0.0265
     70 H           2.5355   -6.8354   -0.7686 H       1  LIG1        0.0230
     71 H           0.8050   -6.6566   -0.4879 H       1  LIG1        0.0230
     72 H           1.9450   -5.6652    0.4379 H       1  LIG1        0.0230
     73 H           4.2342   -5.4146   -0.8070 H       1  LIG1        0.0298
     74 H           4.7418   -4.7195   -3.7370 H       1  LIG1        0.0232
     75 H           3.7529   -6.0942   -3.2047 H       1  LIG1        0.0232
     76 H           5.4604   -6.0163   -2.7765 H       1  LIG1        0.0232
     77 H           5.5262   -2.9648   -2.0589 H       1  LIG1        0.0232
     78 H           6.2877   -4.2535   -1.1167 H       1  LIG1        0.0232
     79 H           5.1432   -3.1655   -0.3348 H       1  LIG1        0.0232
@<TRIPOS>BOND
     1     2     3    1
     2     3     4    1
     3     4     5    1
     4     5     8    1
     5     8     9    1
     6     2     9    1
     7     3    10    2
     8    10    11    1
     9    11    12    1
    10    12    14    1
    11     2    14    1
    12    14    16    1
    13    16    17    1
    14    17    18    1
    15    18    20    1
    16    20    21    1
    17    21    22    1
    18    22    23    1
    19    18    23    1
    20    25    28    1
    21    28    29    1
    22    29    30    1
    23    30    31    1
    24    30    32    1
    25    32    33    1
    26    30    34    1
    27    34    35    1
    28    34    36    1
    29    12    20    1
    30     1     2    1
    31    11    38    2
    32    12    13    1
    33    14    15    1
    34    18    19    1
    35    20    37    1
    36     5     7    1
    37     5     6    1
    38    23    25    1
    39    23    24    1
    40    25    27    1
    41    25    26    1
    42     1    39    1
    43     1    40    1
    44     1    41    1
    45     4    42    1
    46     4    43    1
    47     7    44    1
    48     8    45    1
    49     8    46    1
    50     9    47    1
    51     9    48    1
    52    10    49    1
    53    16    50    1
    54    16    51    1
    55    17    52    1
    56    17    53    1
    57    19    54    1
    58    19    55    1
    59    19    56    1
    60    21    57    1
    61    21    58    1
    62    22    59    1
    63    22    60    1
    64    27    61    1
    65    27    62    1
    66    27    63    1
    67    28    64    1
    68    28    65    1
    69    29    66    1
    70    29    67    1
    71    32    68    1
    72    32    69    1
    73    33    70    1
    74    33    71    1
    75    33    72    1
    76    34    73    1
    77    35    74    1
    78    35    75    1
    79    35    76    1
    80    36    77    1
    81    36    78    1
    82    36    79    1
