@<TRIPOS>MOLECULE
NuBBE_1357
 92 96 0 0 0
SMALL
GASTEIGER

@<TRIPOS>ATOM
      1 C          -3.1398   -2.7676   -3.4159 C.3     1  LIG1       -0.0562
      2 C          -2.7304   -2.0946   -2.0678 C.3     1  LIG1        0.0055
      3 C          -3.1812   -3.1037   -0.9349 C.3     1  LIG1        0.1084
      4 O          -4.3019   -2.5674   -0.1693 O.3     1  LIG1       -0.4610
      5 C          -5.5587   -2.7381   -0.6682 C.2     1  LIG1        0.3042
      6 C          -6.5437   -1.8971    0.0910 C.3     1  LIG1        0.0332
      7 O          -5.8512   -3.3936   -1.6577 O.2     1  LIG1       -0.2512
      8 C          -2.1323   -3.5331    0.1020 C.3     1  LIG1       -0.0146
      9 C          -0.6782   -3.4192   -0.3415 C.3     1  LIG1       -0.0437
     10 C          -0.3342   -2.0040   -0.8760 C.3     1  LIG1       -0.0249
     11 C          -1.1674   -1.8379   -2.1787 C.3     1  LIG1       -0.0268
     12 C          -0.8357   -0.5027   -2.8733 C.3     1  LIG1       -0.0486
     13 C           0.6323   -0.3365   -3.2303 C.3     1  LIG1       -0.0463
     14 C           1.6579   -0.6130   -2.1012 C.3     1  LIG1       -0.0193
     15 C           1.2039   -1.8945   -1.2729 C.3     1  LIG1       -0.0257
     16 C           2.2101   -2.1510   -0.1410 C.3     1  LIG1       -0.0306
     17 C           2.5167   -0.9489    0.6799 C.2     1  LIG1       -0.0836
     18 C           2.3820    0.3330    0.3011 C.2     1  LIG1       -0.0632
     19 C           2.0511    0.7179   -1.1634 C.3     1  LIG1       -0.0018
     20 C           1.0500    1.9332   -1.1986 C.3     1  LIG1       -0.0055
     21 C           0.4856    2.4772    0.1248 C.3     1  LIG1        0.1097
     22 H          -0.4281    1.9132    0.3347 H       1  LIG1        0.0740
     23 C           1.3896    2.4230    1.4081 C.3     1  LIG1        0.0115
     24 C           2.6335    1.5052    1.2573 C.3     1  LIG1       -0.0101
     25 C           3.3192    1.2194    2.6331 C.3     1  LIG1       -0.0407
     26 C           2.4382    0.9687    3.8922 C.3     1  LIG1       -0.0343
     27 C           2.0485   -0.5138    4.0385 C.3     1  LIG1       -0.0598
     28 C           1.1628    1.8279    3.9081 C.3     1  LIG1       -0.0472
     29 C           0.4767    1.9018    2.5538 C.3     1  LIG1       -0.0432
     30 C           3.2729    1.3372    5.1409 C.3     1  LIG1       -0.0598
     31 C           1.8894    3.8494    1.7909 C.3     1  LIG1       -0.0556
     32 O           0.0406    3.8526   -0.0227 O.3     1  LIG1       -0.4609
     33 C          -1.1794    4.0666   -0.5814 C.2     1  LIG1        0.3042
     34 C          -1.8999    5.1196    0.2103 C.3     1  LIG1        0.0332
     35 O          -1.6719    3.4174   -1.4757 O.2     1  LIG1       -0.2512
     36 C           3.3594    1.3652   -1.7525 C.3     1  LIG1       -0.0552
     37 C           2.9318   -1.0974   -2.9021 C.3     1  LIG1       -0.0585
     38 C          -0.7072   -0.9871    0.2037 C.3     1  LIG1       -0.0590
     39 H          -3.5164   -4.0424   -1.3966 H       1  LIG1        0.0739
     40 C          -3.5116   -0.7528   -1.9997 C.3     1  LIG1       -0.0562
     41 H          -2.6289   -3.7317   -3.5381 H       1  LIG1        0.0236
     42 H          -2.8818   -2.1462   -4.2785 H       1  LIG1        0.0236
     43 H          -4.2143   -2.9629   -3.4666 H       1  LIG1        0.0236
     44 H          -6.3125   -1.9010    1.1586 H       1  LIG1        0.0342
     45 H          -7.5474   -2.3113   -0.0407 H       1  LIG1        0.0342
     46 H          -6.5252   -0.8725   -0.2922 H       1  LIG1        0.0342
     47 H          -2.3259   -4.5792    0.3786 H       1  LIG1        0.0301
     48 H          -2.2761   -2.9895    1.0449 H       1  LIG1        0.0301
     49 H          -0.4698   -4.1774   -1.1075 H       1  LIG1        0.0272
     50 H          -0.0566   -3.6803    0.5211 H       1  LIG1        0.0272
     51 H          -0.7867   -2.6196   -2.8560 H       1  LIG1        0.0312
     52 H          -1.1715    0.3297   -2.2534 H       1  LIG1        0.0268
     53 H          -1.3929   -0.4300   -3.8149 H       1  LIG1        0.0268
     54 H           0.8011    0.6532   -3.6713 H       1  LIG1        0.0271
     55 H           0.8075   -1.0394   -4.0583 H       1  LIG1        0.0271
     56 H           1.3377   -2.7573   -1.9464 H       1  LIG1        0.0315
     57 H           3.1552   -2.5296   -0.5500 H       1  LIG1        0.0310
     58 H           1.8610   -2.9459    0.5222 H       1  LIG1        0.0310
     59 H           2.8692   -1.1995    1.6712 H       1  LIG1        0.0572
     60 H           0.1941    1.7057   -1.8271 H       1  LIG1        0.0310
     61 H           1.4920    2.7841   -1.7366 H       1  LIG1        0.0310
     62 H           3.3995    2.0993    0.7426 H       1  LIG1        0.0352
     63 H           3.9316    2.1090    2.8432 H       1  LIG1        0.0276
     64 H           4.0669    0.4226    2.5308 H       1  LIG1        0.0276
     65 H           1.3504   -0.8356    3.2618 H       1  LIG1        0.0235
     66 H           1.5546   -0.6981    5.0003 H       1  LIG1        0.0235
     67 H           2.9324   -1.1606    4.0047 H       1  LIG1        0.0235
     68 H           1.3847    2.8440    4.2543 H       1  LIG1        0.0271
     69 H           0.4487    1.4286    4.6413 H       1  LIG1        0.0271
     70 H          -0.4044    2.5509    2.6503 H       1  LIG1        0.0272
     71 H           0.0899    0.9080    2.3001 H       1  LIG1        0.0272
     72 H           3.5587    2.3959    5.1261 H       1  LIG1        0.0235
     73 H           4.1929    0.7450    5.1918 H       1  LIG1        0.0235
     74 H           2.7071    1.1653    6.0637 H       1  LIG1        0.0235
     75 H           2.4382    4.3057    0.9597 H       1  LIG1        0.0236
     76 H           2.5655    3.8454    2.6507 H       1  LIG1        0.0236
     77 H           1.0582    4.5115    2.0606 H       1  LIG1        0.0236
     78 H          -1.1971    5.8457    0.6285 H       1  LIG1        0.0342
     79 H          -2.4295    4.6205    1.0273 H       1  LIG1        0.0342
     80 H          -2.6088    5.6509   -0.4264 H       1  LIG1        0.0342
     81 H           3.5958    2.3317   -1.2916 H       1  LIG1        0.0238
     82 H           3.2424    1.5801   -2.8212 H       1  LIG1        0.0238
     83 H           4.2438    0.7382   -1.6046 H       1  LIG1        0.0238
     84 H           3.2147   -0.3840   -3.6843 H       1  LIG1        0.0235
     85 H           2.7380   -2.0420   -3.4267 H       1  LIG1        0.0235
     86 H           3.7976   -1.2694   -2.2582 H       1  LIG1        0.0235
     87 H          -1.7757   -0.9549    0.4252 H       1  LIG1        0.0235
     88 H          -0.4409    0.0075   -0.1148 H       1  LIG1        0.0235
     89 H          -0.1982   -1.2021    1.1484 H       1  LIG1        0.0235
     90 H          -3.2623   -0.1875   -1.0972 H       1  LIG1        0.0236
     91 H          -4.5939   -0.8908   -2.0297 H       1  LIG1        0.0236
     92 H          -3.3116   -0.1124   -2.8647 H       1  LIG1        0.0236
@<TRIPOS>BOND
     1     2     3    1
     2     4     5    1
     3     5     6    1
     4     5     7    2
     5     3     8    1
     6     8     9    1
     7     9    10    1
     8    10    11    1
     9    11    12    1
    10    12    13    1
    11    13    14    1
    12    14    15    1
    13    15    16    1
    14    16    17    1
    15    17    18    2
    16    18    19    1
    17    19    20    1
    18    20    21    1
    19    21    23    1
    20    23    24    1
    21    18    24    1
    22    24    25    1
    23    25    26    1
    24    26    28    1
    25    28    29    1
    26    29    23    1
    27    32    33    1
    28    33    34    1
    29    33    35    2
    30    14    19    1
    31    15    10    1
    32    11     2    1
    33     1     2    1
    34     2    40    1
    35     3     4    1
    36     3    39    1
    37    10    38    1
    38    14    37    1
    39    19    36    1
    40    23    31    1
    41    26    27    1
    42    26    30    1
    43    21    32    1
    44    21    22    1
    45     1    41    1
    46     1    42    1
    47     1    43    1
    48     6    44    1
    49     6    45    1
    50     6    46    1
    51     8    47    1
    52     8    48    1
    53     9    49    1
    54     9    50    1
    55    11    51    1
    56    12    52    1
    57    12    53    1
    58    13    54    1
    59    13    55    1
    60    15    56    1
    61    16    57    1
    62    16    58    1
    63    17    59    1
    64    20    60    1
    65    20    61    1
    66    24    62    1
    67    25    63    1
    68    25    64    1
    69    27    65    1
    70    27    66    1
    71    27    67    1
    72    28    68    1
    73    28    69    1
    74    29    70    1
    75    29    71    1
    76    30    72    1
    77    30    73    1
    78    30    74    1
    79    31    75    1
    80    31    76    1
    81    31    77    1
    82    34    78    1
    83    34    79    1
    84    34    80    1
    85    36    81    1
    86    36    82    1
    87    36    83    1
    88    37    84    1
    89    37    85    1
    90    37    86    1
    91    38    87    1
    92    38    88    1
    93    38    89    1
    94    40    90    1
    95    40    91    1
    96    40    92    1
