REMARK  Name = NuBBE_1538
REMARK  4 active torsions:
REMARK  status: ('A' for Active; 'I' for Inactive)
REMARK    1  A    between atoms: C_1  and  C_2
REMARK    2  A    between atoms: C_13  and  C_17
REMARK    3  A    between atoms: C_17  and  C_18
REMARK    4  A    between atoms: C_17  and  C_19
REMARK                            x       y       z     vdW  Elec       q    Type
REMARK                         _______ _______ _______ _____ _____    ______ ____
ROOT
ATOM      1  C   LIG A   1      -0.592   2.668  -1.984  0.00  0.00    +0.008 C 
ATOM      2  C   LIG A   1      -1.013   1.740  -0.841  0.00  0.00    -0.007 C 
ATOM      3  C   LIG A   1      -0.635   0.300  -1.115  0.00  0.00    -0.016 C 
ATOM      4  C   LIG A   1      -0.084  -0.565   0.012  0.00  0.00    +0.007 C 
ATOM      5  C   LIG A   1       0.804  -0.165  -1.141  0.00  0.00    +0.025 C 
ATOM      6  C   LIG A   1       0.940  -1.065  -2.295  0.00  0.00    -0.073 C 
ATOM      7  C   LIG A   1       1.944  -1.921  -2.522  0.00  0.00    +0.008 C 
ATOM      8  C   LIG A   1      -0.280  -0.943  -3.178  0.00  0.00    +0.031 C 
ATOM      9  C   LIG A   1      -1.374  -0.406  -2.241  0.00  0.00    +0.012 C 
ATOM     10  C   LIG A   1       0.214   0.006   1.388  0.00  0.00    -0.004 C 
ATOM     11  C   LIG A   1      -0.643   1.263   1.622  0.00  0.00    +0.004 C 
ATOM     12  C   LIG A   1      -0.451   2.266   0.486  0.00  0.00    +0.004 C 
ENDROOT
BRANCH  10  13
ATOM     13  C   LIG A   1       0.026  -1.073   2.496  0.00  0.00    -0.014 C 
ATOM     14  C   LIG A   1       0.106  -0.500   3.915  0.00  0.00    +0.007 C 
ATOM     15  C   LIG A   1       1.079  -2.185   2.362  0.00  0.00    +0.007 C 
ENDBRANCH  10  13
TORSDOF 1
