REMARK  Name = NuBBE_1661
REMARK  4 active torsions:
REMARK  status: ('A' for Active; 'I' for Inactive)
REMARK    1  A    between atoms: O_1  and  C_2
REMARK    2  A    between atoms: C_5  and  C_15
REMARK    3  A    between atoms: C_12  and  O_13
REMARK    4  A    between atoms: O_13  and  C_14
REMARK                            x       y       z     vdW  Elec       q    Type
REMARK                         _______ _______ _______ _____ _____    ______ ____
ROOT
ATOM      1  C   LIG A   1      -1.320  -1.870  -0.331  0.00  0.00    +0.159 A 
ATOM      2  C   LIG A   1      -0.701  -0.617  -0.247  0.00  0.00    +0.061 A 
ATOM      3  C   LIG A   1       0.641  -0.507   0.129  0.00  0.00    +0.029 A 
ATOM      4  C   LIG A   1       1.319   0.791   0.249  0.00  0.00    -0.000 A 
ATOM      5  C   LIG A   1       2.621   0.791   0.569  0.00  0.00    +0.101 A 
ATOM      6  C   LIG A   1       3.395  -0.437   0.815  0.00  0.00    +0.338 A 
ATOM      7  O   LIG A   1       4.588  -0.379   1.080  0.00  0.00    -0.245 OA
ATOM      8  O   LIG A   1       2.705  -1.634   0.753  0.00  0.00    -0.422 OA
ATOM      9  C   LIG A   1       1.345  -1.675   0.403  0.00  0.00    +0.143 A 
ATOM     10  C   LIG A   1       0.738  -2.930   0.332  0.00  0.00    +0.096 A 
ATOM     11  C   LIG A   1      -0.607  -3.041  -0.039  0.00  0.00    +0.165 A 
ENDROOT
BRANCH   4  12
ATOM     12  C   LIG A   1       0.675   2.109   0.096  0.00  0.00    -0.017 A 
ATOM     13  C   LIG A   1       0.074   2.719   1.204  0.00  0.00    +0.008 A 
ATOM     14  C   LIG A   1      -0.552   3.958   1.071  0.00  0.00    +0.001 A 
ATOM     15  C   LIG A   1      -0.583   4.593  -0.170  0.00  0.00    +0.000 A 
ATOM     16  C   LIG A   1       0.011   3.990  -1.278  0.00  0.00    +0.001 A 
ATOM     17  C   LIG A   1       0.640   2.750  -1.148  0.00  0.00    +0.008 A 
ENDBRANCH   4  12
BRANCH   1  18
ATOM     18  O   LIG A   1      -2.635  -1.907  -0.706  0.00  0.00    -0.503 OA
ATOM     19  H   LIG A   1      -2.965  -1.003  -0.833  0.00  0.00    +0.292 HD
ENDBRANCH   1  18
BRANCH  11  20
ATOM     20  O   LIG A   1      -1.059  -4.333  -0.066  0.00  0.00    -0.491 OA
ATOM     21  C   LIG A   1      -2.400  -4.559  -0.478  0.00  0.00    +0.277 C 
ENDBRANCH  11  20
TORSDOF 3
