REMARK  Name = NuBBE_1362
REMARK  4 active torsions:
REMARK  status: ('A' for Active; 'I' for Inactive)
REMARK    1  A    between atoms: C_1  and  C_2
REMARK    2  A    between atoms: C_1  and  C_4
REMARK    3  A    between atoms: C_8  and  C_22
REMARK    4  A    between atoms: C_25  and  C_27
REMARK                            x       y       z     vdW  Elec       q    Type
REMARK                         _______ _______ _______ _____ _____    ______ ____
ROOT
ATOM      1  C   LIG A   1       1.548  -0.794  -0.356  0.00  0.00    +0.067 C 
ATOM      2  C   LIG A   1       1.444   0.654   0.207  0.00  0.00    +0.028 C 
ATOM      3  C   LIG A   1      -0.004   1.119   0.018  0.00  0.00    +0.090 C 
ATOM      4  N   LIG A   1      -0.300   1.070  -1.418  0.00  0.00    -0.277 NA
ATOM      5  C   LIG A   1      -0.077  -0.222  -2.087  0.00  0.00    +0.128 C 
ATOM      6  N   LIG A   1       1.279  -0.777  -1.818  0.00  0.00    -0.283 NA
ATOM      7  C   LIG A   1       2.267   0.151  -2.485  0.00  0.00    +0.091 C 
ATOM      8  C   LIG A   1       1.992   1.613  -2.053  0.00  0.00    +0.021 C 
ATOM      9  C   LIG A   1       2.359   1.648  -0.554  0.00  0.00    +0.013 C 
ATOM     10  C   LIG A   1       0.478   2.023  -2.211  0.00  0.00    +0.063 C 
ATOM     11  C   LIG A   1      -0.153   1.976  -3.653  0.00  0.00    +0.019 C 
ATOM     12  C   LIG A   1      -1.440   1.044  -3.767  0.00  0.00    +0.004 C 
ATOM     13  C   LIG A   1      -1.323  -0.340  -2.985  0.00  0.00    +0.035 C 
ENDROOT
BRANCH   3  14
ATOM     14  C   LIG A   1      -1.068   0.457   0.908  0.00  0.00    -0.038 C 
ATOM     15  C   LIG A   1      -0.785  -0.416   1.899  0.00  0.00    +0.078 C 
ATOM     16  N   LIG A   1      -1.739  -1.045   2.694  0.00  0.00    -0.278 N 
ATOM     17  C   LIG A   1      -1.322  -2.032   3.602  0.00  0.00    +0.216 C 
ATOM     18  O   LIG A   1      -0.155  -2.380   3.756  0.00  0.00    -0.276 OA
ATOM     19  C   LIG A   1      -2.413  -2.665   4.436  0.00  0.00    +0.110 C 
ATOM     20  C   LIG A   1      -3.148  -0.800   2.391  0.00  0.00    +0.113 C 
ATOM     21  C   LIG A   1      -3.393   0.607   1.874  0.00  0.00    +0.024 C 
ATOM     22  C   LIG A   1      -2.493   0.909   0.681  0.00  0.00    +0.035 C 
ENDBRANCH   3  14
BRANCH   1  23
ATOM     23  C   LIG A   1       2.886  -1.484   0.024  0.00  0.00    +0.045 C 
BRANCH  23  24
ATOM     24  C   LIG A   1       3.071  -1.644   1.513  0.00  0.00    -0.033 C 
ATOM     25  C   LIG A   1       3.700  -0.753   2.292  0.00  0.00    +0.004 C 
ENDBRANCH  23  24
ENDBRANCH   1  23
TORSDOF 3
