@<TRIPOS>MOLECULE
NuBBE_1501
 39 39 0 0 0
SMALL
GASTEIGER

@<TRIPOS>ATOM
      1 C          -0.2502   -1.9415   -0.7515 C.2     1  LIG1       -0.0992
      2 C          -0.0373   -0.6267   -0.6540 C.2     1  LIG1       -0.0729
      3 C          -1.1046    0.3962   -0.1914 C.3     1  LIG1       -0.0164
      4 H          -0.5714    1.1908    0.3384 H       1  LIG1        0.0349
      5 C          -2.1209   -0.1800    0.8288 C.3     1  LIG1       -0.0426
      6 C          -3.1592   -1.1423    0.2264 C.3     1  LIG1       -0.0315
      7 C          -3.5290   -0.8305   -1.2067 C.2     1  LIG1       -0.0765
      8 C          -4.4749   -1.7891   -1.8687 C.3     1  LIG1       -0.0438
      9 C          -3.0029    0.2152   -1.8759 C.2     1  LIG1       -0.0845
     10 C          -1.9060    1.0795   -1.3218 C.3     1  LIG1       -0.0280
     11 C           1.3584   -0.1810   -1.0707 C.3     1  LIG1       -0.0283
     12 C           2.0400    1.0265   -0.4087 C.3     1  LIG1       -0.0308
     13 C           2.2985    0.9248    1.0716 C.2     1  LIG1       -0.0850
     14 C           3.4858    0.9803    1.7078 C.2     1  LIG1       -0.0796
     15 C           4.8445    0.9712    1.0588 C.3     1  LIG1       -0.0440
     16 C           3.5408    1.1316    3.2065 C.3     1  LIG1       -0.0440
     17 H          -1.2074   -2.4284   -0.6011 H       1  LIG1        0.0534
     18 H           0.5280   -2.6500   -1.0456 H       1  LIG1        0.0534
     19 H          -2.6698    0.6632    1.2723 H       1  LIG1        0.0274
     20 H          -1.5912   -0.6626    1.6588 H       1  LIG1        0.0274
     21 H          -4.0567   -1.1367    0.8544 H       1  LIG1        0.0310
     22 H          -2.8111   -2.1769    0.3031 H       1  LIG1        0.0310
     23 H          -5.3545   -1.9605   -1.2422 H       1  LIG1        0.0274
     24 H          -3.9729   -2.7499   -2.0340 H       1  LIG1        0.0274
     25 H          -4.8177   -1.4245   -2.8426 H       1  LIG1        0.0274
     26 H          -3.3328    0.4407   -2.8858 H       1  LIG1        0.0572
     27 H          -2.3745    1.9974   -0.9340 H       1  LIG1        0.0313
     28 H          -1.2394    1.3945   -2.1326 H       1  LIG1        0.0313
     29 H           1.3136    0.0256   -2.1436 H       1  LIG1        0.0313
     30 H           2.0439   -1.0269   -0.9473 H       1  LIG1        0.0313
     31 H           1.4437    1.9286   -0.5901 H       1  LIG1        0.0310
     32 H           2.9793    1.1949   -0.9460 H       1  LIG1        0.0310
     33 H           1.3930    0.9028    1.6777 H       1  LIG1        0.0572
     34 H           4.8188    0.7351   -0.0070 H       1  LIG1        0.0274
     35 H           5.4802    0.2133    1.5319 H       1  LIG1        0.0274
     36 H           5.3288    1.9446    1.1857 H       1  LIG1        0.0274
     37 H           2.5463    1.1371    3.6638 H       1  LIG1        0.0274
     38 H           4.0181    2.0876    3.4522 H       1  LIG1        0.0274
     39 H           4.1230    0.3262    3.6631 H       1  LIG1        0.0274
@<TRIPOS>BOND
     1     1     2    2
     2     2     3    1
     3     3     4    1
     4     3     5    1
     5     5     6    1
     6     6     7    1
     7     7     8    1
     8     7     9    2
     9     9    10    1
    10     3    10    1
    11     2    11    1
    12    11    12    1
    13    12    13    1
    14    13    14    2
    15    14    15    1
    16    14    16    1
    17     1    17    1
    18     1    18    1
    19     5    19    1
    20     5    20    1
    21     6    21    1
    22     6    22    1
    23     8    23    1
    24     8    24    1
    25     8    25    1
    26     9    26    1
    27    10    27    1
    28    10    28    1
    29    11    29    1
    30    11    30    1
    31    12    31    1
    32    12    32    1
    33    13    33    1
    34    15    34    1
    35    15    35    1
    36    15    36    1
    37    16    37    1
    38    16    38    1
    39    16    39    1
