REMARK  Name = NuBBE_1487
REMARK  17 active torsions:
REMARK  status: ('A' for Active; 'I' for Inactive)
REMARK    1  A    between atoms: C_1  and  C_2
REMARK    2  A    between atoms: C_5  and  C_6
REMARK    3  A    between atoms: C_6  and  C_7
REMARK    4  A    between atoms: C_8  and  C_16
REMARK    5  A    between atoms: C_9  and  C_10
REMARK    6  A    between atoms: C_9  and  C_15
REMARK    7  A    between atoms: C_16  and  C_17
REMARK    8  A    between atoms: C_17  and  O_18
REMARK    9  A    between atoms: O_18  and  C_19
REMARK   10  A    between atoms: C_21  and  O_22
REMARK   11  A    between atoms: O_22  and  C_23
REMARK   12  A    between atoms: C_23  and  C_24
REMARK   13  A    between atoms: C_26  and  O_27
REMARK   14  A    between atoms: O_27  and  C_28
REMARK   15  A    between atoms: C_28  and  C_29
REMARK   16  A    between atoms: C_34  and  C_35
REMARK   17  A    between atoms: C_37  and  O_38
REMARK                            x       y       z     vdW  Elec       q    Type
REMARK                         _______ _______ _______ _____ _____    ______ ____
ROOT
ATOM      1  C   LIG A   1      -2.908   1.099  -1.173  0.00  0.00    +0.019 C 
ATOM      2  C   LIG A   1      -1.453   0.838  -1.746  0.00  0.00    +0.051 C 
ATOM      3  C   LIG A   1      -1.070  -0.652  -1.588  0.00  0.00    +0.127 C 
ATOM      4  C   LIG A   1      -0.298  -1.161  -0.410  0.00  0.00    -0.035 C 
ATOM      5  C   LIG A   1       0.235  -0.170   0.642  0.00  0.00    +0.072 C 
ATOM      6  C   LIG A   1       0.591   1.175  -0.080  0.00  0.00    +0.225 C 
ATOM      7  C   LIG A   1      -0.560   1.797  -0.912  0.00  0.00    +0.227 C 
ATOM      8  C   LIG A   1       0.330  -2.358  -0.496  0.00  0.00    +0.011 C 
ATOM      9  C   LIG A   1      -1.934  -1.342  -2.617  0.00  0.00    +0.157 C 
ATOM     10  C   LIG A   1      -2.532  -0.347  -3.596  0.00  0.00    +0.044 C 
ATOM     11  C   LIG A   1      -1.672   0.966  -3.330  0.00  0.00    +0.041 C 
ATOM     12  O   LIG A   1      -0.551  -1.327  -2.804  0.00  0.00    -0.359 OA
ENDROOT
BRANCH   5  13
ATOM     13  C   LIG A   1      -0.483  -0.078   2.066  0.00  0.00    +0.001 C 
ATOM     14  C   LIG A   1       0.223   1.043   2.873  0.00  0.00    +0.016 C 
ATOM     15  C   LIG A   1      -0.447  -1.425   2.951  0.00  0.00    +0.023 C 
ATOM     16  C   LIG A   1      -1.616  -2.485   2.613  0.00  0.00    +0.032 C 
ATOM     17  C   LIG A   1      -1.237  -3.700   1.737  0.00  0.00    +0.019 C 
ATOM     18  C   LIG A   1      -2.839  -1.834   1.947  0.00  0.00    +0.162 C 
ATOM     19  C   LIG A   1      -2.984  -0.375   1.982  0.00  0.00    +0.043 C 
ATOM     20  C   LIG A   1      -1.905   0.407   2.005  0.00  0.00    -0.016 C 
ATOM     21  O   LIG A   1      -3.756  -2.483   1.443  0.00  0.00    -0.292 OA
ATOM     22  C   LIG A   1      -2.186  -3.051   3.942  0.00  0.00    +0.019 C 
BRANCH  15  23
ATOM     23  C   LIG A   1       0.975  -2.050   3.168  0.00  0.00    +0.126 C 
BRANCH  23  24
ATOM     24  C   LIG A   1       1.995  -1.299   4.051  0.00  0.00    +0.307 C 
ATOM     25  O   LIG A   1       2.020  -0.127   4.332  0.00  0.00    -0.251 OA
BRANCH  24  26
ATOM     26  O   LIG A   1       2.998  -2.148   4.427  0.00  0.00    -0.468 OA
ATOM     27  C   LIG A   1       4.154  -1.433   4.883  0.00  0.00    +0.280 C 
ENDBRANCH  24  26
ENDBRANCH  23  24
ENDBRANCH  15  23
ENDBRANCH   5  13
BRANCH  11  28
ATOM     28  C   LIG A   1      -0.487   1.014  -4.270  0.00  0.00    +0.042 C 
ATOM     29  C   LIG A   1       0.832   1.006  -4.085  0.00  0.00    +0.057 C 
ATOM     30  C   LIG A   1       1.574   1.030  -5.352  0.00  0.00    +0.334 C 
ATOM     31  O   LIG A   1       0.569   1.075  -6.346  0.00  0.00    -0.428 OA
ATOM     32  C   LIG A   1      -0.648   1.019  -5.740  0.00  0.00    +0.338 C 
ATOM     33  O   LIG A   1      -1.715   0.986  -6.327  0.00  0.00    -0.245 OA
BRANCH  30  34
ATOM     34  O   LIG A   1       2.402   2.175  -5.398  0.00  0.00    -0.354 OA
ATOM     35  H   LIG A   1       2.021   2.835  -4.798  0.00  0.00    +0.214 HD
ENDBRANCH  30  34
ENDBRANCH  11  28
BRANCH   6  36
ATOM     36  O   LIG A   1       1.748   0.914  -0.919  0.00  0.00    -0.457 OA
BRANCH  36  37
ATOM     37  C   LIG A   1       2.968   1.040  -0.321  0.00  0.00    +0.304 C 
ATOM     38  C   LIG A   1       3.995   0.287  -1.105  0.00  0.00    +0.136 C 
ATOM     39  O   LIG A   1       3.187   1.607   0.739  0.00  0.00    -0.251 OA
ENDBRANCH  36  37
ENDBRANCH   6  36
BRANCH   7  40
ATOM     40  O   LIG A   1      -0.063   2.932  -1.647  0.00  0.00    -0.457 OA
BRANCH  40  41
ATOM     41  C   LIG A   1      -0.228   4.133  -1.010  0.00  0.00    +0.304 C 
ATOM     42  C   LIG A   1       0.905   5.049  -1.347  0.00  0.00    +0.136 C 
ATOM     43  O   LIG A   1      -1.118   4.404  -0.216  0.00  0.00    -0.251 OA
ENDBRANCH  40  41
ENDBRANCH   7  40
TORSDOF 10
