REMARK  Name = NuBBE_1749
REMARK  4 active torsions:
REMARK  status: ('A' for Active; 'I' for Inactive)
REMARK    1  A    between atoms: C_1  and  C_2
REMARK    2  A    between atoms: C_2  and  C_3
REMARK    3  A    between atoms: C_2  and  C_10
REMARK    4  A    between atoms: C_6  and  C_7
REMARK                            x       y       z     vdW  Elec       q    Type
REMARK                         _______ _______ _______ _____ _____    ______ ____
ROOT
ATOM      1  C   LIG A   1      -0.012  -0.340   0.400  0.00  0.00    -0.045 A 
ATOM      2  C   LIG A   1      -0.315   0.978   0.030  0.00  0.00    +0.004 A 
ATOM      3  C   LIG A   1      -0.011   1.449  -1.250  0.00  0.00    +0.003 A 
ATOM      4  C   LIG A   1       0.610   0.616  -2.185  0.00  0.00    -0.050 A 
ATOM      5  C   LIG A   1       0.904   1.108  -3.571  0.00  0.00    +0.044 C 
ATOM      6  C   LIG A   1       0.898  -0.705  -1.827  0.00  0.00    +0.003 A 
ATOM      7  C   LIG A   1       0.595  -1.176  -0.547  0.00  0.00    +0.004 A 
ENDROOT
BRANCH   1   9
ATOM      8  C   LIG A   1      -1.845  -0.903   2.034  0.00  0.00    +0.012 C 
ATOM      9  C   LIG A   1      -0.335  -0.875   1.784  0.00  0.00    +0.013 C 
ATOM     10  C   LIG A   1       0.385  -0.085   2.880  0.00  0.00    +0.012 C 
ENDBRANCH   1   9
TORSDOF 1
