@<TRIPOS>MOLECULE
NuBBE_431
 105 109 0 0 0
SMALL
GASTEIGER

@<TRIPOS>ATOM
      1 C          -6.6307   -2.0429    4.7098 C.3     1  LIG1       -0.0598
      2 C          -5.5830   -1.0011    4.2750 C.3     1  LIG1       -0.0146
      3 H          -5.1460   -0.5581    5.1819 H       1  LIG1        0.0326
      4 C          -6.3695    0.1417    3.6076 C.3     1  LIG1       -0.0473
      5 C          -5.5563    1.0307    2.7007 C.3     1  LIG1       -0.0467
      6 C          -4.6937    0.2229    1.7137 C.3     1  LIG1       -0.0229
      7 C          -4.0774    1.2624    0.7687 C.3     1  LIG1       -0.0462
      8 C          -3.0648    0.6119   -0.1413 C.3     1  LIG1       -0.0429
      9 C          -1.9206   -0.0998    0.6157 C.3     1  LIG1       -0.0050
     10 C          -1.1068   -1.0306   -0.4388 C.3     1  LIG1       -0.0194
     11 C          -0.8810   -0.3607   -1.8006 C.3     1  LIG1       -0.0463
     12 C           0.2123    0.6740   -1.8023 C.3     1  LIG1       -0.0483
     13 C           1.5382    0.0006   -1.4550 C.3     1  LIG1       -0.0198
     14 H           1.4882   -0.9218   -2.0546 H       1  LIG1        0.0315
     15 C           2.8311    0.7067   -2.0651 C.3     1  LIG1        0.0826
     16 C           3.4354   -0.2437   -3.1575 C.3     1  LIG1        0.1050
     17 O           2.5146   -0.4433   -4.2506 O.3     1  LIG1       -0.4640
     18 C           3.0818   -0.4516   -5.4927 C.2     1  LIG1        0.3040
     19 C           2.0642   -0.6810   -6.5707 C.3     1  LIG1        0.0332
     20 O           4.2794   -0.3283   -5.7203 O.2     1  LIG1       -0.2512
     21 C           3.9333    0.9060   -0.9934 C.3     1  LIG1        0.1518
     22 H           4.8693    1.1873   -1.4902 H       1  LIG1        0.0779
     23 C           4.1667   -0.3719   -0.1053 C.3     1  LIG1        0.1410
     24 H           4.3929   -0.0216    0.9132 H       1  LIG1        0.0772
     25 C           2.9477   -1.3635    0.0297 C.3     1  LIG1       -0.0061
     26 C           1.5743   -0.6225    0.0179 C.3     1  LIG1       -0.0213
     27 C           0.2573   -1.5949    0.1373 C.3     1  LIG1       -0.0256
     28 H           0.5399   -2.4314   -0.5230 H       1  LIG1        0.0315
     29 C          -0.0730   -2.2798    1.4953 C.3     1  LIG1       -0.0306
     30 C          -1.3873   -1.8946    2.1893 C.2     1  LIG1       -0.0836
     31 C          -2.3217   -0.9853    1.8018 C.2     1  LIG1       -0.0607
     32 C          -3.6191   -0.5747    2.5898 C.3     1  LIG1        0.0148
     33 H          -3.2209    0.1615    3.3052 H       1  LIG1        0.0379
     34 C          -4.3829   -1.6466    3.4766 C.3     1  LIG1        0.0728
     35 C          -3.4938   -2.3608    4.5153 C.3     1  LIG1       -0.0352
     36 O          -4.8837   -2.6903    2.6291 O.3     1  LIG1       -0.3880
     37 C           1.6499    0.3144    1.2370 C.3     1  LIG1       -0.0589
     38 O           5.3152   -1.1506   -0.4885 O.3     1  LIG1       -0.4578
     39 C           6.4793   -0.6132   -0.0050 C.2     1  LIG1        0.3043
     40 C           7.1495   -1.5702    0.9377 C.3     1  LIG1        0.0332
     41 O           6.8201    0.5411   -0.1540 O.2     1  LIG1       -0.2512
     42 O           3.5881    1.9681   -0.0536 O.3     1  LIG1       -0.4570
     43 C           4.2506    3.1533   -0.1433 C.2     1  LIG1        0.3043
     44 C           4.6766    3.6365    1.2080 C.3     1  LIG1        0.0332
     45 O           4.4877    3.7653   -1.1722 O.2     1  LIG1       -0.2512
     46 C           2.4871    2.0396   -2.8096 C.3     1  LIG1        0.1050
     47 O           3.6089    2.7119   -3.4130 O.3     1  LIG1       -0.4640
     48 C           3.4726    3.0092   -4.7341 C.2     1  LIG1        0.3040
     49 C           4.0320    4.3588   -5.0614 C.3     1  LIG1        0.0332
     50 O           2.8718    2.3277   -5.5550 O.2     1  LIG1       -0.2512
     51 C          -2.0058   -2.2862   -0.8224 C.3     1  LIG1       -0.0585
     52 C          -1.1835    1.0622    1.3326 C.3     1  LIG1       -0.0553
     53 C          -5.5846   -0.6829    0.8210 C.3     1  LIG1       -0.0589
     54 H          -7.1630   -2.4469    3.8401 H       1  LIG1        0.0233
     55 H          -7.3772   -1.5814    5.3651 H       1  LIG1        0.0233
     56 H          -6.1914   -2.8834    5.2500 H       1  LIG1        0.0233
     57 H          -6.8160    0.7669    4.3928 H       1  LIG1        0.0269
     58 H          -7.2231   -0.2485    3.0409 H       1  LIG1        0.0269
     59 H          -4.9131    1.6800    3.3132 H       1  LIG1        0.0271
     60 H          -6.2321    1.7079    2.1618 H       1  LIG1        0.0271
     61 H          -3.6548    2.1077    1.3202 H       1  LIG1        0.0271
     62 H          -4.8522    1.7258    0.1410 H       1  LIG1        0.0271
     63 H          -2.6493    1.4083   -0.7737 H       1  LIG1        0.0274
     64 H          -3.5861   -0.0624   -0.8236 H       1  LIG1        0.0274
     65 H          -1.7983    0.0685   -2.2148 H       1  LIG1        0.0271
     66 H          -0.6121   -1.1301   -2.5424 H       1  LIG1        0.0271
     67 H           0.0081    1.5300   -1.1659 H       1  LIG1        0.0268
     68 H           0.2012    1.0507   -2.8265 H       1  LIG1        0.0268
     69 H           4.3903    0.1662   -3.5005 H       1  LIG1        0.0705
     70 H           3.6390   -1.2361   -2.7443 H       1  LIG1        0.0705
     71 H           1.0590   -0.8129   -6.1612 H       1  LIG1        0.0342
     72 H           2.3394   -1.5908   -7.1099 H       1  LIG1        0.0342
     73 H           2.0528    0.1704   -7.2560 H       1  LIG1        0.0342
     74 H           3.0716   -1.9394    0.9549 H       1  LIG1        0.0307
     75 H           2.9951   -2.1119   -0.7683 H       1  LIG1        0.0307
     76 H           0.7637   -2.2192    2.1999 H       1  LIG1        0.0310
     77 H          -0.1760   -3.3565    1.2909 H       1  LIG1        0.0310
     78 H          -1.5047   -2.4626    3.1007 H       1  LIG1        0.0572
     79 H          -2.7556   -1.6829    4.9530 H       1  LIG1        0.0257
     80 H          -3.0067   -3.2455    4.0945 H       1  LIG1        0.0257
     81 H          -4.0772   -2.7679    5.3471 H       1  LIG1        0.0257
     82 H          -4.1594   -2.9452    2.0290 H       1  LIG1        0.2102
     83 H           2.6517    0.4601    1.6531 H       1  LIG1        0.0235
     84 H           1.1530   -0.1060    2.1063 H       1  LIG1        0.0235
     85 H           1.2927    1.3167    1.0157 H       1  LIG1        0.0235
     86 H           7.0567   -2.5965    0.5819 H       1  LIG1        0.0342
     87 H           6.6756   -1.4685    1.9184 H       1  LIG1        0.0342
     88 H           8.2089   -1.3191    1.0195 H       1  LIG1        0.0342
     89 H           5.7524    3.8336    1.1772 H       1  LIG1        0.0342
     90 H           4.4978    2.8713    1.9682 H       1  LIG1        0.0342
     91 H           4.1317    4.5446    1.4733 H       1  LIG1        0.0342
     92 H           1.7378    1.8745   -3.5861 H       1  LIG1        0.0705
     93 H           2.0432    2.7523   -2.1041 H       1  LIG1        0.0705
     94 H           3.4758    4.7449   -5.9226 H       1  LIG1        0.0342
     95 H           5.0936    4.3083   -5.3068 H       1  LIG1        0.0342
     96 H           3.8512    5.0485   -4.2332 H       1  LIG1        0.0342
     97 H          -2.9277   -1.9894   -1.3318 H       1  LIG1        0.0235
     98 H          -2.3013   -2.9081    0.0256 H       1  LIG1        0.0235
     99 H          -1.4695   -2.9528   -1.5094 H       1  LIG1        0.0235
    100 H          -0.6727    1.7367    0.6519 H       1  LIG1        0.0238
    101 H          -0.5279    0.7254    2.1288 H       1  LIG1        0.0238
    102 H          -1.8549    1.7095    1.9031 H       1  LIG1        0.0238
    103 H          -6.1686   -0.0803    0.1138 H       1  LIG1        0.0235
    104 H          -6.3165   -1.2682    1.3778 H       1  LIG1        0.0235
    105 H          -4.9850   -1.3868    0.2352 H       1  LIG1        0.0235
@<TRIPOS>BOND
     1     2     4    1
     2     4     5    1
     3     5     6    1
     4     6     7    1
     5     7     8    1
     6     8     9    1
     7     9    10    1
     8    10    11    1
     9    11    12    1
    10    12    13    1
    11    13    15    1
    12    16    17    1
    13    17    18    1
    14    18    19    1
    15    18    20    2
    16    15    21    1
    17    21    23    1
    18    23    25    1
    19    25    26    1
    20    26    27    1
    21    27    29    1
    22    29    30    1
    23    30    31    2
    24    31    32    1
    25    32    34    1
    26     2    34    1
    27    13    26    1
    28    38    39    1
    29    39    40    1
    30    39    41    2
    31    42    43    1
    32    43    44    1
    33    43    45    2
    34    46    47    1
    35    47    48    1
    36    48    49    1
    37    48    50    2
    38    27    10    1
    39    31     9    1
    40    32     6    1
    41     1     2    1
    42     2     3    1
    43     6    53    1
    44     9    52    1
    45    10    51    1
    46    13    14    1
    47    15    16    1
    48    15    46    1
    49    21    22    1
    50    21    42    1
    51    26    37    1
    52    27    28    1
    53    32    33    1
    54    23    38    1
    55    23    24    1
    56    34    36    1
    57    34    35    1
    58     1    54    1
    59     1    55    1
    60     1    56    1
    61     4    57    1
    62     4    58    1
    63     5    59    1
    64     5    60    1
    65     7    61    1
    66     7    62    1
    67     8    63    1
    68     8    64    1
    69    11    65    1
    70    11    66    1
    71    12    67    1
    72    12    68    1
    73    16    69    1
    74    16    70    1
    75    19    71    1
    76    19    72    1
    77    19    73    1
    78    25    74    1
    79    25    75    1
    80    29    76    1
    81    29    77    1
    82    30    78    1
    83    35    79    1
    84    35    80    1
    85    35    81    1
    86    36    82    1
    87    37    83    1
    88    37    84    1
    89    37    85    1
    90    40    86    1
    91    40    87    1
    92    40    88    1
    93    44    89    1
    94    44    90    1
    95    44    91    1
    96    46    92    1
    97    46    93    1
    98    49    94    1
    99    49    95    1
   100    49    96    1
   101    51    97    1
   102    51    98    1
   103    51    99    1
   104    52   100    1
   105    52   101    1
   106    52   102    1
   107    53   103    1
   108    53   104    1
   109    53   105    1
