@<TRIPOS>MOLECULE
NuBBE_52
 76 78 0 0 0
SMALL
GASTEIGER

@<TRIPOS>ATOM
      1 C          -2.5232   -0.1039    1.4850 C.3     1  LIG1       -0.0618
      2 C          -2.0642   -1.0518    0.3628 C.3     1  LIG1       -0.0355
      3 H          -2.9921   -1.5288    0.0153 H       1  LIG1        0.0304
      4 C          -1.1841   -2.2102    0.9529 C.3     1  LIG1       -0.0227
      5 C           0.3426   -1.9508    1.1257 C.3     1  LIG1        0.0710
      6 H           0.8280   -2.9169    1.3175 H       1  LIG1        0.0604
      7 C           1.0191   -1.2156   -0.0879 C.3     1  LIG1        0.0892
      8 C           2.4362   -0.7276    0.1574 C.2     1  LIG1        0.0124
      9 C           3.3754   -1.8647    0.0484 C.3     1  LIG1        0.2315
     10 H           4.3602   -1.5676   -0.3363 H       1  LIG1        0.1111
     11 O           2.7756   -2.6851   -0.9525 O.3     1  LIG1       -0.2971
     12 C           1.4125   -2.2432   -1.1976 C.3     1  LIG1        0.2204
     13 H           1.3984   -1.7718   -2.1909 H       1  LIG1        0.1068
     14 O           0.6060   -3.4238   -1.1713 O.3     1  LIG1       -0.4341
     15 C           0.6433   -4.2138   -2.2600 C.2     1  LIG1        0.3061
     16 C          -0.2029   -5.4297   -2.0393 C.3     1  LIG1        0.0333
     17 O           1.2246   -3.9595   -3.3153 O.2     1  LIG1       -0.2511
     18 O           3.5683   -2.6004    1.2474 O.3     1  LIG1       -0.4311
     19 C           3.9856   -1.8453    2.3034 C.2     1  LIG1        0.3063
     20 C           5.1860   -2.4815    2.9369 C.3     1  LIG1        0.0333
     21 O           3.4732   -0.8329    2.7089 O.2     1  LIG1       -0.2511
     22 C           2.8796    0.5408    0.1712 C.2     1  LIG1       -0.0381
     23 C           2.0082    1.7066   -0.1432 C.3     1  LIG1        0.1220
     24 H           2.5779    2.4610   -0.7003 H       1  LIG1        0.0779
     25 C           0.8497    1.1997   -1.0578 C.3     1  LIG1       -0.0075
     26 C           0.0876    0.0123   -0.4055 C.3     1  LIG1       -0.0138
     27 C          -1.3824   -0.3544   -0.8907 C.3     1  LIG1       -0.0219
     28 C          -2.1304    0.9447   -1.4185 C.3     1  LIG1       -0.0283
     29 C          -3.5647    0.7827   -1.8932 C.2     1  LIG1       -0.0806
     30 C          -4.2229    1.4533   -2.8643 C.2     1  LIG1       -0.0549
     31 C          -5.6499    1.1086   -3.2246 C.3     1  LIG1       -0.0400
     32 C          -3.6824    2.5697   -3.6186 C.2     1  LIG1       -0.0662
     33 C          -3.3184    2.4994   -4.9057 C.2     1  LIG1       -0.0985
     34 C          -1.4517   -1.3929   -2.0408 C.3     1  LIG1       -0.0587
     35 H          -0.1031    0.4599    0.5792 H       1  LIG1        0.0319
     36 O           1.5318    2.2558    1.1042 O.3     1  LIG1       -0.4571
     37 C           2.3968    3.0457    1.7765 C.2     1  LIG1        0.3076
     38 C           1.9355    3.3138    3.2028 C.3     1  LIG1        0.0447
     39 C           1.0300    4.5353    3.3108 C.3     1  LIG1       -0.0458
     40 C           0.5748    4.7925    4.7433 C.3     1  LIG1       -0.0648
     41 O           3.4626    3.4983    1.3321 O.2     1  LIG1       -0.2508
     42 O           0.4759   -1.1873    2.3326 O.3     1  LIG1       -0.3907
     43 H          -1.7157    0.4987    1.9064 H       1  LIG1        0.0233
     44 H          -2.9617   -0.6797    2.3093 H       1  LIG1        0.0233
     45 H          -3.3057    0.5749    1.1318 H       1  LIG1        0.0233
     46 H          -1.3272   -3.0961    0.3246 H       1  LIG1        0.0293
     47 H          -1.6015   -2.4997    1.9277 H       1  LIG1        0.0293
     48 H          -0.2092   -5.6981   -0.9758 H       1  LIG1        0.0342
     49 H           0.2056   -6.2765   -2.5930 H       1  LIG1        0.0342
     50 H          -1.2235   -5.2168   -2.3671 H       1  LIG1        0.0342
     51 H           5.9263   -2.7096    2.1653 H       1  LIG1        0.0342
     52 H           4.8808   -3.3776    3.4735 H       1  LIG1        0.0342
     53 H           5.6320   -1.7602    3.6272 H       1  LIG1        0.0342
     54 H           3.9338    0.7572    0.3387 H       1  LIG1        0.0610
     55 H           1.2528    0.8868   -2.0290 H       1  LIG1        0.0307
     56 H           0.1892    2.0541   -1.2184 H       1  LIG1        0.0307
     57 H          -2.1147    1.7125   -0.6371 H       1  LIG1        0.0313
     58 H          -1.5515    1.3314   -2.2682 H       1  LIG1        0.0313
     59 H          -4.1169   -0.0012   -1.3797 H       1  LIG1        0.0575
     60 H          -6.0566    0.3229   -2.5794 H       1  LIG1        0.0277
     61 H          -5.7163    0.7490   -4.2582 H       1  LIG1        0.0277
     62 H          -6.3018    1.9842   -3.1245 H       1  LIG1        0.0277
     63 H          -3.6790    3.5359   -3.1170 H       1  LIG1        0.0614
     64 H          -3.3544    1.5698   -5.4644 H       1  LIG1        0.0535
     65 H          -2.9930    3.3876   -5.4402 H       1  LIG1        0.0535
     66 H          -1.4322   -2.4199   -1.6744 H       1  LIG1        0.0235
     67 H          -0.6625   -1.2588   -2.7805 H       1  LIG1        0.0235
     68 H          -2.4061   -1.3512   -2.5757 H       1  LIG1        0.0235
     69 H           2.8274    3.4460    3.8306 H       1  LIG1        0.0377
     70 H           1.4349    2.4144    3.5786 H       1  LIG1        0.0377
     71 H           0.1489    4.3939    2.6757 H       1  LIG1        0.0268
     72 H           1.5496    5.4260    2.9374 H       1  LIG1        0.0268
     73 H           0.1401    3.8944    5.1938 H       1  LIG1        0.0230
     74 H          -0.1867    5.5799    4.7627 H       1  LIG1        0.0230
     75 H           1.4088    5.1214    5.3726 H       1  LIG1        0.0230
     76 H           1.4127   -0.9163    2.4271 H       1  LIG1        0.2098
@<TRIPOS>BOND
     1     2     4    1
     2     4     5    1
     3     5     7    1
     4     7     8    1
     5     8     9    1
     6     9    11    1
     7    11    12    1
     8     7    12    1
     9    14    15    1
    10    15    16    1
    11    15    17    2
    12    18    19    1
    13    19    20    1
    14    19    21    2
    15     8    22    2
    16    22    23    1
    17    23    25    1
    18    25    26    1
    19    26    27    1
    20    28    29    1
    21    29    30    2
    22    30    31    1
    23    30    32    1
    24    32    33    2
    25     2    27    1
    26     7    26    1
    27    36    37    1
    28    37    38    1
    29    38    39    1
    30    39    40    1
    31    37    41    2
    32     5     6    1
    33     5    42    1
    34    23    24    1
    35    23    36    1
    36    26    35    1
    37     9    18    1
    38     9    10    1
    39     2     3    1
    40     2     1    1
    41    12    14    1
    42    12    13    1
    43    27    34    1
    44    27    28    1
    45     1    43    1
    46     1    44    1
    47     1    45    1
    48     4    46    1
    49     4    47    1
    50    16    48    1
    51    16    49    1
    52    16    50    1
    53    20    51    1
    54    20    52    1
    55    20    53    1
    56    22    54    1
    57    25    55    1
    58    25    56    1
    59    28    57    1
    60    28    58    1
    61    29    59    1
    62    31    60    1
    63    31    61    1
    64    31    62    1
    65    32    63    1
    66    33    64    1
    67    33    65    1
    68    34    66    1
    69    34    67    1
    70    34    68    1
    71    38    69    1
    72    38    70    1
    73    39    71    1
    74    39    72    1
    75    40    73    1
    76    40    74    1
    77    40    75    1
    78    42    76    1
