REMARK  Name = NuBBE_908
REMARK  7 active torsions:
REMARK  status: ('A' for Active; 'I' for Inactive)
REMARK    1  A    between atoms: C_1  and  C_2
REMARK    2  A    between atoms: C_8  and  C_10
REMARK    3  A    between atoms: C_17  and  C_18
REMARK    4  A    between atoms: C_22  and  C_23
REMARK    5  A    between atoms: C_22  and  C_24
REMARK    6  A    between atoms: C_25  and  O_27
REMARK    7  A    between atoms: C_30  and  C_31
REMARK                            x       y       z     vdW  Elec       q    Type
REMARK                         _______ _______ _______ _____ _____    ______ ____
ROOT
ATOM      1  C   LIG A   1      -2.896  -3.191   0.917  0.00  0.00    +0.018 C 
ATOM      2  C   LIG A   1      -1.511  -2.540   1.208  0.00  0.00    +0.042 C 
ATOM      3  C   LIG A   1      -0.684  -2.460  -0.101  0.00  0.00    +0.128 C 
ATOM      4  C   LIG A   1       0.173  -3.718  -0.390  0.00  0.00    +0.260 C 
ATOM      5  C   LIG A   1       0.146  -4.912   0.487  0.00  0.00    +0.340 C 
ATOM      6  O   LIG A   1      -0.459  -4.774   1.697  0.00  0.00    -0.454 OA
ATOM      7  C   LIG A   1      -0.738  -3.461   2.222  0.00  0.00    +0.218 C 
ATOM      8  O   LIG A   1       0.601  -5.982   0.104  0.00  0.00    -0.248 OA
ATOM      9  O   LIG A   1      -1.066  -3.508  -1.041  0.00  0.00    -0.351 OA
ATOM     10  C   LIG A   1      -0.554  -1.089  -0.883  0.00  0.00    +0.062 C 
ATOM     11  C   LIG A   1      -1.599  -1.104  -2.027  0.00  0.00    +0.022 C 
ATOM     12  C   LIG A   1       0.836  -0.863  -1.504  0.00  0.00    +0.143 C 
ATOM     13  C   LIG A   1       1.053   0.451  -2.233  0.00  0.00    +0.079 C 
ATOM     14  C   LIG A   1       0.977   1.569  -1.182  0.00  0.00    +0.010 C 
ATOM     15  C   LIG A   1       1.552   2.959  -1.636  0.00  0.00    -0.005 C 
ATOM     16  C   LIG A   1       3.033   2.792  -2.077  0.00  0.00    +0.014 C 
ATOM     17  C   LIG A   1       0.816   3.572  -2.844  0.00  0.00    +0.014 C 
ATOM     18  C   LIG A   1       1.532   3.920  -0.409  0.00  0.00    +0.120 C 
ATOM     19  C   LIG A   1       0.182   3.983   0.298  0.00  0.00    +0.032 C 
ATOM     20  C   LIG A   1      -0.347   2.607   0.698  0.00  0.00    +0.010 C 
ATOM     21  C   LIG A   1      -0.439   1.589  -0.482  0.00  0.00    -0.024 C 
ATOM     22  C   LIG A   1      -1.595   2.042  -1.403  0.00  0.00    +0.012 C 
ATOM     23  C   LIG A   1      -0.701   0.125   0.107  0.00  0.00    +0.011 C 
ATOM     24  C   LIG A   1      -1.996  -0.024   0.915  0.00  0.00    +0.006 C 
ATOM     25  C   LIG A   1      -1.805  -1.177   1.885  0.00  0.00    +0.014 C 
ATOM     26  O   LIG A   1       1.796  -1.609  -1.313  0.00  0.00    -0.297 OA
ENDROOT
BRANCH   7  27
ATOM     27  C   LIG A   1       0.497  -2.881   2.871  0.00  0.00    +0.031 A 
ATOM     28  C   LIG A   1       1.643  -2.373   2.288  0.00  0.00    +0.202 A 
ATOM     29  O   LIG A   1       2.518  -1.937   3.230  0.00  0.00    -0.471 OA
ATOM     30  C   LIG A   1       1.958  -2.185   4.438  0.00  0.00    +0.195 A 
ATOM     31  C   LIG A   1       0.722  -2.764   4.279  0.00  0.00    +0.048 A 
ENDBRANCH   7  27
BRANCH  18  32
ATOM     32  O   LIG A   1       1.875   5.254  -0.779  0.00  0.00    -0.391 OA
ATOM     33  H   LIG A   1       2.831   5.281  -0.955  0.00  0.00    +0.210 HD
ENDBRANCH  18  32
TORSDOF 2
