REMARK  Name = NuBBE_1308
REMARK  15 active torsions:
REMARK  status: ('A' for Active; 'I' for Inactive)
REMARK    1  A    between atoms: C_3  and  O_4
REMARK    2  A    between atoms: O_4  and  C_5
REMARK    3  A    between atoms: C_6  and  C_7
REMARK    4  A    between atoms: C_9  and  O_10
REMARK    5  A    between atoms: O_10  and  C_11
REMARK    6  A    between atoms: C_12  and  O_13
REMARK    7  A    between atoms: O_13  and  C_14
REMARK    8  A    between atoms: C_15  and  O_16
REMARK    9  A    between atoms: O_16  and  C_17
REMARK   10  A    between atoms: C_22  and  O_23
REMARK   11  A    between atoms: O_23  and  C_24
REMARK   12  A    between atoms: C_25  and  O_26
REMARK   13  A    between atoms: O_26  and  C_27
REMARK   14  A    between atoms: C_29  and  O_30
REMARK   15  A    between atoms: O_30  and  C_31
REMARK                            x       y       z     vdW  Elec       q    Type
REMARK                         _______ _______ _______ _____ _____    ______ ____
ROOT
ATOM      1  O   LIG A   1      -2.120   2.023   2.998  0.00  0.00    -0.283 OA
ATOM      2  C   LIG A   1      -1.651   1.772   1.846  0.00  0.00    +0.238 A 
ATOM      3  C   LIG A   1      -1.924   0.491   1.153  0.00  0.00    +0.211 A 
ATOM      4  C   LIG A   1      -0.815  -0.015   0.530  0.00  0.00    +0.181 A 
ATOM      5  O   LIG A   1       0.382   0.767   0.613  0.00  0.00    -0.447 OA
ATOM      6  C   LIG A   1      -0.797   2.732   1.157  0.00  0.00    +0.113 A 
ATOM      7  C   LIG A   1       0.314   2.139   0.601  0.00  0.00    +0.188 A 
ATOM      8  C   LIG A   1       1.343   2.940   0.074  0.00  0.00    +0.205 A 
ATOM      9  C   LIG A   1       1.203   4.346   0.079  0.00  0.00    +0.169 A 
ATOM     10  C   LIG A   1       0.027   4.917   0.589  0.00  0.00    +0.096 A 
ATOM     11  C   LIG A   1      -0.997   4.118   1.107  0.00  0.00    +0.138 A 
ENDROOT
BRANCH   4  12
ATOM     12  C   LIG A   1      -0.509  -1.293  -0.225  0.00  0.00    +0.028 A 
ATOM     13  C   LIG A   1      -1.284  -2.416  -0.455  0.00  0.00    +0.061 A 
ATOM     14  C   LIG A   1      -0.827  -3.620  -1.069  0.00  0.00    +0.166 A 
ATOM     15  C   LIG A   1       0.485  -3.745  -1.528  0.00  0.00    +0.203 A 
ATOM     16  C   LIG A   1       1.292  -2.624  -1.333  0.00  0.00    +0.166 A 
ATOM     17  C   LIG A   1       0.761  -1.441  -0.781  0.00  0.00    +0.061 A 
BRANCH  14  18
ATOM     18  O   LIG A   1      -1.850  -4.514  -1.246  0.00  0.00    -0.491 OA
ATOM     19  C   LIG A   1      -1.673  -5.728  -0.530  0.00  0.00    +0.277 C 
ENDBRANCH  14  18
BRANCH  15  20
ATOM     20  O   LIG A   1       1.065  -4.723  -2.286  0.00  0.00    -0.488 OA
ATOM     21  C   LIG A   1       0.819  -6.098  -2.066  0.00  0.00    +0.277 C 
ENDBRANCH  15  20
BRANCH  16  22
ATOM     22  O   LIG A   1       2.621  -2.704  -1.696  0.00  0.00    -0.491 OA
ATOM     23  C   LIG A   1       3.465  -1.828  -0.953  0.00  0.00    +0.277 C 
ENDBRANCH  16  22
ENDBRANCH   4  12
BRANCH   3  24
ATOM     24  O   LIG A   1      -3.227   0.104   1.219  0.00  0.00    -0.488 OA
ATOM     25  C   LIG A   1      -3.635  -1.214   1.487  0.00  0.00    +0.277 C 
ENDBRANCH   3  24
BRANCH   8  26
ATOM     26  O   LIG A   1       2.481   2.479  -0.537  0.00  0.00    -0.488 OA
ATOM     27  C   LIG A   1       3.112   1.346   0.020  0.00  0.00    +0.277 C 
ENDBRANCH   8  26
BRANCH   9  28
ATOM     28  O   LIG A   1       2.206   5.067  -0.523  0.00  0.00    -0.491 OA
ATOM     29  C   LIG A   1       2.537   6.350  -0.000  0.00  0.00    +0.277 C 
ENDBRANCH   9  28
BRANCH  11  30
ATOM     30  O   LIG A   1      -2.098   4.796   1.557  0.00  0.00    -0.494 OA
ATOM     31  C   LIG A   1      -3.374   4.227   1.254  0.00  0.00    +0.277 C 
ENDBRANCH  11  30
TORSDOF 8
