REMARK  Name = NuBBE_2434
REMARK  6 active torsions:
REMARK  status: ('A' for Active; 'I' for Inactive)
REMARK    1  A    between atoms: O_1  and  C_2
REMARK    2  A    between atoms: O_1  and  C_3
REMARK    3  A    between atoms: C_7  and  C_14
REMARK    4  A    between atoms: C_9  and  O_13
REMARK    5  A    between atoms: C_21  and  O_23
REMARK    6  A    between atoms: O_23  and  C_24
REMARK                            x       y       z     vdW  Elec       q    Type
REMARK                         _______ _______ _______ _____ _____    ______ ____
ROOT
ATOM      1  C   LIG A   1      -1.867  -2.170  -0.030  0.00  0.00    +0.138 A 
ATOM      2  C   LIG A   1      -1.276  -0.897  -0.003  0.00  0.00    +0.103 A 
ATOM      3  C   LIG A   1       0.117  -0.786  -0.068  0.00  0.00    +0.139 A 
ATOM      4  O   LIG A   1       0.812   0.388  -0.044  0.00  0.00    -0.480 OA
ATOM      5  C   LIG A   1       0.055   1.593  -0.244  0.00  0.00    +0.240 C 
ATOM      6  C   LIG A   1      -1.252   1.585   0.550  0.00  0.00    +0.230 C 
ATOM      7  C   LIG A   1      -2.051   0.360   0.105  0.00  0.00    +0.202 C 
ATOM      8  O   LIG A   1      -3.253   0.433  -0.108  0.00  0.00    -0.289 OA
ATOM      9  C   LIG A   1       0.926  -1.924  -0.105  0.00  0.00    +0.092 A 
ATOM     10  C   LIG A   1       0.349  -3.187  -0.103  0.00  0.00    +0.127 A 
ATOM     11  C   LIG A   1      -1.041  -3.307  -0.056  0.00  0.00    +0.092 A 
ENDROOT
BRANCH   5  12
ATOM     12  C   LIG A   1       0.977   2.749   0.130  0.00  0.00    -0.004 A 
ATOM     13  C   LIG A   1       0.824   3.997  -0.493  0.00  0.00    +0.007 A 
ATOM     14  C   LIG A   1       1.697   5.050  -0.205  0.00  0.00    +0.000 A 
ATOM     15  C   LIG A   1       2.731   4.873   0.711  0.00  0.00    +0.000 A 
ATOM     16  C   LIG A   1       2.886   3.647   1.352  0.00  0.00    +0.000 A 
ATOM     17  C   LIG A   1       2.011   2.596   1.071  0.00  0.00    +0.007 A 
ENDBRANCH   5  12
BRANCH   1  18
ATOM     18  O   LIG A   1      -3.227  -2.268   0.095  0.00  0.00    -0.494 OA
ATOM     19  C   LIG A   1      -3.846  -3.354  -0.591  0.00  0.00    +0.277 C 
ENDBRANCH   1  18
BRANCH   6  20
ATOM     20  O   LIG A   1      -2.042   2.751   0.291  0.00  0.00    -0.380 OA
ATOM     21  H   LIG A   1      -2.976   2.472   0.396  0.00  0.00    +0.210 HD
ENDBRANCH   6  20
BRANCH  10  22
ATOM     22  O   LIG A   1       1.038  -4.367  -0.079  0.00  0.00    -0.495 OA
ATOM     23  C   LIG A   1       2.333  -4.340  -0.671  0.00  0.00    +0.277 C 
ENDBRANCH  10  22
TORSDOF 4
