@<TRIPOS>MOLECULE
NuBBE_1485
 51 55 0 0 0
SMALL
GASTEIGER

@<TRIPOS>ATOM
      1 C          -0.6608    1.5153    3.7917 C.3     1  LIG1       -0.0215
      2 C           0.6557    1.3998    3.0153 C.3     1  LIG1        0.1235
      3 O           0.7274    0.0743    2.4632 O.3     1  LIG1       -0.4808
      4 C           1.8373    1.5070    3.9868 C.3     1  LIG1       -0.0215
      5 C           0.7531    2.4978    1.9888 C.2     1  LIG1       -0.0408
      6 C           0.5682    2.2783    0.6845 C.2     1  LIG1       -0.0493
      7 C           0.2268    0.9257    0.2376 C.ar    1  LIG1        0.0415
      8 C           0.3468   -0.1334    1.1580 C.ar    1  LIG1        0.1420
      9 C           0.1383   -1.4782    0.7727 C.ar    1  LIG1        0.0666
     10 C           0.2624   -2.5779    1.7541 C.ar    1  LIG1       -0.0108
     11 C           1.2833   -3.5360    1.6428 C.ar    1  LIG1       -0.0538
     12 C           1.4043   -4.5699    2.5748 C.ar    1  LIG1       -0.0612
     13 C           0.5056   -4.6620    3.6350 C.ar    1  LIG1       -0.0617
     14 C          -0.5147   -3.7225    3.7631 C.ar    1  LIG1       -0.0612
     15 C          -0.6351   -2.6898    2.8296 C.ar    1  LIG1       -0.0538
     16 C          -0.1806   -1.7343   -0.5741 C.ar    1  LIG1        0.1409
     17 O          -0.3713   -3.0441   -0.9537 O.3     1  LIG1       -0.5053
     18 C          -0.3077   -0.6849   -1.5008 C.ar    1  LIG1        0.0885
     19 C          -0.1513    0.6562   -1.0995 C.ar    1  LIG1        0.0673
     20 N          -0.3670    1.7224   -2.0465 N.ar    1  LIG1       -0.3393
     21 C          -1.6871    2.3450   -1.7397 C.3     1  LIG1        0.0126
     22 C          -0.3424    1.4279   -3.4473 C.ar    1  LIG1        0.0949
     23 C          -0.1610    2.4459   -4.3964 C.ar    1  LIG1        0.1409
     24 O           0.1051    3.7271   -3.9952 O.3     1  LIG1       -0.5047
     25 C          -0.2006    2.1865   -5.7628 C.ar    1  LIG1       -0.0181
     26 C          -0.3962    0.8799   -6.2091 C.ar    1  LIG1       -0.0575
     27 C          -0.5316   -0.1590   -5.2864 C.ar    1  LIG1       -0.0487
     28 C          -0.4902    0.1185   -3.9138 C.ar    1  LIG1        0.0495
     29 C          -0.5919   -0.9721   -2.9275 C.ar    1  LIG1        0.2008
     30 O          -0.8695   -2.1151   -3.2826 O.2     1  LIG1       -0.2864
     31 H          -0.7422    0.7189    4.5408 H       1  LIG1        0.0271
     32 H          -1.5236    1.3985    3.1250 H       1  LIG1        0.0271
     33 H          -0.7509    2.4805    4.3019 H       1  LIG1        0.0271
     34 H           1.8002    0.7072    4.7360 H       1  LIG1        0.0271
     35 H           1.8522    2.4686    4.5117 H       1  LIG1        0.0271
     36 H           2.7908    1.3885    3.4578 H       1  LIG1        0.0271
     37 H           0.9786    3.5026    2.3356 H       1  LIG1        0.0611
     38 H           0.6626    3.0784   -0.0399 H       1  LIG1        0.0623
     39 H           1.9897   -3.4812    0.8175 H       1  LIG1        0.0624
     40 H           2.1987   -5.3033    2.4681 H       1  LIG1        0.0618
     41 H           0.5988   -5.4671    4.3586 H       1  LIG1        0.0618
     42 H          -1.2187   -3.7923    4.5875 H       1  LIG1        0.0618
     43 H          -1.4373   -1.9647    2.9438 H       1  LIG1        0.0624
     44 H          -0.6244   -3.0651   -1.9038 H       1  LIG1        0.2922
     45 H          -1.7541    2.6724   -0.6964 H       1  LIG1        0.0456
     46 H          -2.5137    1.6463   -1.9260 H       1  LIG1        0.0456
     47 H          -1.8599    3.2436   -2.3429 H       1  LIG1        0.0456
     48 H           0.3434    3.6574   -3.0510 H       1  LIG1        0.2922
     49 H          -0.0630    2.9957   -6.4748 H       1  LIG1        0.0655
     50 H          -0.4228    0.6676   -7.2753 H       1  LIG1        0.0619
     51 H          -0.6597   -1.1811   -5.6368 H       1  LIG1        0.0625
@<TRIPOS>BOND
     1     1     2    1
     2     2     3    1
     3     2     4    1
     4     2     5    1
     5     5     6    2
     6     6     7    1
     7     7     8   ar
     8     3     8    1
     9     8     9   ar
    10     9    10    1
    11    10    11   ar
    12    11    12   ar
    13    12    13   ar
    14    13    14   ar
    15    14    15   ar
    16    10    15   ar
    17     9    16   ar
    18    16    17    1
    19    16    18   ar
    20    18    19   ar
    21     7    19   ar
    22    19    20   ar
    23    20    21    1
    24    20    22   ar
    25    22    23   ar
    26    23    24    1
    27    23    25   ar
    28    25    26   ar
    29    26    27   ar
    30    27    28   ar
    31    22    28   ar
    32    28    29   ar
    33    18    29   ar
    34    29    30    2
    35     1    31    1
    36     1    32    1
    37     1    33    1
    38     4    34    1
    39     4    35    1
    40     4    36    1
    41     5    37    1
    42     6    38    1
    43    11    39    1
    44    12    40    1
    45    13    41    1
    46    14    42    1
    47    15    43    1
    48    17    44    1
    49    21    45    1
    50    21    46    1
    51    21    47    1
    52    24    48    1
    53    25    49    1
    54    26    50    1
    55    27    51    1
