REMARK  Name = NuBBE_563
REMARK  4 active torsions:
REMARK  status: ('A' for Active; 'I' for Inactive)
REMARK    1  A    between atoms: O_1  and  C_2
REMARK    2  A    between atoms: C_8  and  C_10
REMARK    3  A    between atoms: C_12  and  O_13
REMARK    4  A    between atoms: C_14  and  O_15
REMARK                            x       y       z     vdW  Elec       q    Type
REMARK                         _______ _______ _______ _____ _____    ______ ____
ROOT
ATOM      1  C   LIG A   1      -3.623  -2.300   0.486  0.00  0.00    +0.120 A 
ATOM      2  C   LIG A   1      -2.990  -3.531   0.642  0.00  0.00    +0.046 A 
ATOM      3  C   LIG A   1      -1.598  -3.600   0.569  0.00  0.00    +0.018 A 
ATOM      4  C   LIG A   1      -0.857  -2.433   0.350  0.00  0.00    +0.059 A 
ATOM      5  C   LIG A   1       0.611  -2.489   0.209  0.00  0.00    +0.171 C 
ATOM      6  C   LIG A   1       1.297  -1.203  -0.155  0.00  0.00    +0.129 C 
ATOM      7  C   LIG A   1       0.525  -0.053   0.478  0.00  0.00    +0.211 C 
ATOM      8  O   LIG A   1      -0.833  -0.023   0.006  0.00  0.00    -0.483 OA
ATOM      9  O   LIG A   1       1.215  -3.551   0.323  0.00  0.00    -0.292 OA
ATOM     10  C   LIG A   1      -1.499  -1.200   0.219  0.00  0.00    +0.135 A 
ATOM     11  C   LIG A   1      -2.889  -1.136   0.271  0.00  0.00    +0.091 A 
ENDROOT
BRANCH   7  12
ATOM     12  C   LIG A   1       1.192   1.273   0.153  0.00  0.00    -0.003 A 
ATOM     13  C   LIG A   1       0.884   1.979  -1.025  0.00  0.00    +0.056 A 
ATOM     14  C   LIG A   1       1.534   3.178  -1.301  0.00  0.00    +0.159 A 
ATOM     15  C   LIG A   1       2.493   3.678  -0.426  0.00  0.00    +0.158 A 
ATOM     16  C   LIG A   1       2.817   2.996   0.736  0.00  0.00    +0.049 A 
ATOM     17  C   LIG A   1       2.168   1.793   1.025  0.00  0.00    +0.011 A 
BRANCH  14  18
ATOM     18  O   LIG A   1       1.262   3.903  -2.428  0.00  0.00    -0.503 OA
ATOM     19  H   LIG A   1       0.551   3.450  -2.914  0.00  0.00    +0.292 HD
ENDBRANCH  14  18
BRANCH  15  20
ATOM     20  O   LIG A   1       3.127   4.854  -0.708  0.00  0.00    -0.503 OA
ATOM     21  H   LIG A   1       2.739   5.141  -1.558  0.00  0.00    +0.292 HD
ENDBRANCH  15  20
ENDBRANCH   7  12
BRANCH   1  22
ATOM     22  O   LIG A   1      -4.981  -2.190   0.539  0.00  0.00    -0.507 OA
ATOM     23  H   LIG A   1      -5.364  -3.069   0.693  0.00  0.00    +0.292 HD
ENDBRANCH   1  22
TORSDOF 4
