REMARK  Name = NuBBE_1219
REMARK  15 active torsions:
REMARK  status: ('A' for Active; 'I' for Inactive)
REMARK    1  A    between atoms: C_3  and  O_4
REMARK    2  A    between atoms: O_4  and  C_5
REMARK    3  A    between atoms: C_6  and  C_7
REMARK    4  A    between atoms: C_10  and  O_11
REMARK    5  A    between atoms: O_11  and  C_12
REMARK    6  A    between atoms: C_13  and  O_14
REMARK    7  A    between atoms: O_14  and  C_15
REMARK    8  A    between atoms: C_20  and  O_21
REMARK    9  A    between atoms: O_21  and  C_22
REMARK   10  A    between atoms: C_23  and  O_24
REMARK   11  A    between atoms: O_24  and  C_25
REMARK   12  A    between atoms: C_26  and  O_27
REMARK   13  A    between atoms: O_27  and  C_28
REMARK   14  A    between atoms: C_29  and  O_30
REMARK   15  A    between atoms: O_30  and  C_31
REMARK                            x       y       z     vdW  Elec       q    Type
REMARK                         _______ _______ _______ _____ _____    ______ ____
ROOT
ATOM      1  O   LIG A   1      -0.273   2.041   3.140  0.00  0.00    -0.283 OA
ATOM      2  C   LIG A   1      -0.332   1.359   2.075  0.00  0.00    +0.238 A 
ATOM      3  C   LIG A   1      -0.079  -0.068   2.036  0.00  0.00    +0.211 A 
ATOM      4  C   LIG A   1       0.859  -0.303   1.078  0.00  0.00    +0.181 A 
ATOM      5  O   LIG A   1       1.405   0.735   0.279  0.00  0.00    -0.447 OA
ATOM      6  C   LIG A   1      -0.576   1.958   0.769  0.00  0.00    +0.117 A 
ATOM      7  C   LIG A   1       0.488   1.709  -0.096  0.00  0.00    +0.188 A 
ATOM      8  C   LIG A   1       0.533   2.320  -1.355  0.00  0.00    +0.209 A 
ATOM      9  C   LIG A   1      -0.662   2.906  -1.864  0.00  0.00    +0.211 A 
ATOM     10  C   LIG A   1      -1.835   2.857  -1.058  0.00  0.00    +0.208 A 
ATOM     11  C   LIG A   1      -1.769   2.476   0.287  0.00  0.00    +0.180 A 
ENDROOT
BRANCH   4  12
ATOM     12  C   LIG A   1       1.292  -1.630   0.662  0.00  0.00    +0.025 A 
ATOM     13  C   LIG A   1       0.625  -2.244  -0.385  0.00  0.00    +0.015 A 
ATOM     14  C   LIG A   1       1.010  -3.513  -0.789  0.00  0.00    +0.050 A 
ATOM     15  C   LIG A   1       2.090  -4.208  -0.197  0.00  0.00    +0.162 A 
ATOM     16  C   LIG A   1       2.822  -3.558   0.812  0.00  0.00    +0.162 A 
ATOM     17  C   LIG A   1       2.384  -2.283   1.239  0.00  0.00    +0.061 A 
BRANCH  15  18
ATOM     18  O   LIG A   1       2.385  -5.489  -0.608  0.00  0.00    -0.491 OA
ATOM     19  C   LIG A   1       1.254  -6.205  -1.140  0.00  0.00    +0.277 C 
ENDBRANCH  15  18
BRANCH  16  20
ATOM     20  O   LIG A   1       3.891  -3.942   1.568  0.00  0.00    -0.491 OA
ATOM     21  C   LIG A   1       4.757  -5.014   1.258  0.00  0.00    +0.277 C 
ENDBRANCH  16  20
ENDBRANCH   4  12
BRANCH   3  22
ATOM     22  O   LIG A   1      -0.783  -1.014   2.761  0.00  0.00    -0.488 OA
ATOM     23  C   LIG A   1      -1.690  -0.572   3.784  0.00  0.00    +0.277 C 
ENDBRANCH   3  22
BRANCH   8  24
ATOM     24  O   LIG A   1       1.721   2.133  -2.016  0.00  0.00    -0.488 OA
ATOM     25  C   LIG A   1       2.336   3.265  -2.621  0.00  0.00    +0.277 C 
ENDBRANCH   8  24
BRANCH   9  26
ATOM     26  O   LIG A   1      -0.643   3.464  -3.127  0.00  0.00    -0.488 OA
ATOM     27  C   LIG A   1      -1.847   4.069  -3.626  0.00  0.00    +0.277 C 
ENDBRANCH   9  26
BRANCH  10  28
ATOM     28  O   LIG A   1      -3.080   2.925  -1.661  0.00  0.00    -0.488 OA
ATOM     29  C   LIG A   1      -4.100   3.744  -1.072  0.00  0.00    +0.277 C 
ENDBRANCH  10  28
BRANCH  11  30
ATOM     30  O   LIG A   1      -2.967   2.576   0.927  0.00  0.00    -0.490 OA
ATOM     31  C   LIG A   1      -3.038   2.139   2.244  0.00  0.00    +0.277 C 
ENDBRANCH  11  30
TORSDOF 8
