REMARK  Name = NuBBE_1607
REMARK  18 active torsions:
REMARK  status: ('A' for Active; 'I' for Inactive)
REMARK    1  A    between atoms: C_1  and  C_2
REMARK    2  A    between atoms: C_12  and  C_14
REMARK    3  A    between atoms: C_15  and  O_19
REMARK    4  A    between atoms: O_19  and  C_20
REMARK    5  A    between atoms: C_23  and  C_25
REMARK    6  A    between atoms: C_25  and  O_26
REMARK    7  A    between atoms: C_27  and  O_35
REMARK    8  A    between atoms: C_29  and  O_34
REMARK    9  A    between atoms: C_31  and  O_33
REMARK   10  A    between atoms: C_38  and  C_39
REMARK   11  A    between atoms: C_40  and  C_44
REMARK   12  A    between atoms: C_44  and  C_46
REMARK   13  A    between atoms: C_44  and  C_53
REMARK   14  A    between atoms: C_46  and  C_47
REMARK   15  A    between atoms: C_47  and  C_48
REMARK   16  A    between atoms: C_48  and  C_50
REMARK   17  A    between atoms: C_50  and  C_51
REMARK   18  A    between atoms: C_50  and  C_52
REMARK                            x       y       z     vdW  Elec       q    Type
REMARK                         _______ _______ _______ _____ _____    ______ ____
ROOT
ATOM      1  C   LIG A   1       4.635   2.092   1.097  0.00  0.00    +0.012 C 
ATOM      2  C   LIG A   1       3.884   1.202   0.085  0.00  0.00    -0.023 C 
ATOM      3  C   LIG A   1       2.355   1.583   0.073  0.00  0.00    +0.002 C 
ATOM      4  C   LIG A   1       1.668   1.156   1.367  0.00  0.00    -0.019 C 
ATOM      5  C   LIG A   1       0.256   1.714   1.644  0.00  0.00    -0.020 C 
ATOM      6  C   LIG A   1       1.433   2.100   2.526  0.00  0.00    +0.015 C 
ATOM      7  C   LIG A   1      -0.353   2.833   0.784  0.00  0.00    +0.001 C 
ATOM      8  C   LIG A   1       0.497   3.165  -0.467  0.00  0.00    +0.005 C 
ATOM      9  C   LIG A   1       2.011   3.039  -0.278  0.00  0.00    +0.005 C 
ATOM     10  C   LIG A   1      -1.838   2.516   0.380  0.00  0.00    +0.018 C 
ATOM     11  C   LIG A   1      -2.456   3.686  -0.410  0.00  0.00    +0.010 C 
ATOM     12  C   LIG A   1      -2.738   2.199   1.614  0.00  0.00    +0.125 C 
ATOM     13  C   LIG A   1      -2.035   1.330   2.655  0.00  0.00    +0.032 C 
ATOM     14  C   LIG A   1      -0.741   0.721   2.192  0.00  0.00    +0.010 C 
ATOM     15  C   LIG A   1       1.866  -0.311   1.671  0.00  0.00    +0.008 C 
ATOM     16  C   LIG A   1       3.297  -0.792   1.575  0.00  0.00    +0.008 C 
ATOM     17  C   LIG A   1       4.075  -0.352   0.333  0.00  0.00    -0.023 C 
ATOM     18  C   LIG A   1       5.565  -0.716   0.655  0.00  0.00    +0.012 C 
ATOM     19  C   LIG A   1       3.772  -1.040  -1.070  0.00  0.00    -0.002 C 
ATOM     20  C   LIG A   1       4.135   0.089  -2.085  0.00  0.00    +0.005 C 
ATOM     21  C   LIG A   1       4.526   1.346  -1.306  0.00  0.00    +0.008 C 
ENDROOT
BRANCH  19  22
ATOM     22  C   LIG A   1       2.408  -1.720  -1.464  0.00  0.00    -0.010 C 
ATOM     23  C   LIG A   1       1.925  -2.867  -0.565  0.00  0.00    +0.008 C 
BRANCH  22  24
ATOM     24  C   LIG A   1       2.413  -2.283  -2.932  0.00  0.00    +0.008 C 
BRANCH  24  25
ATOM     25  C   LIG A   1       3.300  -3.523  -3.165  0.00  0.00    +0.030 C 
BRANCH  25  26
ATOM     26  C   LIG A   1       3.255  -4.006  -4.602  0.00  0.00    -0.074 C 
ATOM     27  C   LIG A   1       4.185  -3.554  -5.483  0.00  0.00    +0.008 C 
BRANCH  26  28
ATOM     28  C   LIG A   1       2.144  -4.982  -4.972  0.00  0.00    +0.008 C 
ATOM     29  C   LIG A   1       1.666  -4.860  -6.424  0.00  0.00    +0.012 C 
ATOM     30  C   LIG A   1       2.536  -6.438  -4.684  0.00  0.00    +0.012 C 
ENDBRANCH  26  28
ENDBRANCH  25  26
ENDBRANCH  24  25
ENDBRANCH  22  24
ENDBRANCH  19  22
BRANCH  12  31
ATOM     31  O   LIG A   1      -3.986   1.607   1.178  0.00  0.00    -0.345 OA
BRANCH  31  32
ATOM     32  C   LIG A   1      -4.952   1.272   2.201  0.00  0.00    +0.282 C 
ATOM     33  O   LIG A   1      -6.115   0.716   1.549  0.00  0.00    -0.341 OA
ATOM     34  C   LIG A   1      -7.112   0.257   2.483  0.00  0.00    +0.178 C 
ATOM     35  C   LIG A   1      -7.676   1.459   3.252  0.00  0.00    +0.177 C 
ATOM     36  C   LIG A   1      -6.532   2.138   3.997  0.00  0.00    +0.179 C 
ATOM     37  C   LIG A   1      -5.349   2.476   3.092  0.00  0.00    +0.201 C 
BRANCH  37  38
ATOM     38  O   LIG A   1      -4.288   2.876   3.979  0.00  0.00    -0.384 OA
ATOM     39  H   LIG A   1      -4.680   3.570   4.547  0.00  0.00    +0.210 HD
ENDBRANCH  37  38
BRANCH  36  40
ATOM     40  O   LIG A   1      -6.982   3.344   4.636  0.00  0.00    -0.386 OA
ATOM     41  H   LIG A   1      -7.898   3.173   4.933  0.00  0.00    +0.210 HD
ENDBRANCH  36  40
BRANCH  35  42
ATOM     42  O   LIG A   1      -8.675   1.094   4.213  0.00  0.00    -0.387 OA
ATOM     43  H   LIG A   1      -8.286   0.489   4.869  0.00  0.00    +0.210 HD
ENDBRANCH  35  42
BRANCH  34  44
ATOM     44  C   LIG A   1      -8.203  -0.493   1.708  0.00  0.00    +0.190 C 
BRANCH  44  45
ATOM     45  O   LIG A   1      -8.806   0.347   0.729  0.00  0.00    -0.392 OA
ATOM     46  H   LIG A   1      -8.072   0.695   0.188  0.00  0.00    +0.209 HD
ENDBRANCH  44  45
ENDBRANCH  34  44
ENDBRANCH  31  32
ENDBRANCH  12  31
TORSDOF 12
