@<TRIPOS>MOLECULE
NuBBE_1668
 57 58 0 0 0
SMALL
GASTEIGER

@<TRIPOS>ATOM
      1 C           1.1750    2.6694    4.4087 C.3     1  LIG1        0.0790
      2 O           0.9987    1.5412    5.2560 O.3     1  LIG1       -0.4914
      3 C           0.4862    0.4057    4.6757 C.ar    1  LIG1        0.1617
      4 C           0.6855   -0.8021    5.3695 C.ar    1  LIG1        0.1615
      5 O           1.3859   -0.7250    6.5492 O.3     1  LIG1       -0.4915
      6 C           1.6305   -1.9437    7.2371 C.3     1  LIG1        0.0790
      7 C           0.1862   -1.9912    4.8312 C.ar    1  LIG1       -0.0160
      8 C          -0.4958   -1.9869    3.6141 C.ar    1  LIG1       -0.0549
      9 C          -0.6974   -0.7956    2.9114 C.ar    1  LIG1       -0.0434
     10 C          -1.3938   -0.8213    1.5694 C.3     1  LIG1       -0.0246
     11 C          -0.4592   -0.9034    0.3241 C.3     1  LIG1       -0.0347
     12 H          -1.1371   -1.0619   -0.5259 H       1  LIG1        0.0305
     13 C           0.4221   -2.1587    0.4317 C.3     1  LIG1       -0.0618
     14 C           0.3346    0.4219    0.0426 C.3     1  LIG1       -0.0108
     15 H           0.9683    0.5945    0.9226 H       1  LIG1        0.0329
     16 C          -0.6236    1.6219   -0.0844 C.3     1  LIG1       -0.0595
     17 C           1.3188    0.4420   -1.1698 C.3     1  LIG1        0.0831
     18 H           1.8499    1.4027   -1.1235 H       1  LIG1        0.0646
     19 C           0.6961    0.3249   -2.5462 C.ar    1  LIG1       -0.0152
     20 C           0.1550   -0.8744   -2.9973 C.ar    1  LIG1       -0.0524
     21 C          -0.4716   -0.9639   -4.2413 C.ar    1  LIG1       -0.0160
     22 C          -0.5687    0.1546   -5.0759 C.ar    1  LIG1        0.1615
     23 O          -1.1661    0.0668   -6.3063 O.3     1  LIG1       -0.4915
     24 C          -2.3211   -0.7689   -6.3510 C.3     1  LIG1        0.0790
     25 C           0.0280    1.3582   -4.6710 C.ar    1  LIG1        0.1618
     26 O           0.1084    2.5317   -5.3768 O.3     1  LIG1       -0.4914
     27 C          -0.9038    2.7817   -6.3416 C.3     1  LIG1        0.0790
     28 C           0.6561    1.4284   -3.4162 C.ar    1  LIG1       -0.0107
     29 O           2.3450   -0.5341   -1.0145 O.3     1  LIG1       -0.3869
     30 C          -0.2228    0.4008    3.4670 C.ar    1  LIG1       -0.0131
     31 H           0.2124    3.1374    4.1788 H       1  LIG1        0.0660
     32 H           1.7143    2.4072    3.4915 H       1  LIG1        0.0660
     33 H           1.7798    3.4041    4.9490 H       1  LIG1        0.0660
     34 H           2.2165   -1.7149    8.1321 H       1  LIG1        0.0660
     35 H           2.2190   -2.6342    6.6233 H       1  LIG1        0.0660
     36 H           0.6919   -2.4053    7.5622 H       1  LIG1        0.0660
     37 H           0.3177   -2.9463    5.3276 H       1  LIG1        0.0655
     38 H          -0.8584   -2.9303    3.2121 H       1  LIG1        0.0621
     39 H          -2.0744    0.0342    1.4981 H       1  LIG1        0.0316
     40 H          -2.0648   -1.6923    1.5502 H       1  LIG1        0.0316
     41 H          -0.1662   -3.0205    0.7624 H       1  LIG1        0.0233
     42 H           1.2464   -2.0138    1.1376 H       1  LIG1        0.0233
     43 H           0.8561   -2.4481   -0.5260 H       1  LIG1        0.0233
     44 H          -1.0898    1.8739    0.8711 H       1  LIG1        0.0233
     45 H          -1.4267    1.4146   -0.8008 H       1  LIG1        0.0233
     46 H          -0.0956    2.5219   -0.4148 H       1  LIG1        0.0233
     47 H           0.2100   -1.7750   -2.3963 H       1  LIG1        0.0622
     48 H          -0.8566   -1.9319   -4.5436 H       1  LIG1        0.0655
     49 H          -2.8524   -0.5543   -7.2831 H       1  LIG1        0.0660
     50 H          -3.0029   -0.5584   -5.5195 H       1  LIG1        0.0660
     51 H          -2.0410   -1.8266   -6.3694 H       1  LIG1        0.0660
     52 H          -1.9046    2.6374   -5.9196 H       1  LIG1        0.0660
     53 H          -0.7540    2.1850   -7.2466 H       1  LIG1        0.0660
     54 H          -0.8215    3.8316   -6.6424 H       1  LIG1        0.0660
     55 H           1.1110    2.3723   -3.1164 H       1  LIG1        0.0659
     56 H           2.8779   -0.5119   -1.8284 H       1  LIG1        0.2102
     57 H          -0.4134    1.3289    2.9421 H       1  LIG1        0.0658
@<TRIPOS>BOND
     1     1     2    1
     2     2     3    1
     3     3     4   ar
     4     4     5    1
     5     5     6    1
     6     4     7   ar
     7     7     8   ar
     8     8     9   ar
     9     9    10    1
    10    11    13    1
    11    14    16    1
    12    17    19    1
    13    19    20   ar
    14    20    21   ar
    15    21    22   ar
    16    22    23    1
    17    23    24    1
    18    22    25   ar
    19    25    26    1
    20    26    27    1
    21    25    28   ar
    22    19    28   ar
    23    17    29    1
    24     9    30   ar
    25     3    30   ar
    26    11    12    1
    27    11    10    1
    28    14    15    1
    29    14    11    1
    30    17    18    1
    31    17    14    1
    32     1    31    1
    33     1    32    1
    34     1    33    1
    35     6    34    1
    36     6    35    1
    37     6    36    1
    38     7    37    1
    39     8    38    1
    40    10    39    1
    41    10    40    1
    42    13    41    1
    43    13    42    1
    44    13    43    1
    45    16    44    1
    46    16    45    1
    47    16    46    1
    48    20    47    1
    49    21    48    1
    50    24    49    1
    51    24    50    1
    52    24    51    1
    53    27    52    1
    54    27    53    1
    55    27    54    1
    56    28    55    1
    57    29    56    1
    58    30    57    1
