@<TRIPOS>MOLECULE
NuBBE_1656
 34 36 0 0 0
SMALL
GASTEIGER

@<TRIPOS>ATOM
      1 O          -1.7887   -0.0079    0.1707 O.2     1  LIG1       -0.2863
      2 C          -0.5662   -0.1103    0.0921 C.ar    1  LIG1        0.2038
      3 C           0.2514    1.1155    0.0377 C.ar    1  LIG1        0.1097
      4 C           1.6325    0.9857   -0.0187 C.ar    1  LIG1        0.1456
      5 C           2.4457    2.1170   -0.0647 C.ar    1  LIG1        0.0267
      6 C           1.8737    3.3941   -0.0610 C.ar    1  LIG1        0.1657
      7 C           0.4802    3.5536   -0.0080 C.ar    1  LIG1        0.2040
      8 C          -0.3242    2.3957    0.0411 C.ar    1  LIG1        0.1768
      9 O          -1.6912    2.5635    0.0888 O.3     1  LIG1       -0.5027
     10 O          -0.2215    4.7308    0.0027 O.3     1  LIG1       -0.4885
     11 C           0.4834    5.9598   -0.0401 C.3     1  LIG1        0.0791
     12 O           2.7172    4.4702   -0.1132 O.3     1  LIG1       -0.5031
     13 O           2.2652   -0.2290   -0.0346 O.2     1  LIG1       -0.4618
     14 C           1.4852   -1.3588   -0.0189 C.ar    1  LIG1        0.1038
     15 C           0.1443   -1.4239    0.0474 C.ar    1  LIG1        0.0644
     16 C          -0.5592   -2.7319    0.0513 C.ar    1  LIG1       -0.0110
     17 C          -1.8161   -2.8823   -0.5582 C.ar    1  LIG1       -0.0504
     18 C          -2.4860   -4.1119   -0.5560 C.ar    1  LIG1       -0.0196
     19 C          -1.8943   -5.2123    0.0483 C.ar    1  LIG1        0.1169
     20 C          -0.6543   -5.0986    0.6584 C.ar    1  LIG1       -0.0196
     21 C           0.0043   -3.8646    0.6688 C.ar    1  LIG1       -0.0504
     22 O          -2.5043   -6.4303    0.0664 O.3     1  LIG1       -0.5068
     23 H           3.5236    1.9868   -0.1047 H       1  LIG1        0.0692
     24 H          -2.1163    1.6798    0.1381 H       1  LIG1        0.2923
     25 H          -0.2575    6.7654   -0.0186 H       1  LIG1        0.0660
     26 H           1.0446    6.0644   -0.9738 H       1  LIG1        0.0660
     27 H           1.1201    6.0856    0.8411 H       1  LIG1        0.0660
     28 H           3.6385    4.1673   -0.1618 H       1  LIG1        0.2923
     29 H           2.1359   -2.2236   -0.0780 H       1  LIG1        0.1037
     30 H          -2.3023   -2.0404   -1.0476 H       1  LIG1        0.0625
     31 H          -3.4609   -4.1826   -1.0281 H       1  LIG1        0.0654
     32 H          -0.2012   -5.9653    1.1319 H       1  LIG1        0.0654
     33 H           0.9635   -3.8092    1.1782 H       1  LIG1        0.0625
     34 H          -3.3651   -6.3522   -0.3771 H       1  LIG1        0.2921
@<TRIPOS>BOND
     1     1     2    2
     2     2     3   ar
     3     3     4   ar
     4     4     5   ar
     5     5     6   ar
     6     6     7   ar
     7     7     8   ar
     8     3     8   ar
     9     8     9    1
    10     7    10    1
    11    10    11    1
    12     6    12    1
    13     4    13   ar
    14    13    14   ar
    15    14    15   ar
    16     2    15   ar
    17    15    16    1
    18    16    17   ar
    19    17    18   ar
    20    18    19   ar
    21    19    20   ar
    22    20    21   ar
    23    16    21   ar
    24    19    22    1
    25     5    23    1
    26     9    24    1
    27    11    25    1
    28    11    26    1
    29    11    27    1
    30    12    28    1
    31    14    29    1
    32    17    30    1
    33    18    31    1
    34    20    32    1
    35    21    33    1
    36    22    34    1
