@<TRIPOS>MOLECULE
NuBBE_137
 43 44 0 0 0
SMALL
GASTEIGER

@<TRIPOS>ATOM
      1 O           6.8611   -2.4685   -1.1333 O.3     1  LIG1       -0.5033
      2 C           5.5930   -2.3065   -0.6527 C.ar    1  LIG1        0.1582
      3 C           4.9490   -3.3446    0.0144 C.ar    1  LIG1       -0.0160
      4 C           3.6350   -3.1671    0.4671 C.ar    1  LIG1       -0.0509
      5 C           2.9628   -1.9504    0.2645 C.ar    1  LIG1       -0.0211
      6 C           1.5589   -1.8142    0.6859 C.2     1  LIG1       -0.0477
      7 C           0.9838   -0.6539    1.0380 C.2     1  LIG1        0.0231
      8 C          -0.4268   -0.6452    1.4643 C.2     1  LIG1        0.3323
      9 O          -0.9282    0.6058    1.2726 O.3     1  LIG1       -0.4555
     10 C          -2.3385    0.7608    1.5339 C.3     1  LIG1        0.1346
     11 H          -2.5691    0.3356    2.5199 H       1  LIG1        0.0762
     12 C          -2.6662    2.2632    1.5669 C.3     1  LIG1        0.1180
     13 H          -2.0464    2.7809    2.3077 H       1  LIG1        0.0656
     14 O          -4.0300    2.4561    1.9652 O.3     1  LIG1       -0.3856
     15 C          -2.4424    2.9019    0.1868 C.3     1  LIG1        0.0877
     16 H          -1.3836    2.8602   -0.0895 H       1  LIG1        0.0621
     17 O          -2.8200    4.2829    0.2539 O.3     1  LIG1       -0.3890
     18 C          -3.3031    2.2275   -0.8812 C.3     1  LIG1        0.0153
     19 C          -3.1227    0.7085   -0.9234 C.3     1  LIG1        0.1677
     20 C          -1.8228    0.3391   -1.6639 C.2     1  LIG1        0.3370
     21 O          -1.9209   -0.8590   -2.2892 O.3     1  LIG1       -0.4786
     22 O          -0.7890    0.9838   -1.7265 O.2     1  LIG1       -0.2478
     23 O          -4.2164    0.1768   -1.6974 O.3     1  LIG1       -0.3772
     24 C          -3.1853    0.0527    0.4635 C.3     1  LIG1        0.0264
     25 O          -1.0373   -1.6155    1.8546 O.2     1  LIG1       -0.2456
     26 C           3.6329   -0.9124   -0.3963 C.ar    1  LIG1       -0.0094
     27 C           4.9389   -1.0927   -0.8500 C.ar    1  LIG1        0.1588
     28 O           5.5793   -0.0806   -1.5087 O.3     1  LIG1       -0.5033
     29 H           7.1543   -3.3762   -0.9626 H       1  LIG1        0.2923
     30 H           5.4473   -4.2946    0.1830 H       1  LIG1        0.0655
     31 H           3.1466   -3.9924    0.9832 H       1  LIG1        0.0625
     32 H           0.9762   -2.7354    0.6966 H       1  LIG1        0.0626
     33 H           1.4959    0.2984    1.0373 H       1  LIG1        0.0689
     34 H          -4.2909    3.3379    1.6283 H       1  LIG1        0.2100
     35 H          -2.0878    4.7631    0.6815 H       1  LIG1        0.2099
     36 H          -3.0771    2.6691   -1.8613 H       1  LIG1        0.0324
     37 H          -4.3615    2.4737   -0.7174 H       1  LIG1        0.0324
     38 H          -1.0714   -0.9542   -2.7708 H       1  LIG1        0.2951
     39 H          -3.9619   -0.7394   -1.9280 H       1  LIG1        0.2109
     40 H          -2.8877   -0.9979    0.3697 H       1  LIG1        0.0335
     41 H          -4.2292    0.0243    0.8026 H       1  LIG1        0.0335
     42 H           3.1323    0.0333   -0.5744 H       1  LIG1        0.0661
     43 H           4.9691    0.6651   -1.6149 H       1  LIG1        0.2923
@<TRIPOS>BOND
     1     1     2    1
     2     2     3   ar
     3     3     4   ar
     4     4     5   ar
     5     5     6    1
     6     6     7    2
     7     7     8    1
     8     8     9    1
     9     9    10    1
    10    10    11    1
    11    10    12    1
    12    12    15    1
    13    15    16    1
    14    15    17    1
    15    15    18    1
    16    18    19    1
    17    19    20    1
    18    20    21    1
    19    20    22    2
    20    19    23    1
    21    19    24    1
    22    10    24    1
    23     8    25    2
    24     5    26   ar
    25    26    27   ar
    26     2    27   ar
    27    27    28    1
    28    12    14    1
    29    12    13    1
    30     1    29    1
    31     3    30    1
    32     4    31    1
    33     6    32    1
    34     7    33    1
    35    14    34    1
    36    17    35    1
    37    18    36    1
    38    18    37    1
    39    21    38    1
    40    23    39    1
    41    24    40    1
    42    24    41    1
    43    26    42    1
    44    28    43    1
