@<TRIPOS>MOLECULE
NuBBE_1323
 40 43 0 0 0
SMALL
GASTEIGER

@<TRIPOS>ATOM
      1 O          -0.1129    0.7211    3.3687 O.2     1  LIG1       -0.2919
      2 C           0.1248    0.1358    2.3164 C.2     1  LIG1        0.1670
      3 C           0.0188    0.8205    0.9556 C.3     1  LIG1        0.0146
      4 C          -1.0160    1.9416    0.9533 C.3     1  LIG1       -0.0206
      5 C          -1.1448    2.5880   -0.4105 C.ar    1  LIG1       -0.0433
      6 C          -0.3242    3.6862   -0.7578 C.ar    1  LIG1       -0.0549
      7 C          -0.4266    4.2967   -2.0137 C.ar    1  LIG1       -0.0159
      8 C          -1.3457    3.7855   -2.9029 C.ar    1  LIG1        0.1662
      9 O          -1.5761    4.2449   -4.1621 O.3     1  LIG1       -0.4526
     10 C          -2.5855    3.3159   -4.6080 C.3     1  LIG1        0.2332
     11 O          -2.9812    2.3679   -3.5944 O.3     1  LIG1       -0.4526
     12 C          -2.1448    2.7153   -2.5788 C.ar    1  LIG1        0.1665
     13 C          -2.0694    2.0956   -1.3469 C.ar    1  LIG1       -0.0130
     14 C           0.4884   -1.3219    2.3549 C.ar    1  LIG1        0.0598
     15 C           1.3271   -1.9231    1.3864 C.ar    1  LIG1        0.1413
     16 C           1.5652   -3.3194    1.4677 C.ar    1  LIG1        0.0624
     17 C           0.9554   -4.0307    2.4994 C.ar    1  LIG1        0.1383
     18 C           0.1442   -3.4667    3.4792 C.ar    1  LIG1       -0.0179
     19 C          -0.0742   -2.0879    3.3930 C.ar    1  LIG1       -0.0442
     20 O           1.2684   -5.3532    2.4255 O.2     1  LIG1       -0.4628
     21 C           2.0920   -5.5076    1.3612 C.ar    1  LIG1        0.0932
     22 C           2.3222   -4.2961    0.7544 C.ar    1  LIG1       -0.0126
     23 O           1.9548   -1.0755    0.4915 O.3     1  LIG1       -0.4937
     24 C           2.1842   -1.5871   -0.8140 C.3     1  LIG1        0.0788
     25 H          -0.2678    0.0791    0.2013 H       1  LIG1        0.0348
     26 H           1.0053    1.2253    0.7002 H       1  LIG1        0.0348
     27 H          -0.7524    2.7078    1.6925 H       1  LIG1        0.0317
     28 H          -1.9932    1.5513    1.2643 H       1  LIG1        0.0317
     29 H           0.3966    4.0750   -0.0406 H       1  LIG1        0.0621
     30 H           0.1947    5.1443   -2.2800 H       1  LIG1        0.0655
     31 H          -2.1932    2.7614   -5.4689 H       1  LIG1        0.1166
     32 H          -3.4682    3.8809   -4.9293 H       1  LIG1        0.1166
     33 H          -2.7163    1.2554   -1.1190 H       1  LIG1        0.0658
     34 H          -0.2920   -4.0735    4.2644 H       1  LIG1        0.0655
     35 H          -0.7038   -1.6130    4.1457 H       1  LIG1        0.0627
     36 H           2.4276   -6.5172    1.1680 H       1  LIG1        0.1030
     37 H           2.9521   -4.1538   -0.1102 H       1  LIG1        0.0656
     38 H           2.1958   -0.7400   -1.5069 H       1  LIG1        0.0660
     39 H           1.3993   -2.2745   -1.1467 H       1  LIG1        0.0660
     40 H           3.1711   -2.0544   -0.8530 H       1  LIG1        0.0660
@<TRIPOS>BOND
     1     1     2    2
     2     2     3    1
     3     3     4    1
     4     4     5    1
     5     5     6   ar
     6     6     7   ar
     7     7     8   ar
     8     8     9    1
     9     9    10    1
    10    10    11    1
    11    11    12    1
    12     8    12   ar
    13    12    13   ar
    14     5    13   ar
    15     2    14    1
    16    14    15   ar
    17    15    16   ar
    18    16    17   ar
    19    17    18   ar
    20    18    19   ar
    21    14    19   ar
    22    17    20   ar
    23    20    21   ar
    24    21    22   ar
    25    16    22   ar
    26    15    23    1
    27    23    24    1
    28     3    25    1
    29     3    26    1
    30     4    27    1
    31     4    28    1
    32     6    29    1
    33     7    30    1
    34    10    31    1
    35    10    32    1
    36    13    33    1
    37    18    34    1
    38    19    35    1
    39    21    36    1
    40    22    37    1
    41    24    38    1
    42    24    39    1
    43    24    40    1
