@<TRIPOS>MOLECULE
NuBBE_1746
 26 27 0 0 0
SMALL
GASTEIGER

@<TRIPOS>ATOM
      1 C          -2.5537   -0.1464   -0.1631 C.3     1  LIG1       -0.0590
      2 C          -1.0222   -0.1446   -0.3836 C.3     1  LIG1       -0.0255
      3 C          -0.8034   -0.1686   -1.8992 C.3     1  LIG1       -0.0590
      4 C          -0.2177    0.9084    0.5064 C.3     1  LIG1       -0.0145
      5 C          -0.3448   -0.1472    1.6600 C.3     1  LIG1       -0.0427
      6 C          -0.2519   -1.2057    0.5127 C.3     1  LIG1       -0.0345
      7 C           1.2279   -1.4762    0.1841 C.3     1  LIG1       -0.0460
      8 C           1.9678   -0.1963   -0.2523 C.3     1  LIG1       -0.0314
      9 C           1.2461    1.0567    0.1811 C.2     1  LIG1       -0.0730
     10 C           1.8741    2.2112    0.4609 C.2     1  LIG1       -0.0992
     11 H          -3.0222    0.6840   -0.7035 H       1  LIG1        0.0235
     12 H          -2.8498   -0.0460    0.8835 H       1  LIG1        0.0235
     13 H          -2.9894   -1.0804   -0.5360 H       1  LIG1        0.0235
     14 H          -1.3473    0.6529   -2.3804 H       1  LIG1        0.0235
     15 H          -1.1756   -1.1075   -2.3246 H       1  LIG1        0.0235
     16 H           0.2343   -0.0666   -2.2078 H       1  LIG1        0.0235
     17 H          -0.7360    1.8574    0.6793 H       1  LIG1        0.0351
     18 H          -1.2862   -0.1285    2.2183 H       1  LIG1        0.0274
     19 H           0.4572   -0.1633    2.4071 H       1  LIG1        0.0274
     20 H          -0.7959   -2.1349    0.7124 H       1  LIG1        0.0306
     21 H           1.3122   -2.2378   -0.5990 H       1  LIG1        0.0271
     22 H           1.7204   -1.8896    1.0738 H       1  LIG1        0.0271
     23 H           2.0725   -0.1917   -1.3425 H       1  LIG1        0.0310
     24 H           2.9937   -0.2209    0.1347 H       1  LIG1        0.0310
     25 H           2.9449    2.3123    0.3179 H       1  LIG1        0.0534
     26 H           1.3451    3.0694    0.8597 H       1  LIG1        0.0534
@<TRIPOS>BOND
     1     1     2    1
     2     2     3    1
     3     2     4    1
     4     4     5    1
     5     5     6    1
     6     2     6    1
     7     6     7    1
     8     7     8    1
     9     8     9    1
    10     4     9    1
    11     9    10    2
    12     1    11    1
    13     1    12    1
    14     1    13    1
    15     3    14    1
    16     3    15    1
    17     3    16    1
    18     4    17    1
    19     5    18    1
    20     5    19    1
    21     6    20    1
    22     7    21    1
    23     7    22    1
    24     8    23    1
    25     8    24    1
    26    10    25    1
    27    10    26    1
