@<TRIPOS>MOLECULE
NuBBE_262
 50 52 0 0 0
SMALL
GASTEIGER

@<TRIPOS>ATOM
      1 C          -2.8899    4.8256   -1.5271 C.3     1  LIG1        0.0789
      2 O          -3.1657    3.5145   -2.0072 O.2     1  LIG1       -0.4919
      3 C          -2.2877    2.5249   -1.6090 C.2     1  LIG1        0.1601
      4 C          -2.7547    1.2690   -1.4390 C.2     1  LIG1       -0.0249
      5 C          -1.8832    0.0988   -0.9969 C.3     1  LIG1        0.0579
      6 C          -2.4241   -1.3160   -1.2986 C.3     1  LIG1       -0.0187
      7 C          -3.6620   -1.7255   -0.5437 C.2     1  LIG1       -0.0899
      8 C          -4.8013   -2.1326   -1.1213 C.2     1  LIG1       -0.1026
      9 C          -0.6657    0.3721   -1.8572 C.2     1  LIG1        0.1550
     10 O          -0.3968   -0.1412   -2.9359 O.2     1  LIG1       -0.2957
     11 C          -1.2462    0.2709    0.4264 C.3     1  LIG1       -0.0197
     12 C          -2.1086    0.9885    1.4745 C.3     1  LIG1       -0.0606
     13 H          -1.0282   -0.7226    0.8445 H       1  LIG1        0.0317
     14 C           0.0891    1.0629    0.2129 C.3     1  LIG1        0.0048
     15 H           0.0984    1.9523    0.8585 H       1  LIG1        0.0363
     16 C           1.3105    0.2290    0.5702 C.ar    1  LIG1       -0.0392
     17 C           1.6498   -0.9647   -0.0891 C.ar    1  LIG1       -0.0128
     18 C           2.7786   -1.7201    0.2733 C.ar    1  LIG1        0.1617
     19 O           2.9265   -2.8451   -0.5007 O.3     1  LIG1       -0.4914
     20 C           4.0351   -3.6975   -0.2512 C.3     1  LIG1        0.0790
     21 C           3.5834   -1.2835    1.3334 C.ar    1  LIG1        0.1615
     22 O           4.6990   -2.0016    1.6716 O.3     1  LIG1       -0.4915
     23 C           5.0708   -1.9734    3.0438 C.3     1  LIG1        0.0790
     24 C           3.2592   -0.0847    1.9818 C.ar    1  LIG1       -0.0160
     25 C           2.1381    0.6577    1.6102 C.ar    1  LIG1       -0.0546
     26 C           0.0752    1.5167   -1.2507 C.3     1  LIG1        0.0912
     27 H           1.0549    1.6698   -1.7078 H       1  LIG1        0.0466
     28 C          -0.7981    2.7579   -1.3668 C.2     1  LIG1        0.2077
     29 O          -0.3281    3.8761   -1.1673 O.2     1  LIG1       -0.2881
     30 H          -3.7625    5.4488   -1.7437 H       1  LIG1        0.0660
     31 H          -2.0399    5.2676   -2.0534 H       1  LIG1        0.0660
     32 H          -2.7378    4.8261   -0.4424 H       1  LIG1        0.0660
     33 H          -3.8062    1.0697   -1.6337 H       1  LIG1        0.0619
     34 H          -1.6421   -2.0486   -1.0541 H       1  LIG1        0.0320
     35 H          -2.5948   -1.4285   -2.3780 H       1  LIG1        0.0320
     36 H          -3.6000   -1.7506    0.5416 H       1  LIG1        0.0567
     37 H          -4.9254   -2.1786   -2.1999 H       1  LIG1        0.0532
     38 H          -5.6442   -2.4574   -0.5166 H       1  LIG1        0.0532
     39 H          -3.0396    0.4567    1.6645 H       1  LIG1        0.0233
     40 H          -2.3517    2.0188    1.1869 H       1  LIG1        0.0233
     41 H          -1.5620    1.0537    2.4236 H       1  LIG1        0.0233
     42 H           1.0421   -1.3493   -0.9063 H       1  LIG1        0.0658
     43 H           3.9651   -4.1496    0.7434 H       1  LIG1        0.0660
     44 H           4.9841   -3.1732   -0.4021 H       1  LIG1        0.0660
     45 H           4.0040   -4.5143   -0.9790 H       1  LIG1        0.0660
     46 H           5.8260   -2.7496    3.1976 H       1  LIG1        0.0660
     47 H           4.2179   -2.1983    3.6934 H       1  LIG1        0.0660
     48 H           5.5275   -1.0147    3.3050 H       1  LIG1        0.0660
     49 H           3.8836    0.3115    2.7767 H       1  LIG1        0.0655
     50 H           1.9275    1.5817    2.1450 H       1  LIG1        0.0622
@<TRIPOS>BOND
     1     1     2    1
     2     2     3    1
     3     3     4    2
     4     4     5    1
     5     5     6    1
     6     6     7    1
     7     7     8    2
     8     5     9    1
     9     9    10    2
    10     5    11    1
    11    11    12    1
    12    11    13    1
    13    11    14    1
    14    14    15    1
    15    14    16    1
    16    16    17   ar
    17    17    18   ar
    18    18    19    1
    19    19    20    1
    20    18    21   ar
    21    21    22    1
    22    22    23    1
    23    21    24   ar
    24    24    25   ar
    25    16    25   ar
    26    14    26    1
    27    26    27    1
    28     9    26    1
    29    26    28    1
    30     3    28    1
    31    28    29    2
    32     1    30    1
    33     1    31    1
    34     1    32    1
    35     4    33    1
    36     6    34    1
    37     6    35    1
    38     7    36    1
    39     8    37    1
    40     8    38    1
    41    12    39    1
    42    12    40    1
    43    12    41    1
    44    17    42    1
    45    20    43    1
    46    20    44    1
    47    20    45    1
    48    23    46    1
    49    23    47    1
    50    23    48    1
    51    24    49    1
    52    25    50    1
