@<TRIPOS>MOLECULE
NuBBE_478
 37 37 0 0 0
SMALL
GASTEIGER

@<TRIPOS>ATOM
      1 O          -2.1150    0.6931    0.7451 O.2     1  LIG1       -0.2456
      2 C          -0.9093    0.7419    0.6463 C.2     1  LIG1        0.3320
      3 C          -0.1762    0.7275   -0.6305 C.2     1  LIG1        0.0231
      4 C          -0.8310    0.6633   -1.7986 C.2     1  LIG1       -0.0477
      5 C          -0.1202    0.6684   -3.0829 C.ar    1  LIG1       -0.0211
      6 C           1.1521    0.0860   -3.1971 C.ar    1  LIG1       -0.0094
      7 C           1.8285    0.1319   -4.4062 C.ar    1  LIG1        0.1588
      8 O           3.0819   -0.3963   -4.5440 O.3     1  LIG1       -0.5033
      9 C           1.2410    0.7297   -5.5143 C.ar    1  LIG1        0.1582
     10 C          -0.0298    1.2800   -5.4348 C.ar    1  LIG1       -0.0160
     11 C          -0.7160    1.2449   -4.2162 C.ar    1  LIG1       -0.0509
     12 O           1.9227    0.7779   -6.6951 O.3     1  LIG1       -0.5033
     13 O           0.0053    0.8173    1.6469 O.3     1  LIG1       -0.4613
     14 C          -0.5122    0.9551    2.9817 C.3     1  LIG1        0.0954
     15 C          -0.0829   -0.2293    3.8641 C.3     1  LIG1       -0.0074
     16 C          -0.5580   -1.5790    3.2838 C.3     1  LIG1       -0.0240
     17 C          -2.0790   -1.6891    3.1669 C.3     1  LIG1        0.0446
     18 O          -2.6902   -1.5489    4.4412 O.3     1  LIG1       -0.3950
     19 C           1.4381   -0.2342    4.0678 C.3     1  LIG1       -0.0593
     20 H           0.9014    0.7972   -0.5617 H       1  LIG1        0.0689
     21 H          -1.9200    0.6295   -1.8330 H       1  LIG1        0.0626
     22 H           1.6124   -0.3956   -2.3412 H       1  LIG1        0.0661
     23 H           3.3448   -0.7786   -3.6885 H       1  LIG1        0.2923
     24 H          -0.4782    1.7401   -6.3103 H       1  LIG1        0.0655
     25 H          -1.7079    1.6897   -4.1593 H       1  LIG1        0.0625
     26 H           2.7782    0.3459   -6.4985 H       1  LIG1        0.2923
     27 H          -1.6006    1.0654    2.9944 H       1  LIG1        0.0700
     28 H          -0.1029    1.8879    3.3836 H       1  LIG1        0.0700
     29 H          -0.5348   -0.0896    4.8548 H       1  LIG1        0.0332
     30 H          -0.1989   -2.3881    3.9324 H       1  LIG1        0.0291
     31 H          -0.1107   -1.7404    2.2960 H       1  LIG1        0.0291
     32 H          -2.3676   -2.6542    2.7391 H       1  LIG1        0.0557
     33 H          -2.4939   -0.9190    2.5178 H       1  LIG1        0.0557
     34 H          -2.4586   -2.3345    4.9635 H       1  LIG1        0.2094
     35 H           1.9768   -0.3573    3.1230 H       1  LIG1        0.0233
     36 H           1.7423   -1.0447    4.7397 H       1  LIG1        0.0233
     37 H           1.7685    0.7062    4.5244 H       1  LIG1        0.0233
@<TRIPOS>BOND
     1     1     2    2
     2     2     3    1
     3     3     4    2
     4     4     5    1
     5     5     6   ar
     6     6     7   ar
     7     7     8    1
     8     7     9   ar
     9     9    10   ar
    10    10    11   ar
    11     5    11   ar
    12     9    12    1
    13     2    13    1
    14    13    14    1
    15    14    15    1
    16    15    16    1
    17    16    17    1
    18    17    18    1
    19    15    19    1
    20     3    20    1
    21     4    21    1
    22     6    22    1
    23     8    23    1
    24    10    24    1
    25    11    25    1
    26    12    26    1
    27    14    27    1
    28    14    28    1
    29    15    29    1
    30    16    30    1
    31    16    31    1
    32    17    32    1
    33    17    33    1
    34    18    34    1
    35    19    35    1
    36    19    36    1
    37    19    37    1
