@<TRIPOS>MOLECULE
NuBBE_1435
 41 43 0 0 0
SMALL
GASTEIGER

@<TRIPOS>ATOM
      1 C          -3.5680    3.0623    1.1494 C.3     1  LIG1       -0.0440
      2 C          -2.2218    2.5690    1.6097 C.2     1  LIG1       -0.0793
      3 C          -2.0955    2.3937    3.1010 C.3     1  LIG1       -0.0440
      4 C          -1.2298    2.3323    0.7277 C.2     1  LIG1       -0.0808
      5 C           0.1632    1.8394    1.0475 C.3     1  LIG1       -0.0037
      6 C           0.7790    0.9616   -0.0408 C.ar    1  LIG1        0.0241
      7 C           1.5192    1.5550   -1.0892 C.ar    1  LIG1        0.1256
      8 O           1.6730    2.9165   -1.0492 O.3     1  LIG1       -0.4948
      9 C           1.7679    3.5807   -2.3057 C.3     1  LIG1        0.0788
     10 C           2.1150    0.7501   -2.0537 C.ar    1  LIG1       -0.0189
     11 C           1.9443   -0.6318   -2.0098 C.ar    1  LIG1       -0.0456
     12 C           1.1666   -1.2442   -1.0022 C.ar    1  LIG1        0.0434
     13 C           0.5920   -0.4293    0.0048 C.ar    1  LIG1        0.0853
     14 N          -0.1268   -0.9333    1.0146 N.ar    1  LIG1       -0.2115
     15 C          -0.3331   -2.2518    0.9964 C.ar    1  LIG1        0.2311
     16 O          -1.0750   -2.8775    1.9494 O.2     1  LIG1       -0.4449
     17 C          -1.1352   -4.1874    1.6151 C.ar    1  LIG1        0.0952
     18 C          -0.4334   -4.4185    0.4559 C.ar    1  LIG1       -0.0109
     19 C           0.1304   -3.1723    0.0596 C.ar    1  LIG1        0.0820
     20 C           0.9504   -2.6535   -0.9605 C.ar    1  LIG1        0.1416
     21 O           1.5069   -3.3998   -1.9952 O.3     1  LIG1       -0.4937
     22 C           1.8773   -4.7315   -1.6598 C.3     1  LIG1        0.0788
     23 H          -4.3460    2.3347    1.4008 H       1  LIG1        0.0274
     24 H          -3.5990    3.2301    0.0679 H       1  LIG1        0.0274
     25 H          -3.8123    4.0139    1.6343 H       1  LIG1        0.0274
     26 H          -2.6799    3.1535    3.6327 H       1  LIG1        0.0274
     27 H          -1.0642    2.4969    3.4503 H       1  LIG1        0.0274
     28 H          -2.4723    1.4098    3.3976 H       1  LIG1        0.0274
     29 H          -1.4291    2.4984   -0.3301 H       1  LIG1        0.0575
     30 H           0.1777    1.2950    1.9984 H       1  LIG1        0.0357
     31 H           0.8071    2.7100    1.2144 H       1  LIG1        0.0357
     32 H           1.7989    4.6573   -2.1090 H       1  LIG1        0.0660
     33 H           0.8883    3.3774   -2.9255 H       1  LIG1        0.0660
     34 H           2.6905    3.3250   -2.8348 H       1  LIG1        0.0660
     35 H           2.7435    1.1650   -2.8366 H       1  LIG1        0.0654
     36 H           2.4264   -1.2389   -2.7741 H       1  LIG1        0.0626
     37 H          -1.7113   -4.8112    2.2837 H       1  LIG1        0.1030
     38 H          -0.3537   -5.3790   -0.0301 H       1  LIG1        0.0657
     39 H           2.6233   -5.0683   -2.3862 H       1  LIG1        0.0660
     40 H           1.0162   -5.3988   -1.7541 H       1  LIG1        0.0660
     41 H           2.3294   -4.8008   -0.6642 H       1  LIG1        0.0660
@<TRIPOS>BOND
     1     1     2    1
     2     2     3    1
     3     2     4    2
     4     4     5    1
     5     5     6    1
     6     6     7   ar
     7     7     8    1
     8     8     9    1
     9     7    10   ar
    10    10    11   ar
    11    11    12   ar
    12    12    13   ar
    13     6    13   ar
    14    13    14   ar
    15    14    15   ar
    16    15    16   ar
    17    16    17   ar
    18    17    18   ar
    19    15    19   ar
    20    18    19   ar
    21    19    20   ar
    22    12    20   ar
    23    20    21    1
    24    21    22    1
    25     1    23    1
    26     1    24    1
    27     1    25    1
    28     3    26    1
    29     3    27    1
    30     3    28    1
    31     4    29    1
    32     5    30    1
    33     5    31    1
    34     9    32    1
    35     9    33    1
    36     9    34    1
    37    10    35    1
    38    11    36    1
    39    17    37    1
    40    18    38    1
    41    22    39    1
    42    22    40    1
    43    22    41    1
