@<TRIPOS>MOLECULE
NuBBE_220
 35 36 0 0 0
SMALL
GASTEIGER

@<TRIPOS>ATOM
      1 O          -4.3270   -0.5388   -0.5993 O.3     1  LIG1       -0.5065
      2 C          -2.9806   -0.3560   -0.4606 C.ar    1  LIG1        0.1204
      3 C          -2.1293   -1.4492   -0.3327 C.ar    1  LIG1       -0.0119
      4 C          -0.7325   -1.2911   -0.1872 C.ar    1  LIG1       -0.0112
      5 C          -0.1863    0.0279   -0.1636 C.ar    1  LIG1       -0.0137
      6 C           1.2283    0.1959   -0.0215 C.ar    1  LIG1       -0.0346
      7 C           1.8921    1.5799    0.0296 C.3     1  LIG1        0.0051
      8 C           1.9531    2.1162    1.4726 C.3     1  LIG1        0.0508
      9 O           2.7960    1.3276    2.3085 O.3     1  LIG1       -0.3944
     10 C           3.2781    1.6394   -0.6341 C.3     1  LIG1       -0.0563
     11 C           2.0400   -0.9441    0.1127 C.ar    1  LIG1       -0.0574
     12 C           1.5014   -2.2237    0.0873 C.ar    1  LIG1       -0.0580
     13 C           0.1263   -2.4135   -0.0642 C.ar    1  LIG1       -0.0426
     14 C          -0.3893   -3.8309   -0.0897 C.3     1  LIG1       -0.0391
     15 C          -1.0952    1.1122   -0.2881 C.ar    1  LIG1       -0.0474
     16 C          -2.4785    0.9367   -0.4484 C.ar    1  LIG1       -0.0084
     17 C          -3.3912    2.1184   -0.6029 C.3     1  LIG1       -0.0362
     18 H          -4.5224   -1.4882   -0.5639 H       1  LIG1        0.2921
     19 H          -2.5618   -2.4452   -0.3502 H       1  LIG1        0.0660
     20 H           1.2863    2.2753   -0.5608 H       1  LIG1        0.0369
     21 H           0.9597    2.1603    1.9315 H       1  LIG1        0.0563
     22 H           2.3610    3.1329    1.4741 H       1  LIG1        0.0563
     23 H           2.3439    0.4734    2.4325 H       1  LIG1        0.2094
     24 H           4.0425    1.0962   -0.0698 H       1  LIG1        0.0236
     25 H           3.6152    2.6794   -0.7100 H       1  LIG1        0.0236
     26 H           3.2439    1.2268   -1.6485 H       1  LIG1        0.0236
     27 H           3.1155   -0.8544    0.2472 H       1  LIG1        0.0621
     28 H           2.1710   -3.0756    0.1868 H       1  LIG1        0.0620
     29 H           0.4227   -4.5588    0.0145 H       1  LIG1        0.0278
     30 H          -0.8891   -4.0372   -1.0417 H       1  LIG1        0.0278
     31 H          -1.0843   -3.9988    0.7393 H       1  LIG1        0.0278
     32 H          -0.7320    2.1362   -0.2657 H       1  LIG1        0.0627
     33 H          -2.8329    3.0601   -0.6195 H       1  LIG1        0.0279
     34 H          -4.0995    2.1626    0.2305 H       1  LIG1        0.0279
     35 H          -3.9451    2.0480   -1.5451 H       1  LIG1        0.0279
@<TRIPOS>BOND
     1     1     2    1
     2     2     3   ar
     3     3     4   ar
     4     4     5   ar
     5     5     6   ar
     6     6     7    1
     7     7     8    1
     8     8     9    1
     9     7    10    1
    10     6    11   ar
    11    11    12   ar
    12    12    13   ar
    13     4    13   ar
    14    13    14    1
    15     5    15   ar
    16    15    16   ar
    17     2    16   ar
    18    16    17    1
    19     1    18    1
    20     3    19    1
    21     7    20    1
    22     8    21    1
    23     8    22    1
    24     9    23    1
    25    10    24    1
    26    10    25    1
    27    10    26    1
    28    11    27    1
    29    12    28    1
    30    14    29    1
    31    14    30    1
    32    14    31    1
    33    15    32    1
    34    17    33    1
    35    17    34    1
    36    17    35    1
