@<TRIPOS>MOLECULE
NuBBE_2104
 38 37 0 0 0
SMALL
GASTEIGER

@<TRIPOS>ATOM
      1 C          -3.7000   -0.4889    1.0490 C.3     1  LIG1       -0.0653
      2 C          -3.3516   -1.1041   -0.2968 C.3     1  LIG1       -0.0559
      3 C          -2.6977   -2.4883   -0.2188 C.3     1  LIG1       -0.0533
      4 C          -1.3559   -2.5911    0.5243 C.3     1  LIG1       -0.0531
      5 C          -0.2503   -1.7071   -0.0827 C.3     1  LIG1       -0.0531
      6 C           1.1271   -1.9578    0.5537 C.3     1  LIG1       -0.0531
      7 C           2.2689   -1.0972   -0.0458 C.3     1  LIG1       -0.0531
      8 C           2.0368    0.3854    0.2016 C.3     1  LIG1       -0.0531
      9 C           3.0522    1.3395   -0.4122 C.3     1  LIG1       -0.0531
     10 C           2.6825    2.8384   -0.2082 C.3     1  LIG1       -0.0533
     11 C           1.3817    3.3453   -0.8759 C.3     1  LIG1       -0.0559
     12 C           0.0810    2.7434   -0.3542 C.3     1  LIG1       -0.0653
     13 H          -4.3166    0.4047    0.8996 H       1  LIG1        0.0230
     14 H          -2.8018   -0.1838    1.5933 H       1  LIG1        0.0230
     15 H          -4.2691   -1.1856    1.6726 H       1  LIG1        0.0230
     16 H          -2.7151   -0.4121   -0.8598 H       1  LIG1        0.0263
     17 H          -4.2797   -1.2031   -0.8742 H       1  LIG1        0.0263
     18 H          -2.5550   -2.8484   -1.2449 H       1  LIG1        0.0265
     19 H          -3.4072   -3.1843    0.2498 H       1  LIG1        0.0265
     20 H          -1.0339   -3.6379    0.4866 H       1  LIG1        0.0265
     21 H          -1.4958   -2.3441    1.5819 H       1  LIG1        0.0265
     22 H          -0.5529   -0.6654    0.0511 H       1  LIG1        0.0265
     23 H          -0.1871   -1.8976   -1.1572 H       1  LIG1        0.0265
     24 H           1.3981   -3.0014    0.4381 H       1  LIG1        0.0265
     25 H           1.0677   -1.7571    1.6381 H       1  LIG1        0.0265
     26 H           2.3353   -1.2857   -1.1155 H       1  LIG1        0.0265
     27 H           3.2257   -1.4075    0.4050 H       1  LIG1        0.0265
     28 H           1.9403    0.5956    1.2670 H       1  LIG1        0.0265
     29 H           1.0874    0.5800   -0.2442 H       1  LIG1        0.0265
     30 H           3.1346    1.1619   -1.4976 H       1  LIG1        0.0265
     31 H           4.0397    1.1752    0.0123 H       1  LIG1        0.0265
     32 H           3.5005    3.4394   -0.6175 H       1  LIG1        0.0265
     33 H           2.6486    3.0563    0.8611 H       1  LIG1        0.0265
     34 H           1.4415    3.1929   -1.9562 H       1  LIG1        0.0263
     35 H           1.3271    4.4236   -0.7075 H       1  LIG1        0.0263
     36 H          -0.1424    1.7883   -0.8426 H       1  LIG1        0.0230
     37 H          -0.7728    3.3750   -0.6041 H       1  LIG1        0.0230
     38 H           0.1081    2.6036    0.7308 H       1  LIG1        0.0230
@<TRIPOS>BOND
     1     1     2    1
     2     2     3    1
     3     3     4    1
     4     4     5    1
     5     5     6    1
     6     6     7    1
     7     7     8    1
     8     8     9    1
     9     9    10    1
    10    10    11    1
    11    11    12    1
    12     1    13    1
    13     1    14    1
    14     1    15    1
    15     2    16    1
    16     2    17    1
    17     3    18    1
    18     3    19    1
    19     4    20    1
    20     4    21    1
    21     5    22    1
    22     5    23    1
    23     6    24    1
    24     6    25    1
    25     7    26    1
    26     7    27    1
    27     8    28    1
    28     8    29    1
    29     9    30    1
    30     9    31    1
    31    10    32    1
    32    10    33    1
    33    11    34    1
    34    11    35    1
    35    12    36    1
    36    12    37    1
    37    12    38    1
