@<TRIPOS>MOLECULE
NuBBE_195
 17 17 0 0 0
SMALL
GASTEIGER

@<TRIPOS>ATOM
      1 O          -2.1146   -2.4055    0.1920 O.3     1  LIG1       -0.4771
      2 C          -0.8127   -2.3565    0.5441 C.2     1  LIG1        0.3369
      3 C          -0.1830   -1.0642    0.2003 C.ar    1  LIG1        0.0625
      4 C          -0.8083    0.1463    0.5340 C.ar    1  LIG1       -0.0026
      5 C          -0.1784    1.3364    0.1917 C.ar    1  LIG1        0.1590
      6 O          -0.7232    2.5553    0.4865 O.3     1  LIG1       -0.5033
      7 C           1.0504    1.3221   -0.4684 C.ar    1  LIG1        0.1583
      8 O           1.6564    2.4978   -0.8052 O.3     1  LIG1       -0.5033
      9 C           1.6809    0.1257   -0.7824 C.ar    1  LIG1       -0.0158
     10 C           1.0645   -1.0779   -0.4388 C.ar    1  LIG1       -0.0441
     11 O          -0.2085   -3.2808    1.0553 O.2     1  LIG1       -0.2451
     12 H          -2.4068   -1.6729   -0.3826 H       1  LIG1        0.2954
     13 H          -1.7519    0.1466    1.0702 H       1  LIG1        0.0663
     14 H          -1.5173    2.4240    1.0331 H       1  LIG1        0.2923
     15 H           1.0537    3.1952   -0.4786 H       1  LIG1        0.2923
     16 H           2.6450    0.1313   -1.2830 H       1  LIG1        0.0655
     17 H           1.5539   -2.0227   -0.6684 H       1  LIG1        0.0627
@<TRIPOS>BOND
     1     1     2    1
     2     2     3    1
     3     3     4   ar
     4     4     5   ar
     5     5     6    1
     6     5     7   ar
     7     7     8    1
     8     7     9   ar
     9     9    10   ar
    10     3    10   ar
    11     2    11    2
    12     1    12    1
    13     4    13    1
    14     6    14    1
    15     8    15    1
    16     9    16    1
    17    10    17    1
