@<TRIPOS>MOLECULE
NuBBE_1672
 44 47 0 0 0
SMALL
GASTEIGER

@<TRIPOS>ATOM
      1 O          -2.9139    1.3320    0.8565 O.3     1  LIG1       -0.4914
      2 C          -3.5600    0.0677    0.8572 C.3     1  LIG1        0.0790
      3 C          -1.5549    1.3326    0.9762 C.ar    1  LIG1        0.1624
      4 C          -0.6939    0.2547    1.0762 C.ar    1  LIG1        0.1664
      5 C           0.6805    0.4322    1.2126 C.ar    1  LIG1        0.0052
      6 C           1.3500   -0.8922    1.3476 C.3     1  LIG1        0.0262
      7 H           2.2210   -0.9875    0.6914 H       1  LIG1        0.0387
      8 C           0.1801   -1.8113    0.9170 C.3     1  LIG1        0.1321
      9 H           0.1236   -2.6715    1.5976 H       1  LIG1        0.0790
     10 O          -1.0573   -1.0701    1.0657 O.3     1  LIG1       -0.4797
     11 C           0.2331   -2.3541   -0.5078 C.ar    1  LIG1       -0.0031
     12 C          -0.3896   -3.5839   -0.7988 C.ar    1  LIG1       -0.0095
     13 C          -0.3553   -4.0470   -2.0994 C.ar    1  LIG1        0.1666
     14 C           0.2628   -3.3423   -3.1037 C.ar    1  LIG1        0.1662
     15 C           0.8737   -2.1335   -2.8681 C.ar    1  LIG1       -0.0158
     16 C           0.8452   -1.6341   -1.5631 C.ar    1  LIG1       -0.0514
     17 O           0.1814   -3.9662   -4.3082 O.3     1  LIG1       -0.4526
     18 C          -0.5790   -5.1381   -3.9525 C.3     1  LIG1        0.2332
     19 O          -0.9068   -5.2070   -2.5481 O.3     1  LIG1       -0.4526
     20 C           1.7893   -1.1507    2.7859 C.3     1  LIG1       -0.0546
     21 C           1.2464    1.6995    1.2229 C.ar    1  LIG1       -0.0473
     22 C           0.4080    2.8111    1.0852 C.ar    1  LIG1       -0.0214
     23 C          -0.9847    2.6125    0.9863 C.ar    1  LIG1       -0.0091
     24 C           0.9869    4.1625    1.0904 C.2     1  LIG1       -0.0587
     25 C           0.4409    5.1960    0.4338 C.2     1  LIG1       -0.0865
     26 C           0.9957    6.5835    0.4143 C.3     1  LIG1       -0.0465
     27 H          -4.6364    0.2461    0.7764 H       1  LIG1        0.0660
     28 H          -3.3873   -0.4631    1.7988 H       1  LIG1        0.0660
     29 H          -3.2609   -0.5285   -0.0105 H       1  LIG1        0.0660
     30 H          -0.8980   -4.1592   -0.0313 H       1  LIG1        0.0659
     31 H           1.3496   -1.5801   -3.6692 H       1  LIG1        0.0655
     32 H           1.2983   -0.6617   -1.3839 H       1  LIG1        0.0623
     33 H           0.0036   -6.0265   -4.2217 H       1  LIG1        0.1166
     34 H          -1.5098   -5.1395   -4.5318 H       1  LIG1        0.1166
     35 H           2.5758   -0.4482    3.0828 H       1  LIG1        0.0237
     36 H           2.1897   -2.1650    2.8861 H       1  LIG1        0.0237
     37 H           0.9610   -1.0404    3.4947 H       1  LIG1        0.0237
     38 H           2.3234    1.8187    1.3186 H       1  LIG1        0.0627
     39 H          -1.6559    3.4652    0.9177 H       1  LIG1        0.0661
     40 H           1.9094    4.2964    1.6536 H       1  LIG1        0.0620
     41 H          -0.4698    5.0647   -0.1525 H       1  LIG1        0.0569
     42 H           1.9144    6.6683    0.9995 H       1  LIG1        0.0272
     43 H           0.2582    7.2815    0.8227 H       1  LIG1        0.0272
     44 H           1.2114    6.8766   -0.6171 H       1  LIG1        0.0272
@<TRIPOS>BOND
     1     1     2    1
     2     1     3    1
     3     3     4   ar
     4     4     5   ar
     5     5     6    1
     6     6     7    1
     7     6     8    1
     8     8    10    1
     9     4    10    1
    10    11    12   ar
    11    12    13   ar
    12    13    14   ar
    13    14    15   ar
    14    15    16   ar
    15    11    16   ar
    16    14    17    1
    17    17    18    1
    18    18    19    1
    19    13    19    1
    20     6    20    1
    21     5    21   ar
    22    21    22   ar
    23    22    23   ar
    24     3    23   ar
    25    22    24    1
    26    24    25    2
    27    25    26    1
    28     8    11    1
    29     8     9    1
    30     2    27    1
    31     2    28    1
    32     2    29    1
    33    12    30    1
    34    15    31    1
    35    16    32    1
    36    18    33    1
    37    18    34    1
    38    20    35    1
    39    20    36    1
    40    20    37    1
    41    21    38    1
    42    23    39    1
    43    24    40    1
    44    25    41    1
    45    26    42    1
    46    26    43    1
    47    26    44    1
