@<TRIPOS>MOLECULE
NuBBE_1813
 47 48 0 0 0
SMALL
GASTEIGER

@<TRIPOS>ATOM
      1 C          -1.1607    5.4703   -2.2802 C.3     1  LIG1       -0.0440
      2 C          -0.9775    5.0479   -0.8435 C.2     1  LIG1       -0.0793
      3 C          -0.5373    6.1570    0.0684 C.3     1  LIG1       -0.0440
      4 C          -1.2037    3.7691   -0.4760 C.2     1  LIG1       -0.0807
      5 C          -1.0297    3.1176    0.8826 C.3     1  LIG1       -0.0023
      6 C          -0.6763    1.6268    0.8124 C.ar    1  LIG1        0.0396
      7 C           0.5490    1.1318    1.3226 C.ar    1  LIG1        0.1276
      8 O           1.4170    2.0201    1.9147 O.3     1  LIG1       -0.4947
      9 C           2.6568    1.4772    2.3754 C.3     1  LIG1        0.0788
     10 C           0.8395   -0.2393    1.2295 C.ar    1  LIG1       -0.0123
     11 C          -0.0536   -1.1207    0.6384 C.ar    1  LIG1       -0.0181
     12 C           0.2725   -2.5463    0.5753 C.2     1  LIG1       -0.0538
     13 C           0.9562   -3.0758   -0.4391 C.2     1  LIG1       -0.0540
     14 C           1.3174   -4.5007   -0.5015 C.ar    1  LIG1       -0.0250
     15 C           1.4239   -5.1349   -1.7480 C.ar    1  LIG1       -0.0546
     16 C           1.7685   -6.4850   -1.8258 C.ar    1  LIG1       -0.0612
     17 C           2.0203   -7.2124   -0.6638 C.ar    1  LIG1       -0.0617
     18 C           1.9440   -6.5907    0.5764 C.ar    1  LIG1       -0.0612
     19 C           1.5997   -5.2362    0.6565 C.ar    1  LIG1       -0.0546
     20 C          -1.2579   -0.6544    0.1380 C.ar    1  LIG1       -0.0123
     21 C          -1.5949    0.7022    0.2475 C.ar    1  LIG1        0.1276
     22 O          -2.8108    1.1940   -0.1670 O.3     1  LIG1       -0.4947
     23 C          -3.7612    0.2446   -0.6438 C.3     1  LIG1        0.0788
     24 H          -1.9791    6.1920   -2.3714 H       1  LIG1        0.0274
     25 H          -1.3841    4.6238   -2.9383 H       1  LIG1        0.0274
     26 H          -0.2425    5.9378   -2.6517 H       1  LIG1        0.0274
     27 H          -1.2248    7.0073   -0.0143 H       1  LIG1        0.0274
     28 H           0.4617    6.5012   -0.2188 H       1  LIG1        0.0274
     29 H          -0.5096    5.8654    1.1205 H       1  LIG1        0.0274
     30 H          -1.5664    3.0959   -1.2512 H       1  LIG1        0.0575
     31 H          -1.9653    3.2163    1.4488 H       1  LIG1        0.0358
     32 H          -0.2710    3.6594    1.4565 H       1  LIG1        0.0358
     33 H           3.2589    2.2829    2.8023 H       1  LIG1        0.0660
     34 H           3.2269    1.0427    1.5452 H       1  LIG1        0.0660
     35 H           2.4938    0.7357    3.1676 H       1  LIG1        0.0660
     36 H           1.7590   -0.6577    1.6220 H       1  LIG1        0.0660
     37 H          -0.0772   -3.1326    1.4237 H       1  LIG1        0.0624
     38 H           1.2697   -2.4580   -1.2856 H       1  LIG1        0.0624
     39 H           1.2309   -4.5830   -2.6654 H       1  LIG1        0.0623
     40 H           1.8364   -6.9714   -2.7954 H       1  LIG1        0.0618
     41 H           2.2848   -8.2653   -0.7260 H       1  LIG1        0.0618
     42 H           2.1493   -7.1465    1.4856 H       1  LIG1        0.0618
     43 H           1.5642   -4.7701    1.6363 H       1  LIG1        0.0623
     44 H          -1.9241   -1.3749   -0.3234 H       1  LIG1        0.0660
     45 H          -4.7092    0.7620   -0.8121 H       1  LIG1        0.0660
     46 H          -3.9467   -0.5424    0.0962 H       1  LIG1        0.0660
     47 H          -3.4370   -0.1827   -1.5997 H       1  LIG1        0.0660
@<TRIPOS>BOND
     1     1     2    1
     2     2     3    1
     3     2     4    2
     4     4     5    1
     5     5     6    1
     6     6     7   ar
     7     7     8    1
     8     8     9    1
     9     7    10   ar
    10    10    11   ar
    11    11    12    1
    12    12    13    2
    13    13    14    1
    14    14    15   ar
    15    15    16   ar
    16    16    17   ar
    17    17    18   ar
    18    18    19   ar
    19    14    19   ar
    20    11    20   ar
    21    20    21   ar
    22     6    21   ar
    23    21    22    1
    24    22    23    1
    25     1    24    1
    26     1    25    1
    27     1    26    1
    28     3    27    1
    29     3    28    1
    30     3    29    1
    31     4    30    1
    32     5    31    1
    33     5    32    1
    34     9    33    1
    35     9    34    1
    36     9    35    1
    37    10    36    1
    38    12    37    1
    39    13    38    1
    40    15    39    1
    41    16    40    1
    42    17    41    1
    43    18    42    1
    44    19    43    1
    45    20    44    1
    46    23    45    1
    47    23    46    1
    48    23    47    1
