@<TRIPOS>MOLECULE
NuBBE_515
 29 29 0 0 0
SMALL
GASTEIGER

@<TRIPOS>ATOM
      1 C          -0.5321    1.2231    4.0716 C.3     1  LIG1        0.0788
      2 O          -0.6661    2.1010    2.9591 O.3     1  LIG1       -0.4951
      3 C          -0.2672    1.6080    1.7492 C.ar    1  LIG1        0.1207
      4 C           0.0701    2.5501    0.7902 C.ar    1  LIG1       -0.0165
      5 C           0.4824    2.1564   -0.4857 C.ar    1  LIG1       -0.0161
      6 C           0.5275    0.7950   -0.8273 C.ar    1  LIG1        0.1260
      7 O           0.9362    0.3271   -2.0490 O.3     1  LIG1       -0.4947
      8 C           1.2713    1.2860   -3.0458 C.3     1  LIG1        0.0788
      9 C           0.1487   -0.1721    0.1196 C.ar    1  LIG1        0.0271
     10 C           0.1576   -1.6609   -0.2109 C.3     1  LIG1        0.0959
     11 O          -0.2194   -2.4501    0.9346 O.3     1  LIG1       -0.3858
     12 C          -0.7988   -2.0532   -1.3664 C.3     1  LIG1        0.0236
     13 N          -0.7656   -3.5140   -1.5968 N.3     1  LIG1       -0.3274
     14 C          -0.2263    0.2533    1.4121 C.ar    1  LIG1       -0.0108
     15 H          -0.8942    1.7462    4.9588 H       1  LIG1        0.0660
     16 H           0.5210    0.9667    4.2313 H       1  LIG1        0.0660
     17 H          -1.1439    0.3199    3.9635 H       1  LIG1        0.0660
     18 H           0.0292    3.6100    1.0394 H       1  LIG1        0.0655
     19 H           0.7625    2.9328   -1.1838 H       1  LIG1        0.0655
     20 H           1.5481    0.7426   -3.9539 H       1  LIG1        0.0660
     21 H           2.1359    1.8839   -2.7399 H       1  LIG1        0.0660
     22 H           0.4134    1.9227   -3.2896 H       1  LIG1        0.0660
     23 H           1.1862   -1.9546   -0.4508 H       1  LIG1        0.0657
     24 H          -0.5335   -3.2955    0.5514 H       1  LIG1        0.2103
     25 H          -0.5539   -1.5474   -2.3029 H       1  LIG1        0.0451
     26 H          -1.8283   -1.7862   -1.1009 H       1  LIG1        0.0451
     27 H           0.1539   -3.7582   -1.9712 H       1  LIG1        0.1183
     28 H          -1.4238   -3.7315   -2.3471 H       1  LIG1        0.1183
     29 H          -0.4910   -0.5010    2.1413 H       1  LIG1        0.0659
@<TRIPOS>BOND
     1     1     2    1
     2     2     3    1
     3     3     4   ar
     4     4     5   ar
     5     5     6   ar
     6     6     7    1
     7     7     8    1
     8     6     9   ar
     9     9    10    1
    10    10    11    1
    11    10    12    1
    12    12    13    1
    13     9    14   ar
    14     3    14   ar
    15     1    15    1
    16     1    16    1
    17     1    17    1
    18     4    18    1
    19     5    19    1
    20     8    20    1
    21     8    21    1
    22     8    22    1
    23    10    23    1
    24    11    24    1
    25    12    25    1
    26    12    26    1
    27    13    27    1
    28    13    28    1
    29    14    29    1
