REMARK  Name = NuBBE_1348
REMARK  12 active torsions:
REMARK  status: ('A' for Active; 'I' for Inactive)
REMARK    1  A    between atoms: C_1  and  C_2
REMARK    2  A    between atoms: C_2  and  C_41
REMARK    3  A    between atoms: C_3  and  O_4
REMARK    4  A    between atoms: O_4  and  C_5
REMARK    5  A    between atoms: C_5  and  C_6
REMARK    6  A    between atoms: C_6  and  C_7
REMARK    7  A    between atoms: C_16  and  C_39
REMARK    8  A    between atoms: C_20  and  C_38
REMARK    9  A    between atoms: C_25  and  C_37
REMARK   10  A    between atoms: C_28  and  C_36
REMARK   11  A    between atoms: C_31  and  C_32
REMARK   12  A    between atoms: C_31  and  C_35
REMARK                            x       y       z     vdW  Elec       q    Type
REMARK                         _______ _______ _______ _____ _____    ______ ____
ROOT
ATOM      1  C   LIG A   1      -4.180  -2.056  -0.986  0.00  0.00    +0.015 C 
ATOM      2  C   LIG A   1      -3.008  -2.324  -0.009  0.00  0.00    +0.005 C 
ATOM      3  C   LIG A   1      -2.349  -3.694  -0.393  0.00  0.00    +0.182 C 
ATOM      4  C   LIG A   1      -1.294  -4.029   0.681  0.00  0.00    +0.046 C 
ATOM      5  C   LIG A   1      -0.198  -2.975   0.886  0.00  0.00    +0.011 C 
ATOM      6  C   LIG A   1      -0.559  -1.458   0.698  0.00  0.00    -0.025 C 
ATOM      7  C   LIG A   1      -1.860  -1.259  -0.150  0.00  0.00    +0.004 C 
ATOM      8  C   LIG A   1      -2.265   0.195  -0.057  0.00  0.00    +0.005 C 
ATOM      9  C   LIG A   1      -1.213   1.082  -0.732  0.00  0.00    +0.008 C 
ATOM     10  C   LIG A   1       0.318   0.667  -0.823  0.00  0.00    -0.019 C 
ATOM     11  C   LIG A   1       0.625  -0.748  -0.130  0.00  0.00    +0.006 C 
ATOM     12  C   LIG A   1       1.978  -0.780   0.606  0.00  0.00    +0.031 C 
ATOM     13  C   LIG A   1       2.250   0.452   1.403  0.00  0.00    -0.026 C 
ATOM     14  C   LIG A   1       1.911   1.688   0.994  0.00  0.00    -0.063 C 
ATOM     15  C   LIG A   1       1.381   1.854  -0.429  0.00  0.00    -0.005 C 
ATOM     16  C   LIG A   1       0.796   3.285  -0.654  0.00  0.00    +0.012 C 
ATOM     17  C   LIG A   1       0.097   3.863   0.570  0.00  0.00    +0.008 C 
ATOM     18  C   LIG A   1       1.026   3.969   1.797  0.00  0.00    -0.025 C 
ATOM     19  C   LIG A   1       2.244   2.994   1.715  0.00  0.00    +0.022 C 
ATOM     20  C   LIG A   1       2.994   2.876   3.061  0.00  0.00    +0.014 C 
ATOM     21  C   LIG A   1       2.134   2.691   4.334  0.00  0.00    -0.034 C 
ATOM     22  C   LIG A   1       1.607   1.255   4.502  0.00  0.00    +0.011 C 
ATOM     23  C   LIG A   1       0.954   3.679   4.342  0.00  0.00    +0.007 C 
ATOM     24  C   LIG A   1       0.162   3.668   3.043  0.00  0.00    +0.008 C 
ATOM     25  C   LIG A   1       3.035   2.981   5.548  0.00  0.00    +0.011 C 
ATOM     26  C   LIG A   1       1.534   5.429   1.828  0.00  0.00    +0.012 C 
ATOM     27  C   LIG A   1       2.692   1.838  -1.315  0.00  0.00    +0.016 C 
ATOM     28  C   LIG A   1       0.553   0.460  -2.360  0.00  0.00    +0.012 C 
ATOM     29  C   LIG A   1      -0.666  -0.814   2.111  0.00  0.00    +0.012 C 
ATOM     30  C   LIG A   1      -3.704  -2.338   1.370  0.00  0.00    +0.015 C 
ENDROOT
BRANCH   3  31
ATOM     31  O   LIG A   1      -1.660  -3.562  -1.713  0.00  0.00    -0.461 OA
BRANCH  31  32
ATOM     32  C   LIG A   1      -2.412  -3.606  -2.872  0.00  0.00    +0.312 C 
ATOM     33  O   LIG A   1      -3.508  -4.075  -2.992  0.00  0.00    -0.251 OA
BRANCH  32  34
ATOM     34  C   LIG A   1      -1.727  -2.734  -3.951  0.00  0.00    +0.155 C 
BRANCH  34  35
ATOM     35  C   LIG A   1      -1.049  -3.454  -5.088  0.00  0.00    -0.037 A 
ATOM     36  C   LIG A   1       0.286  -3.849  -4.933  0.00  0.00    +0.004 A 
ATOM     37  C   LIG A   1       1.012  -4.369  -6.006  0.00  0.00    +0.000 A 
ATOM     38  C   LIG A   1       0.436  -4.436  -7.271  0.00  0.00    +0.000 A 
ATOM     39  C   LIG A   1      -0.896  -4.065  -7.442  0.00  0.00    +0.000 A 
ATOM     40  C   LIG A   1      -1.653  -3.620  -6.348  0.00  0.00    +0.004 A 
ENDBRANCH  34  35
ENDBRANCH  32  34
ENDBRANCH  31  32
ENDBRANCH   3  31
TORSDOF 4
