@<TRIPOS>MOLECULE
NuBBE_675
 71 74 0 0 0
SMALL
GASTEIGER

@<TRIPOS>ATOM
      1 C          -0.4201   -0.9179    3.4543 C.3     1  LIG1       -0.0270
      2 C          -1.6851   -0.8337    2.5816 C.3     1  LIG1        0.1099
      3 H          -2.0616    0.1840    2.7130 H       1  LIG1        0.0738
      4 O          -2.6613   -1.6868    3.2244 O.3     1  LIG1       -0.4589
      5 C          -3.8820   -1.9265    2.6648 C.2     1  LIG1        0.3411
      6 C          -4.9661   -2.0850    3.7424 C.3     1  LIG1        0.1795
      7 H          -5.9211   -2.1219    3.1963 H       1  LIG1        0.0764
      8 O          -5.0055   -0.9798    4.6517 O.3     1  LIG1       -0.3639
      9 C          -5.2870    0.2697    4.0256 C.3     1  LIG1        0.0380
     10 C          -4.8496   -3.3685    4.5556 C.ar    1  LIG1       -0.0082
     11 C          -3.6196   -3.9073    4.9700 C.ar    1  LIG1       -0.0556
     12 C          -3.5610   -5.0967    5.6984 C.ar    1  LIG1       -0.0614
     13 C          -4.7329   -5.7624    6.0391 C.ar    1  LIG1       -0.0617
     14 C          -5.9644   -5.2266    5.6723 C.ar    1  LIG1       -0.0614
     15 C          -6.0233   -4.0341    4.9472 C.ar    1  LIG1       -0.0556
     16 O          -4.1374   -1.9039    1.4667 O.2     1  LIG1       -0.2475
     17 C          -1.4422   -1.1270    1.0870 C.3     1  LIG1        0.0563
     18 H          -2.3723   -1.0585    0.5213 H       1  LIG1        0.0414
     19 C          -0.9336   -2.5558    0.8502 C.3     1  LIG1       -0.0519
     20 C          -0.5274   -0.0861    0.4332 C.2     1  LIG1        0.1767
     21 C          -1.0866    1.2120   -0.0470 C.2     1  LIG1        0.1094
     22 C          -0.5715    2.0596   -0.9454 C.2     1  LIG1        0.0284
     23 C           0.5668    2.0466   -1.8359 C.2     1  LIG1        0.0266
     24 C           1.8240    1.7911   -1.4333 C.2     1  LIG1        0.1006
     25 O           2.9363    1.8343   -2.2535 O.2     1  LIG1       -0.4629
     26 C           2.7559    2.0460   -3.6182 C.2     1  LIG1        0.1279
     27 C           3.9561    1.9162   -4.4222 C.2     1  LIG1       -0.0230
     28 C           5.2043    2.1586   -3.9812 C.2     1  LIG1       -0.0777
     29 C           6.4418    2.0999   -4.8543 C.3     1  LIG1       -0.0256
     30 H           6.1404    1.8519   -5.8804 H       1  LIG1        0.0340
     31 C           7.0963    3.4850   -4.8806 C.3     1  LIG1       -0.0590
     32 C           7.4330    1.0187   -4.3773 C.3     1  LIG1       -0.0499
     33 C           8.6859    0.9407   -5.2477 C.3     1  LIG1       -0.0648
     34 C           1.5487    2.3249   -4.1462 C.2     1  LIG1       -0.0100
     35 C           0.4001    2.4725   -3.2518 C.2     1  LIG1        0.0108
     36 C          -0.7946    2.9604   -3.6609 C.2     1  LIG1        0.0953
     37 CL         -1.1619    3.4309   -5.2829 Cl      1  LIG1       -0.0792
     38 C          -1.4666    3.2116   -1.1885 C.3     1  LIG1        0.1927
     39 O          -2.5243    3.0255   -0.2746 O.3     1  LIG1       -0.4448
     40 C          -2.3966    1.7935    0.2737 C.2     1  LIG1        0.3440
     41 O          -3.2722    1.2678    0.9558 O.2     1  LIG1       -0.2448
     42 C          -1.8966    3.1706   -2.6575 C.2     1  LIG1        0.2197
     43 O          -3.0669    3.3253   -3.0026 O.2     1  LIG1       -0.2868
     44 O           0.6704   -0.3197    0.2919 O.2     1  LIG1       -0.2914
     45 H          -0.6539   -0.6488    4.4927 H       1  LIG1        0.0265
     46 H           0.3623   -0.2392    3.1033 H       1  LIG1        0.0265
     47 H          -0.0123   -1.9333    3.5034 H       1  LIG1        0.0265
     48 H          -6.3626    0.3871    3.8647 H       1  LIG1        0.0524
     49 H          -4.7584    0.4003    3.0771 H       1  LIG1        0.0524
     50 H          -4.9489    1.0586    4.7029 H       1  LIG1        0.0524
     51 H          -2.6773   -3.4191    4.7410 H       1  LIG1        0.0621
     52 H          -2.5963   -5.4983    5.9980 H       1  LIG1        0.0618
     53 H          -4.6857   -6.6928    6.5975 H       1  LIG1        0.0618
     54 H          -6.8823   -5.7368    5.9506 H       1  LIG1        0.0618
     55 H          -6.9974   -3.6243    4.6879 H       1  LIG1        0.0621
     56 H          -0.6315   -2.6952   -0.1928 H       1  LIG1        0.0238
     57 H          -1.7136   -3.2930    1.0709 H       1  LIG1        0.0238
     58 H          -0.0654   -2.7966    1.4705 H       1  LIG1        0.0238
     59 H           2.1263    1.5348   -0.4264 H       1  LIG1        0.1036
     60 H           3.8028    1.6277   -5.4601 H       1  LIG1        0.0651
     61 H           5.3561    2.4838   -2.9523 H       1  LIG1        0.0576
     62 H           6.3803    4.2561   -5.1827 H       1  LIG1        0.0235
     63 H           7.9212    3.5184   -5.5989 H       1  LIG1        0.0235
     64 H           7.4957    3.7570   -3.8965 H       1  LIG1        0.0235
     65 H           6.9407    0.0378   -4.3872 H       1  LIG1        0.0268
     66 H           7.7378    1.2067   -3.3401 H       1  LIG1        0.0268
     67 H           8.4276    0.8124   -6.3041 H       1  LIG1        0.0230
     68 H           9.3141    0.0978   -4.9446 H       1  LIG1        0.0230
     69 H           9.2946    1.8453   -5.1512 H       1  LIG1        0.0230
     70 H           1.4285    2.4842   -5.2128 H       1  LIG1        0.0661
     71 H          -0.9710    4.1702   -0.9855 H       1  LIG1        0.0871
@<TRIPOS>BOND
     1     2     4    1
     2     4     5    1
     3     6     8    1
     4     8     9    1
     5     6    10    1
     6    10    11   ar
     7    11    12   ar
     8    12    13   ar
     9    13    14   ar
    10    14    15   ar
    11    10    15   ar
    12     5    16    2
    13    17    19    1
    14    17    20    1
    15    20    21    1
    16    21    22    2
    17    22    23    1
    18    23    24    2
    19    24    25    1
    20    25    26    1
    21    26    27    1
    22    27    28    2
    23    28    29    1
    24    29    30    1
    25    29    31    1
    26    29    32    1
    27    32    33    1
    28    26    34    2
    29    34    35    1
    30    23    35    1
    31    35    36    2
    32    36    37    1
    33    22    38    1
    34    38    39    1
    35    39    40    1
    36    21    40    1
    37    40    41    2
    38    38    42    1
    39    36    42    1
    40    42    43    2
    41    20    44    2
    42     6     7    1
    43     6     5    1
    44     2     3    1
    45     2     1    1
    46    17    18    1
    47    17     2    1
    48     1    45    1
    49     1    46    1
    50     1    47    1
    51     9    48    1
    52     9    49    1
    53     9    50    1
    54    11    51    1
    55    12    52    1
    56    13    53    1
    57    14    54    1
    58    15    55    1
    59    19    56    1
    60    19    57    1
    61    19    58    1
    62    24    59    1
    63    27    60    1
    64    28    61    1
    65    31    62    1
    66    31    63    1
    67    31    64    1
    68    32    65    1
    69    32    66    1
    70    33    67    1
    71    33    68    1
    72    33    69    1
    73    34    70    1
    74    38    71    1
