REMARK  Name = NuBBE_1599
REMARK  3 active torsions:
REMARK  status: ('A' for Active; 'I' for Inactive)
REMARK    1  A    between atoms: C_1  and  C_2
REMARK    2  A    between atoms: C_1  and  C_12
REMARK    3  A    between atoms: C_2  and  C_3
REMARK                            x       y       z     vdW  Elec       q    Type
REMARK                         _______ _______ _______ _____ _____    ______ ____
ROOT
ATOM      1  C   LIG A   1      -1.752   1.316  -1.090  0.00  0.00    +0.060 C 
ENDROOT
BRANCH   1   2
ATOM      2  C   LIG A   1      -0.253   1.405  -0.935  0.00  0.00    +0.042 A 
ATOM      3  N   LIG A   1       0.492   1.484  -2.065  0.00  0.00    -0.252 NA
ATOM      4  C   LIG A   1       1.832   1.575  -1.954  0.00  0.00    +0.071 A 
ATOM      5  C   LIG A   1       2.487   1.581  -0.702  0.00  0.00    +0.000 A 
ATOM      6  C   LIG A   1       1.700   1.494   0.447  0.00  0.00    +0.012 A 
ATOM      7  C   LIG A   1       0.320   1.405   0.335  0.00  0.00    +0.024 A 
ATOM      8  C   LIG A   1       3.889   1.667  -0.626  0.00  0.00    +0.010 A 
ATOM      9  C   LIG A   1       4.652   1.750  -1.787  0.00  0.00    +0.001 A 
ATOM     10  C   LIG A   1       4.016   1.750  -3.022  0.00  0.00    +0.002 A 
ATOM     11  C   LIG A   1       2.621   1.664  -3.093  0.00  0.00    +0.028 A 
ENDBRANCH   1   2
BRANCH   1  12
ATOM     12  C   LIG A   1      -2.309  -0.109  -1.218  0.00  0.00    +0.041 C 
BRANCH  12  13
ATOM     13  C   LIG A   1      -2.049  -0.986  -0.013  0.00  0.00    -0.043 A 
ATOM     14  C   LIG A   1      -2.955  -1.021   1.058  0.00  0.00    +0.053 A 
ATOM     15  C   LIG A   1      -2.630  -1.792   2.156  0.00  0.00    +0.167 A 
ATOM     16  C   LIG A   1      -1.453  -2.500   2.225  0.00  0.00    +0.166 A 
ATOM     17  C   LIG A   1      -0.543  -2.494   1.194  0.00  0.00    +0.050 A 
ATOM     18  C   LIG A   1      -0.854  -1.742   0.059  0.00  0.00    +0.007 A 
ATOM     19  O   LIG A   1      -1.318  -3.173   3.399  0.00  0.00    -0.453 OA
ATOM     20  C   LIG A   1      -2.559  -2.833   4.050  0.00  0.00    +0.466 C 
ATOM     21  O   LIG A   1      -3.390  -1.943   3.275  0.00  0.00    -0.453 OA
ENDBRANCH  12  13
ENDBRANCH   1  12
TORSDOF 3
