@<TRIPOS>MOLECULE
NuBBE_1232
 78 82 0 0 0
SMALL
GASTEIGER

@<TRIPOS>ATOM
      1 C          -4.6567   -0.4255   -3.8394 C.3     1  LIG1       -0.0598
      2 C          -3.2082   -0.6035   -4.3364 C.3     1  LIG1       -0.0343
      3 C          -2.7177    0.6753   -5.0406 C.3     1  LIG1       -0.0468
      4 C          -2.4498    1.8301   -4.0760 C.3     1  LIG1       -0.0362
      5 C          -1.4327    1.4601   -2.9689 C.3     1  LIG1        0.0741
      6 C          -0.0495    1.2144   -3.6118 C.2     1  LIG1        0.3115
      7 O           0.4559    2.2766   -4.2827 O.3     1  LIG1       -0.4802
      8 O           0.5813    0.1718   -3.5439 O.2     1  LIG1       -0.2504
      9 C          -1.3308    2.6310   -1.9660 C.3     1  LIG1       -0.0359
     10 C          -0.3870    2.3130   -0.8045 C.3     1  LIG1       -0.0424
     11 C          -0.7356    1.0167   -0.0044 C.3     1  LIG1       -0.0043
     12 C          -2.0104    1.3301    0.8325 C.3     1  LIG1       -0.0553
     13 C           0.5194    0.5960    0.9312 C.3     1  LIG1       -0.0127
     14 C           0.7835    1.6286    2.0461 C.3     1  LIG1       -0.0459
     15 C           2.0518    1.3202    2.8256 C.3     1  LIG1       -0.0483
     16 C           2.1114   -0.0847    3.4569 C.3     1  LIG1       -0.0231
     17 C           3.5889   -0.6217    3.6129 C.3     1  LIG1        0.0267
     18 C           4.4257    0.3980    4.4298 C.3     1  LIG1       -0.0528
     19 C           3.5842   -1.9402    4.3996 C.2     1  LIG1        0.1392
     20 C           2.4294   -2.8892    4.2144 C.3     1  LIG1        0.0069
     21 C           1.5884   -2.5634    2.9901 C.3     1  LIG1       -0.0400
     22 C           1.0135   -1.1242    2.9661 C.3     1  LIG1       -0.0176
     23 C           0.2164   -0.7726    1.6169 C.3     1  LIG1        0.0334
     24 C          -0.1017   -1.1097    4.0850 C.3     1  LIG1       -0.0586
     25 O           4.4994   -2.2461    5.1687 O.2     1  LIG1       -0.2968
     26 C           4.3478   -0.8742    2.3006 C.3     1  LIG1       -0.0528
     27 C           1.8046    0.4634    0.0536 C.3     1  LIG1       -0.0581
     28 C          -1.0924   -0.1446   -0.9644 C.2     1  LIG1       -0.0557
     29 C          -0.6893   -1.4086   -0.7182 C.2     1  LIG1       -0.0188
     30 C           0.0477   -1.8248    0.5103 C.2     1  LIG1        0.1602
     31 O           0.3734   -3.0039    0.5972 O.2     1  LIG1       -0.2923
     32 C          -1.9531    0.2083   -2.1962 C.3     1  LIG1       -0.0027
     33 C          -2.2752   -0.9690   -3.1579 C.3     1  LIG1       -0.0403
     34 C          -3.2012   -1.7622   -5.3539 C.3     1  LIG1       -0.0598
     35 H          -4.7518    0.3765   -3.1022 H       1  LIG1        0.0235
     36 H          -5.0258   -1.3451   -3.3707 H       1  LIG1        0.0235
     37 H          -5.3299   -0.1878   -4.6710 H       1  LIG1        0.0235
     38 H          -3.4538    0.9991   -5.7876 H       1  LIG1        0.0271
     39 H          -1.7975    0.4610   -5.5994 H       1  LIG1        0.0271
     40 H          -3.3959    2.1466   -3.6190 H       1  LIG1        0.0276
     41 H          -2.1058    2.6928   -4.6583 H       1  LIG1        0.0276
     42 H          -0.0992    3.0757   -4.2980 H       1  LIG1        0.2951
     43 H          -2.3254    2.8805   -1.5762 H       1  LIG1        0.0276
     44 H          -0.9760    3.5441   -2.4589 H       1  LIG1        0.0276
     45 H          -0.3845    3.1776   -0.1290 H       1  LIG1        0.0274
     46 H           0.6234    2.2629   -1.2195 H       1  LIG1        0.0274
     47 H          -1.8408    2.1517    1.5354 H       1  LIG1        0.0238
     48 H          -2.3702    0.4688    1.4020 H       1  LIG1        0.0238
     49 H          -2.8510    1.6383    0.2019 H       1  LIG1        0.0238
     50 H          -0.0573    1.6740    2.7466 H       1  LIG1        0.0271
     51 H           0.8874    2.6345    1.6245 H       1  LIG1        0.0271
     52 H           2.9157    1.4973    2.1783 H       1  LIG1        0.0269
     53 H           2.1475    2.0697    3.6233 H       1  LIG1        0.0269
     54 H           1.8353    0.1193    4.5049 H       1  LIG1        0.0315
     55 H           3.9759    0.5817    5.4122 H       1  LIG1        0.0239
     56 H           4.5206    1.3585    3.9133 H       1  LIG1        0.0239
     57 H           5.4449    0.0326    4.6056 H       1  LIG1        0.0239
     58 H           1.8290   -2.8758    5.1286 H       1  LIG1        0.0342
     59 H           2.8396   -3.8995    4.1026 H       1  LIG1        0.0342
     60 H           0.7723   -3.2962    2.9559 H       1  LIG1        0.0275
     61 H           2.2024   -2.7377    2.1028 H       1  LIG1        0.0275
     62 H          -0.8220   -0.7037    1.9615 H       1  LIG1        0.0392
     63 H          -0.8777   -1.8571    3.8806 H       1  LIG1        0.0235
     64 H          -0.5886   -0.1296    4.1459 H       1  LIG1        0.0235
     65 H           0.2982   -1.3252    5.0810 H       1  LIG1        0.0235
     66 H           3.8357   -1.5725    1.6377 H       1  LIG1        0.0239
     67 H           5.3321   -1.3162    2.5012 H       1  LIG1        0.0239
     68 H           4.5252    0.0515    1.7450 H       1  LIG1        0.0239
     69 H           2.2922    1.4327   -0.0990 H       1  LIG1        0.0236
     70 H           1.6084    0.0491   -0.9390 H       1  LIG1        0.0236
     71 H           2.5351   -0.2001    0.5124 H       1  LIG1        0.0236
     72 H          -0.8942   -2.2390   -1.3844 H       1  LIG1        0.0652
     73 H          -2.9253    0.4887   -1.7651 H       1  LIG1        0.0357
     74 H          -2.7434   -1.7850   -2.5905 H       1  LIG1        0.0276
     75 H          -1.3412   -1.3800   -3.5602 H       1  LIG1        0.0276
     76 H          -2.1943   -1.9367   -5.7502 H       1  LIG1        0.0235
     77 H          -3.8587   -1.5471   -6.2038 H       1  LIG1        0.0235
     78 H          -3.5424   -2.6962   -4.8933 H       1  LIG1        0.0235
@<TRIPOS>BOND
     1     2     3    1
     2     3     4    1
     3     4     5    1
     4     6     7    1
     5     6     8    2
     6     5     9    1
     7     9    10    1
     8    10    11    1
     9    11    13    1
    10    13    14    1
    11    14    15    1
    12    15    16    1
    13    16    17    1
    14    17    19    1
    15    19    20    1
    16    20    21    1
    17    21    22    1
    18    22    23    1
    19    16    22    1
    20    23    13    1
    21    11    28    1
    22    28    29    2
    23    29    30    1
    24    23    30    1
    25     5    32    1
    26    28    32    1
    27    32    33    1
    28     2    33    1
    29     1     2    1
    30     2    34    1
    31     5     6    1
    32    11    12    1
    33    13    27    1
    34    17    18    1
    35    17    26    1
    36    19    25    2
    37    22    24    1
    38    30    31    2
    39     1    35    1
    40     1    36    1
    41     1    37    1
    42     3    38    1
    43     3    39    1
    44     4    40    1
    45     4    41    1
    46     7    42    1
    47     9    43    1
    48     9    44    1
    49    10    45    1
    50    10    46    1
    51    12    47    1
    52    12    48    1
    53    12    49    1
    54    14    50    1
    55    14    51    1
    56    15    52    1
    57    15    53    1
    58    16    54    1
    59    18    55    1
    60    18    56    1
    61    18    57    1
    62    20    58    1
    63    20    59    1
    64    21    60    1
    65    21    61    1
    66    23    62    1
    67    24    63    1
    68    24    64    1
    69    24    65    1
    70    26    66    1
    71    26    67    1
    72    26    68    1
    73    27    69    1
    74    27    70    1
    75    27    71    1
    76    29    72    1
    77    32    73    1
    78    33    74    1
    79    33    75    1
    80    34    76    1
    81    34    77    1
    82    34    78    1
