@<TRIPOS>MOLECULE
NuBBE_2026
 27 28 0 0 0
SMALL
GASTEIGER

@<TRIPOS>ATOM
      1 C          -2.1586   -0.0688   -0.6781 C.3     1  LIG1       -0.0523
      2 C          -0.6506   -0.0328   -0.6168 C.3     1  LIG1        0.0316
      3 C           0.0172   -0.0309    0.7858 C.3     1  LIG1       -0.0196
      4 C          -0.3225   -1.2523    1.6641 C.3     1  LIG1       -0.0587
      5 C          -0.2797    1.2179    1.6390 C.3     1  LIG1       -0.0587
      6 C           0.0067    1.1650   -1.3422 C.3     1  LIG1       -0.0401
      7 C           1.4428    1.1677   -0.7717 C.3     1  LIG1       -0.0484
      8 C           1.4479   -0.0559    0.1792 C.3     1  LIG1       -0.0283
      9 C           1.4646   -1.3251   -0.7094 C.3     1  LIG1        0.0097
     10 C           0.0474   -1.2443   -1.2410 C.2     1  LIG1        0.1400
     11 O          -0.4374   -2.0116   -2.0590 O.2     1  LIG1       -0.2968
     12 H          -2.5981    0.8057   -0.1879 H       1  LIG1        0.0239
     13 H          -2.5568   -0.9663   -0.1936 H       1  LIG1        0.0239
     14 H          -2.5079   -0.0816   -1.7163 H       1  LIG1        0.0239
     15 H          -1.3582   -1.1986    2.0189 H       1  LIG1        0.0235
     16 H           0.3296   -1.2824    2.5445 H       1  LIG1        0.0235
     17 H          -0.2212   -2.2130    1.1525 H       1  LIG1        0.0235
     18 H          -1.3169    1.2065    1.9934 H       1  LIG1        0.0235
     19 H          -0.1426    2.1656    1.1137 H       1  LIG1        0.0235
     20 H           0.3728    1.2420    2.5193 H       1  LIG1        0.0235
     21 H          -0.4994    2.1118   -1.1256 H       1  LIG1        0.0275
     22 H           0.0206    1.0352   -2.4307 H       1  LIG1        0.0275
     23 H           1.6426    2.0967   -0.2275 H       1  LIG1        0.0268
     24 H           2.1940    1.0852   -1.5643 H       1  LIG1        0.0268
     25 H           2.2659   -0.0323    0.9033 H       1  LIG1        0.0310
     26 H           1.6040   -2.2393   -0.1288 H       1  LIG1        0.0345
     27 H           2.1937   -1.2643   -1.5208 H       1  LIG1        0.0345
@<TRIPOS>BOND
     1     1     2    1
     2     2     3    1
     3     3     4    1
     4     3     5    1
     5     2     6    1
     6     6     7    1
     7     7     8    1
     8     3     8    1
     9     8     9    1
    10     9    10    1
    11     2    10    1
    12    10    11    2
    13     1    12    1
    14     1    13    1
    15     1    14    1
    16     4    15    1
    17     4    16    1
    18     4    17    1
    19     5    18    1
    20     5    19    1
    21     5    20    1
    22     6    21    1
    23     6    22    1
    24     7    23    1
    25     7    24    1
    26     8    25    1
    27     9    26    1
    28     9    27    1
