REMARK  Name = NuBBE_1187
REMARK  9 active torsions:
REMARK  status: ('A' for Active; 'I' for Inactive)
REMARK    1  A    between atoms: O_1  and  C_2
REMARK    2  A    between atoms: C_2  and  C_4
REMARK    3  A    between atoms: C_2  and  C_8
REMARK    4  A    between atoms: C_4  and  C_6
REMARK    5  A    between atoms: C_4  and  O_7
REMARK    6  A    between atoms: C_8  and  C_10
REMARK    7  A    between atoms: C_8  and  O_15
REMARK    8  A    between atoms: C_10  and  C_12
REMARK    9  A    between atoms: C_10  and  O_14
REMARK                            x       y       z     vdW  Elec       q    Type
REMARK                         _______ _______ _______ _____ _____    ______ ____
ROOT
ATOM      1  C   LIG A   1      -0.628  -0.629   0.181  0.00  0.00    +0.181 C 
ENDROOT
BRANCH   1   2
ATOM      2  O   LIG A   1      -1.993  -0.543  -0.270  0.00  0.00    -0.386 OA
ATOM      3  H   LIG A   1      -2.389  -1.410  -0.037  0.00  0.00    +0.210 HD
ENDBRANCH   1   2
BRANCH   1   4
ATOM      4  C   LIG A   1       0.004   0.772   0.148  0.00  0.00    +0.174 C 
BRANCH   4   5
ATOM      5  O   LIG A   1       1.373   0.726   0.571  0.00  0.00    -0.387 OA
ATOM      6  H   LIG A   1       1.726   1.615   0.353  0.00  0.00    +0.210 HD
ENDBRANCH   4   5
BRANCH   4   7
ATOM      7  C   LIG A   1      -0.047   1.474  -1.224  0.00  0.00    +0.142 C 
ATOM      8  C   LIG A   1       0.741   0.759  -2.317  0.00  0.00    +0.040 C 
BRANCH   7   9
ATOM      9  O   LIG A   1       0.567   2.764  -1.034  0.00  0.00    -0.389 OA
ATOM     10  H   LIG A   1       0.494   3.242  -1.879  0.00  0.00    +0.210 HD
ENDBRANCH   7   9
ENDBRANCH   4   7
ENDBRANCH   1   4
BRANCH   1  11
ATOM     11  C   LIG A   1      -0.618  -1.259   1.587  0.00  0.00    +0.208 C 
BRANCH  11  12
ATOM     12  C   LIG A   1       0.788  -1.584   2.074  0.00  0.00    +0.257 C 
ATOM     13  O   LIG A   1       1.157  -2.729   2.360  0.00  0.00    -0.298 OA
ENDBRANCH  11  12
BRANCH  11  14
ATOM     14  O   LIG A   1      -1.431  -2.446   1.534  0.00  0.00    -0.382 OA
ATOM     15  H   LIG A   1      -1.249  -2.934   2.362  0.00  0.00    +0.210 HD
ENDBRANCH  11  14
ENDBRANCH   1  11
TORSDOF 8
