REMARK  Name = NuBBE_1150
REMARK  12 active torsions:
REMARK  status: ('A' for Active; 'I' for Inactive)
REMARK    1  A    between atoms: C_1  and  C_2
REMARK    2  A    between atoms: C_6  and  C_29
REMARK    3  A    between atoms: C_7  and  C_8
REMARK    4  A    between atoms: C_9  and  C_11
REMARK    5  A    between atoms: C_11  and  C_13
REMARK    6  A    between atoms: C_11  and  C_14
REMARK    7  A    between atoms: C_16  and  C_17
REMARK    8  A    between atoms: C_16  and  C_18
REMARK    9  A    between atoms: C_19  and  O_21
REMARK   10  A    between atoms: C_22  and  O_24
REMARK   11  A    between atoms: C_34  and  C_35
REMARK   12  A    between atoms: C_34  and  C_40
REMARK                            x       y       z     vdW  Elec       q    Type
REMARK                         _______ _______ _______ _____ _____    ______ ____
ROOT
ATOM      1  C   LIG A   1      -4.640  -1.292   0.707  0.00  0.00    +0.012 C 
ATOM      2  C   LIG A   1      -3.403  -1.047   1.639  0.00  0.00    -0.021 C 
ATOM      3  C   LIG A   1      -2.227  -0.580   0.688  0.00  0.00    +0.021 C 
ATOM      4  C   LIG A   1      -1.481  -1.718  -0.020  0.00  0.00    -0.063 C 
ATOM      5  C   LIG A   1      -0.507  -1.266  -1.149  0.00  0.00    -0.005 C 
ATOM      6  C   LIG A   1       0.346   0.023  -0.716  0.00  0.00    -0.020 C 
ATOM      7  C   LIG A   1      -0.131   1.304  -1.416  0.00  0.00    +0.012 C 
ATOM      8  C   LIG A   1       1.878  -0.369  -0.869  0.00  0.00    +0.001 C 
ATOM      9  C   LIG A   1       1.843  -1.907  -0.819  0.00  0.00    +0.005 C 
ATOM     10  C   LIG A   1       0.580  -2.299  -1.554  0.00  0.00    +0.012 C 
ATOM     11  C   LIG A   1       0.180   0.292   0.813  0.00  0.00    +0.008 C 
ATOM     12  C   LIG A   1      -1.256   0.451   1.282  0.00  0.00    +0.009 C 
ATOM     13  C   LIG A   1      -1.384  -1.062  -2.413  0.00  0.00    +0.016 C 
ATOM     14  C   LIG A   1      -1.730  -3.006   0.298  0.00  0.00    -0.026 C 
ATOM     15  C   LIG A   1      -2.680  -3.472   1.361  0.00  0.00    +0.032 C 
ATOM     16  C   LIG A   1      -3.073  -2.385   2.381  0.00  0.00    +0.012 C 
ATOM     17  C   LIG A   1      -2.091  -2.286   3.610  0.00  0.00    +0.027 C 
ATOM     18  C   LIG A   1      -0.633  -2.701   3.323  0.00  0.00    +0.019 C 
ATOM     19  C   LIG A   1      -2.084  -0.878   4.207  0.00  0.00    +0.139 C 
ATOM     20  C   LIG A   1      -3.332  -0.049   4.064  0.00  0.00    +0.075 C 
ATOM     21  C   LIG A   1      -3.870   0.042   2.644  0.00  0.00    +0.015 C 
ATOM     22  O   LIG A   1      -1.149  -0.462   4.891  0.00  0.00    -0.297 OA
ATOM     23  C   LIG A   1      -2.602  -3.216   4.734  0.00  0.00    +0.019 C 
ENDROOT
BRANCH   8  24
ATOM     24  C   LIG A   1       2.850   0.166  -1.978  0.00  0.00    +0.021 C 
ATOM     25  C   LIG A   1       2.427  -0.128  -3.416  0.00  0.00    +0.010 C 
BRANCH  24  26
ATOM     26  C   LIG A   1       3.277   1.635  -1.731  0.00  0.00    +0.153 C 
ATOM     27  O   LIG A   1       2.242   2.561  -2.045  0.00  0.00    -0.365 OA
ATOM     28  C   LIG A   1       2.828   3.867  -2.235  0.00  0.00    +0.093 C 
ATOM     29  C   LIG A   1       2.238   4.397  -3.542  0.00  0.00    +0.044 C 
ATOM     30  C   LIG A   1       2.391   4.745  -1.061  0.00  0.00    +0.044 C 
ATOM     31  C   LIG A   1       4.469   2.145  -2.547  0.00  0.00    +0.175 C 
ATOM     32  C   LIG A   1       4.356   3.655  -2.335  0.00  0.00    +0.177 C 
BRANCH  31  33
ATOM     33  O   LIG A   1       5.722   1.636  -2.108  0.00  0.00    -0.387 OA
ATOM     34  H   LIG A   1       5.768   1.811  -1.149  0.00  0.00    +0.210 HD
ENDBRANCH  31  33
BRANCH  32  35
ATOM     35  O   LIG A   1       5.050   4.006  -1.129  0.00  0.00    -0.386 OA
ATOM     36  H   LIG A   1       5.999   3.978  -1.351  0.00  0.00    +0.210 HD
ENDBRANCH  32  35
ENDBRANCH  24  26
ENDBRANCH   8  24
TORSDOF 4
