@<TRIPOS>MOLECULE
NuBBE_167
 67 67 0 0 0
SMALL
GASTEIGER

@<TRIPOS>ATOM
      1 C          -0.7526    3.6624    6.3615 C.3     1  LIG1       -0.0462
      2 C          -1.7013    2.7188    5.6136 C.3     1  LIG1        0.0422
      3 H          -2.4722    3.3492    5.1492 H       1  LIG1        0.0494
      4 C          -2.4307    1.7218    6.5429 C.3     1  LIG1        0.1181
      5 H          -2.9799    2.2804    7.3075 H       1  LIG1        0.0749
      6 O          -1.5019    0.9454    7.3342 O.3     1  LIG1       -0.4600
      7 C          -0.7624   -0.0402    6.8805 C.2     1  LIG1        0.3043
      8 C           0.4350   -0.4217    7.6112 C.3     1  LIG1        0.0332
      9 O          -1.0483   -0.6694    5.7741 O.2     1  LIG1       -0.2512
     10 C          -3.4893    0.9841    5.6944 C.3     1  LIG1       -0.0128
     11 C          -3.1051    0.7201    4.1941 C.3     1  LIG1       -0.0341
     12 C          -1.6806    1.1684    3.6559 C.3     1  LIG1        0.0081
     13 H          -1.9389    1.8483    2.8412 H       1  LIG1        0.0460
     14 C          -0.7534    0.0800    2.9024 C.3     1  LIG1       -0.0375
     15 C           0.3428    0.6400    1.9223 C.3     1  LIG1       -0.0516
     16 C          -0.1266    1.4869    0.7226 C.3     1  LIG1       -0.0530
     17 C          -1.0197    0.8703   -0.3943 C.3     1  LIG1       -0.0531
     18 C          -0.5073    0.1250   -1.7220 C.3     1  LIG1       -0.0531
     19 C           0.3033   -1.2643   -1.8128 C.3     1  LIG1       -0.0531
     20 C           0.6357   -1.8140   -3.3944 C.3     1  LIG1       -0.0531
     21 C           1.4979   -3.2084   -3.8034 C.3     1  LIG1       -0.0531
     22 C           1.6319   -3.8739   -5.3200 C.3     1  LIG1       -0.0530
     23 C           2.5730   -3.2408   -6.3879 C.3     1  LIG1       -0.0527
     24 C           1.9094   -1.9373   -6.7009 C.3     1  LIG1       -0.0464
     25 C           2.5510   -1.0691   -7.7431 C.3     1  LIG1        0.0055
     26 C           1.6719    0.1599   -7.8613 C.2     1  LIG1        0.1303
     27 C           2.1315    1.2074   -8.8138 C.3     1  LIG1       -0.0061
     28 O           0.6069    0.2922   -7.2554 O.2     1  LIG1       -0.2977
     29 N          -0.9159    2.0534    4.5560 N.3     1  LIG1       -0.3074
     30 H          -0.1345    1.5412    4.9699 H       1  LIG1        0.1226
     31 H           0.2341    3.2166    6.5301 H       1  LIG1        0.0246
     32 H          -1.1455    3.9807    7.3335 H       1  LIG1        0.0246
     33 H          -0.6003    4.5648    5.7575 H       1  LIG1        0.0246
     34 H           0.5757   -1.5049    7.5347 H       1  LIG1        0.0342
     35 H           0.3177   -0.1644    8.6660 H       1  LIG1        0.0342
     36 H           1.3516    0.0656    7.2138 H       1  LIG1        0.0342
     37 H          -4.3773    1.6492    5.6809 H       1  LIG1        0.0302
     38 H          -3.8722    0.0752    6.1772 H       1  LIG1        0.0302
     39 H          -3.8538    1.2826    3.5957 H       1  LIG1        0.0281
     40 H          -3.3340   -0.3248    3.9502 H       1  LIG1        0.0281
     41 H          -1.3627   -0.6405    2.3421 H       1  LIG1        0.0280
     42 H          -0.1930   -0.5336    3.6252 H       1  LIG1        0.0280
     43 H           0.9792   -0.1705    1.5377 H       1  LIG1        0.0266
     44 H           1.0235    1.2606    2.5265 H       1  LIG1        0.0266
     45 H           0.7348    1.9892    0.2654 H       1  LIG1        0.0265
     46 H          -0.6990    2.3147    1.1713 H       1  LIG1        0.0265
     47 H          -1.4862    1.7853   -0.8158 H       1  LIG1        0.0265
     48 H          -1.8723    0.3514    0.0592 H       1  LIG1        0.0265
     49 H           0.0805    0.8702   -2.2694 H       1  LIG1        0.0265
     50 H          -1.4282   -0.0127   -2.3120 H       1  LIG1        0.0265
     51 H          -0.2522   -2.0223   -1.2433 H       1  LIG1        0.0265
     52 H           1.2527   -1.0747   -1.3006 H       1  LIG1        0.0265
     53 H           1.2065   -0.9817   -3.8160 H       1  LIG1        0.0265
     54 H          -0.3267   -1.8512   -3.9218 H       1  LIG1        0.0265
     55 H           1.0638   -4.0324   -3.2234 H       1  LIG1        0.0265
     56 H           2.5325   -3.0744   -3.4662 H       1  LIG1        0.0265
     57 H           0.6308   -3.9452   -5.7710 H       1  LIG1        0.0265
     58 H           1.9667   -4.9252   -5.2440 H       1  LIG1        0.0265
     59 H           2.6325   -3.8388   -7.3209 H       1  LIG1        0.0265
     60 H           3.6141   -3.1196   -6.0600 H       1  LIG1        0.0265
     61 H           1.8670   -1.3750   -5.7694 H       1  LIG1        0.0269
     62 H           0.8816   -2.1585   -7.0168 H       1  LIG1        0.0269
     63 H           2.6055   -1.5739   -8.7126 H       1  LIG1        0.0341
     64 H           3.5547   -0.7676   -7.4283 H       1  LIG1        0.0341
     65 H           3.2222    1.2020   -8.8545 H       1  LIG1        0.0306
     66 H           1.7947    2.1796   -8.4491 H       1  LIG1        0.0306
     67 H           1.7114    0.9881   -9.7962 H       1  LIG1        0.0306
@<TRIPOS>BOND
     1     2     4    1
     2     6     7    1
     3     7     8    1
     4     7     9    2
     5     4    10    1
     6    10    11    1
     7    11    12    1
     8    12    13    1
     9    12    14    1
    10    14    15    1
    11    15    16    1
    12    16    17    1
    13    17    18    1
    14    18    19    1
    15    19    20    1
    16    20    21    1
    17    21    22    1
    18    22    23    1
    19    23    24    1
    20    24    25    1
    21    25    26    1
    22    26    27    1
    23    26    28    2
    24    12    29    1
    25     2    29    1
    26    29    30    1
    27     2     3    1
    28     2     1    1
    29     4     6    1
    30     4     5    1
    31     1    31    1
    32     1    32    1
    33     1    33    1
    34     8    34    1
    35     8    35    1
    36     8    36    1
    37    10    37    1
    38    10    38    1
    39    11    39    1
    40    11    40    1
    41    14    41    1
    42    14    42    1
    43    15    43    1
    44    15    44    1
    45    16    45    1
    46    16    46    1
    47    17    47    1
    48    17    48    1
    49    18    49    1
    50    18    50    1
    51    19    51    1
    52    19    52    1
    53    20    53    1
    54    20    54    1
    55    21    55    1
    56    21    56    1
    57    22    57    1
    58    22    58    1
    59    23    59    1
    60    23    60    1
    61    24    61    1
    62    24    62    1
    63    25    63    1
    64    25    64    1
    65    27    65    1
    66    27    66    1
    67    27    67    1
