@<TRIPOS>MOLECULE
NuBBE_160
 33 35 0 0 0
SMALL
GASTEIGER

@<TRIPOS>ATOM
      1 O          -5.1205   -1.9080   -0.4025 O.3     1  LIG1       -0.5065
      2 C          -3.7814   -2.1133   -0.2535 C.ar    1  LIG1        0.1239
      3 C          -3.2519   -3.3922   -0.1127 C.ar    1  LIG1        0.0223
      4 C          -1.8701   -3.5472    0.0388 C.ar    1  LIG1        0.1348
      5 O          -1.3597   -4.8062    0.1763 O.3     1  LIG1       -0.5058
      6 C          -1.0250   -2.4283    0.0489 C.ar    1  LIG1        0.1092
      7 C           0.4408   -2.5229    0.2085 C.ar    1  LIG1        0.2379
      8 C           1.2039   -1.2490    0.1772 C.ar    1  LIG1        0.2082
      9 O           2.5752   -1.3421    0.3343 O.3     1  LIG1       -0.5007
     10 C           0.5409   -0.0911    0.0213 C.ar    1  LIG1        0.1808
     11 C           1.2107    1.2256   -0.0147 C.ar    1  LIG1        0.0282
     12 C           0.7306    2.2714    0.7986 C.ar    1  LIG1       -0.0055
     13 C           1.3371    3.5241    0.7510 C.ar    1  LIG1        0.1626
     14 O           0.9098    4.5673    1.5252 O.3     1  LIG1       -0.5032
     15 C           2.4092    3.7496   -0.1026 C.ar    1  LIG1        0.2006
     16 O           3.0089    4.9787   -0.1583 O.3     1  LIG1       -0.5009
     17 C           2.8825    2.7283   -0.9133 C.ar    1  LIG1        0.1626
     18 O           3.9313    2.9567   -1.7568 O.3     1  LIG1       -0.5032
     19 C           2.2930    1.4704   -0.8784 C.ar    1  LIG1       -0.0055
     20 O          -0.8367   -0.0007   -0.0976 O.2     1  LIG1       -0.4507
     21 O           1.0725   -3.5624    0.3673 O.2     1  LIG1       -0.2830
     22 C          -1.5788   -1.1548   -0.0953 C.ar    1  LIG1        0.1465
     23 C          -2.9572   -0.9951   -0.2462 C.ar    1  LIG1        0.0231
     24 H          -5.5821   -2.7629   -0.4083 H       1  LIG1        0.2921
     25 H          -3.9049   -4.2584   -0.1196 H       1  LIG1        0.0691
     26 H          -2.0637   -5.4723    0.1371 H       1  LIG1        0.2922
     27 H           2.7479   -2.3040    0.4322 H       1  LIG1        0.2924
     28 H          -0.1097    2.0915    1.4632 H       1  LIG1        0.0662
     29 H           0.1670    4.2559    2.0714 H       1  LIG1        0.2923
     30 H           2.5108    5.5163    0.4912 H       1  LIG1        0.2924
     31 H           4.1757    3.8905   -1.5972 H       1  LIG1        0.2923
     32 H           2.6805    0.6875   -1.5252 H       1  LIG1        0.0662
     33 H          -3.3865   -0.0032   -0.3601 H       1  LIG1        0.0691
@<TRIPOS>BOND
     1     1     2    1
     2     2     3   ar
     3     3     4   ar
     4     4     5    1
     5     4     6   ar
     6     6     7   ar
     7     7     8   ar
     8     8     9    1
     9     8    10   ar
    10    10    11    1
    11    11    12   ar
    12    12    13   ar
    13    13    14    1
    14    13    15   ar
    15    15    16    1
    16    15    17   ar
    17    17    18    1
    18    17    19   ar
    19    11    19   ar
    20    10    20   ar
    21     7    21    2
    22     6    22   ar
    23    20    22   ar
    24    22    23   ar
    25     2    23   ar
    26     1    24    1
    27     3    25    1
    28     5    26    1
    29     9    27    1
    30    12    28    1
    31    14    29    1
    32    16    30    1
    33    18    31    1
    34    19    32    1
    35    23    33    1
