@<TRIPOS>MOLECULE
NuBBE_1407
 65 68 0 0 0
SMALL
GASTEIGER

@<TRIPOS>ATOM
      1 C          -0.3776   -4.1523   -4.4251 C.3     1  LIG1       -0.0394
      2 C          -0.1097   -3.2946   -3.2099 C.2     1  LIG1       -0.0462
      3 C          -0.2560   -1.8207   -3.2742 C.2     1  LIG1       -0.0278
      4 C          -0.8337   -1.2835   -4.3790 C.2     1  LIG1        0.0266
      5 C          -0.9772    0.1056   -4.8457 C.2     1  LIG1        0.3298
      6 O           0.0331    0.9137   -4.5036 O.3     1  LIG1       -0.4775
      7 O          -1.8748    0.4906   -5.5745 O.2     1  LIG1       -0.2458
      8 C           0.3238   -3.8983   -2.0948 C.2     1  LIG1       -0.0585
      9 C           0.5737   -3.2022   -0.8699 C.2     1  LIG1       -0.0609
     10 C           0.5976   -1.8586   -0.7793 C.2     1  LIG1       -0.0529
     11 C           0.3786   -1.0051   -2.0778 C.3     1  LIG1        0.0152
     12 C          -0.5320    0.1914   -1.6618 C.3     1  LIG1       -0.0393
     13 C          -1.4020   -0.1064   -0.4387 C.3     1  LIG1       -0.0455
     14 C          -0.5877   -0.2531    0.8981 C.3     1  LIG1       -0.0196
     15 C           0.7368   -1.1117    0.6028 C.3     1  LIG1       -0.0043
     16 C           1.9783   -0.1758    0.5694 C.3     1  LIG1       -0.0429
     17 C           2.2224    0.5943    1.8682 C.3     1  LIG1       -0.0462
     18 C           0.9769    1.3521    2.4018 C.3     1  LIG1       -0.0220
     19 C           0.6958    0.8918    3.8534 C.3     1  LIG1       -0.0589
     20 C          -0.2434    1.2117    1.4281 C.3     1  LIG1       -0.0284
     21 C          -1.4574    2.0078    1.9747 C.3     1  LIG1       -0.0399
     22 C          -1.1405    3.5030    2.1232 C.3     1  LIG1        0.0150
     23 H          -0.9756    3.9351    1.1277 H       1  LIG1        0.0375
     24 C          -2.3107    4.2349    2.7751 C.3     1  LIG1       -0.0557
     25 H           0.0585    1.7683    0.5292 H       1  LIG1        0.0312
     26 C           1.3365    2.8622    2.4824 C.3     1  LIG1        0.0118
     27 C           0.1515    3.7097    2.9014 C.2     1  LIG1        0.1367
     28 O           0.2814    4.5953    3.7464 O.2     1  LIG1       -0.2971
     29 C           1.0225   -2.1454    1.7399 C.3     1  LIG1       -0.0553
     30 C          -1.5707   -0.9743    1.8567 C.3     1  LIG1       -0.0585
     31 C           1.7727   -0.5406   -2.5917 C.3     1  LIG1       -0.0518
     32 H          -1.4426   -4.1425   -4.6807 H       1  LIG1        0.0278
     33 H          -0.1003   -5.2000   -4.2607 H       1  LIG1        0.0278
     34 H           0.2045   -3.8043   -5.2854 H       1  LIG1        0.0278
     35 H          -1.2958   -1.9304   -5.1192 H       1  LIG1        0.0692
     36 H          -0.1871    1.7604   -4.9438 H       1  LIG1        0.2954
     37 H           0.4525   -4.9777   -2.0600 H       1  LIG1        0.0620
     38 H           0.7040   -3.8580   -0.0166 H       1  LIG1        0.0618
     39 H          -1.2380    0.4714   -2.4442 H       1  LIG1        0.0277
     40 H           0.0612    1.0946   -1.4888 H       1  LIG1        0.0277
     41 H          -1.9763   -1.0223   -0.6394 H       1  LIG1        0.0271
     42 H          -2.1566    0.6818   -0.3520 H       1  LIG1        0.0271
     43 H           1.8873    0.5721   -0.2207 H       1  LIG1        0.0274
     44 H           2.8808   -0.7551    0.3329 H       1  LIG1        0.0274
     45 H           3.0483    1.2942    1.6827 H       1  LIG1        0.0271
     46 H           2.6184   -0.0907    2.6276 H       1  LIG1        0.0271
     47 H           0.4209   -0.1592    3.9185 H       1  LIG1        0.0235
     48 H          -0.1045    1.4624    4.3336 H       1  LIG1        0.0235
     49 H           1.5882    1.0243    4.4779 H       1  LIG1        0.0235
     50 H          -1.7832    1.5949    2.9360 H       1  LIG1        0.0275
     51 H          -2.3167    1.9176    1.3030 H       1  LIG1        0.0275
     52 H          -3.2316    4.0897    2.2008 H       1  LIG1        0.0236
     53 H          -2.1169    5.3116    2.8299 H       1  LIG1        0.0236
     54 H          -2.4835    3.8779    3.7965 H       1  LIG1        0.0236
     55 H           1.6768    3.2389    1.5097 H       1  LIG1        0.0347
     56 H           2.1507    3.0265    3.1992 H       1  LIG1        0.0347
     57 H           0.2342   -2.8992    1.8358 H       1  LIG1        0.0238
     58 H           1.1174   -1.6868    2.7227 H       1  LIG1        0.0238
     59 H           1.9660   -2.6764    1.5593 H       1  LIG1        0.0238
     60 H          -1.8010   -1.9848    1.4994 H       1  LIG1        0.0235
     61 H          -2.5308   -0.4499    1.9208 H       1  LIG1        0.0235
     62 H          -1.1851   -1.0608    2.8732 H       1  LIG1        0.0235
     63 H           1.8835   -0.6345   -3.6782 H       1  LIG1        0.0241
     64 H           2.5865   -1.1389   -2.1642 H       1  LIG1        0.0241
     65 H           1.9778    0.5086   -2.3579 H       1  LIG1        0.0241
@<TRIPOS>BOND
     1     2     3    1
     2     4     5    1
     3     5     6    1
     4     5     7    2
     5     2     8    2
     6     8     9    1
     7     9    10    2
     8    10    11    1
     9     3    11    1
    10    11    12    1
    11    12    13    1
    12    13    14    1
    13    14    15    1
    14    10    15    1
    15    15    16    1
    16    16    17    1
    17    17    18    1
    18    18    20    1
    19    14    20    1
    20    20    21    1
    21    21    22    1
    22    18    26    1
    23    26    27    1
    24    22    27    1
    25     1     2    1
    26     3     4    2
    27    11    31    1
    28    14    30    1
    29    15    29    1
    30    18    19    1
    31    20    25    1
    32    22    23    1
    33    22    24    1
    34    27    28    2
    35     1    32    1
    36     1    33    1
    37     1    34    1
    38     4    35    1
    39     6    36    1
    40     8    37    1
    41     9    38    1
    42    12    39    1
    43    12    40    1
    44    13    41    1
    45    13    42    1
    46    16    43    1
    47    16    44    1
    48    17    45    1
    49    17    46    1
    50    19    47    1
    51    19    48    1
    52    19    49    1
    53    21    50    1
    54    21    51    1
    55    24    52    1
    56    24    53    1
    57    24    54    1
    58    26    55    1
    59    26    56    1
    60    29    57    1
    61    29    58    1
    62    29    59    1
    63    30    60    1
    64    30    61    1
    65    30    62    1
    66    31    63    1
    67    31    64    1
    68    31    65    1
