@<TRIPOS>MOLECULE
NuBBE_987
 123 126 0 0 0
SMALL
GASTEIGER

@<TRIPOS>ATOM
      1 C          -0.1883    4.0236   -1.4777 C.3     1  LIG1       -0.0556
      2 C           1.1242    4.7673   -1.7317 C.3     1  LIG1       -0.0077
      3 C           2.0618    4.0954   -2.7808 C.2     1  LIG1       -0.0638
      4 C           1.5594    3.9530   -4.2312 C.3     1  LIG1        0.0061
      5 C           0.1170    4.4301   -4.5099 C.3     1  LIG1        0.1068
      6 H          -0.0631    4.5250   -5.5893 H       1  LIG1        0.0737
      7 O          -0.8441    3.3938   -4.0382 O.3     1  LIG1       -0.4610
      8 C          -1.2904    2.3535   -4.6980 C.2     1  LIG1        0.3073
      9 C          -1.4920    1.1363   -3.7574 C.3     1  LIG1        0.0449
     10 C          -0.7884   -0.2289   -4.0681 C.3     1  LIG1       -0.0430
     11 C          -1.1421   -1.4762   -3.1662 C.3     1  LIG1       -0.0526
     12 C          -2.5833   -2.1191   -3.1690 C.3     1  LIG1       -0.0530
     13 C          -3.6244   -1.1374   -2.6008 C.3     1  LIG1       -0.0531
     14 C          -5.1932   -1.2769   -2.5943 C.3     1  LIG1       -0.0531
     15 C          -5.6490   -2.4869   -1.7225 C.3     1  LIG1       -0.0531
     16 C          -7.0694   -3.0175   -1.2827 C.3     1  LIG1       -0.0531
     17 C          -6.9915   -4.3408   -0.2730 C.3     1  LIG1       -0.0531
     18 C          -6.2464   -4.0888    1.1000 C.3     1  LIG1       -0.0531
     19 C          -5.8992   -5.0723    2.2990 C.3     1  LIG1       -0.0531
     20 C          -4.8814   -6.2701    2.3106 C.3     1  LIG1       -0.0531
     21 C          -3.3504   -6.1862    2.0243 C.3     1  LIG1       -0.0533
     22 C          -2.7966   -5.9592    0.6127 C.3     1  LIG1       -0.0559
     23 C          -3.0032   -4.5900    0.0167 C.3     1  LIG1       -0.0653
     24 O          -1.7471    2.3827   -5.9631 O.2     1  LIG1       -0.2508
     25 C          -0.0225    5.8390   -3.8346 C.3     1  LIG1       -0.0146
     26 C           0.6902    6.0859   -2.4300 C.3     1  LIG1       -0.0403
     27 C           3.3028    3.6518   -2.4501 C.2     1  LIG1       -0.0838
     28 C           3.7861    3.4465   -1.0078 C.3     1  LIG1       -0.0311
     29 C           2.5133    3.3802   -0.1193 C.3     1  LIG1       -0.0305
     30 C           1.8442    4.7919   -0.2707 C.3     1  LIG1       -0.0262
     31 C           0.9292    5.1712    0.9197 C.3     1  LIG1       -0.0224
     32 C           0.9224    4.2527    2.2030 C.3     1  LIG1        0.0614
     33 H           1.7531    4.6228    2.8107 H       1  LIG1        0.0599
     34 O          -0.2508    4.5731    2.9574 O.3     1  LIG1       -0.3912
     35 C           1.0773    2.6496    1.9727 C.3     1  LIG1        0.0001
     36 C          -0.2494    2.0926    1.4036 C.3     1  LIG1       -0.0567
     37 C           2.4359    2.5681    1.2109 C.3     1  LIG1       -0.0296
     38 C           3.4482    2.7954    2.3689 C.3     1  LIG1       -0.0491
     39 C           2.7853    2.2491    3.6672 C.3     1  LIG1       -0.0491
     40 C           1.4527    1.6673    3.2334 C.3     1  LIG1       -0.0304
     41 H           0.6888    1.8378    4.0129 H       1  LIG1        0.0310
     42 C           1.5646   -0.0076    3.0481 C.3     1  LIG1       -0.0402
     43 H           0.6075   -0.2788    2.5678 H       1  LIG1        0.0301
     44 C           1.4891   -0.7777    4.4080 C.3     1  LIG1       -0.0621
     45 C           2.7363   -0.7931    2.1776 C.3     1  LIG1       -0.0465
     46 C           4.2815   -0.7670    2.6200 C.3     1  LIG1       -0.0315
     47 C           5.5352   -1.5038    1.9093 C.2     1  LIG1       -0.0740
     48 C           6.0153   -2.8789    2.5088 C.3     1  LIG1       -0.0258
     49 C           6.1994   -4.1262    1.6041 C.3     1  LIG1       -0.0590
     50 C           7.2947   -2.8247    3.3884 C.3     1  LIG1       -0.0590
     51 C           6.3632   -0.8311    1.0716 C.2     1  LIG1       -0.0992
     52 H          -0.3034    3.1622   -2.1034 H       1  LIG1        0.0238
     53 H          -1.0597    4.6889   -1.5093 H       1  LIG1        0.0238
     54 H          -0.2080    3.5694   -0.5077 H       1  LIG1        0.0238
     55 H           1.6428    2.8973   -4.5161 H       1  LIG1        0.0346
     56 H           2.2222    4.5367   -4.8815 H       1  LIG1        0.0346
     57 H          -2.5651    1.0235   -3.7991 H       1  LIG1        0.0377
     58 H          -1.2404    1.4097   -2.7416 H       1  LIG1        0.0377
     59 H           0.2882   -0.0508   -3.9100 H       1  LIG1        0.0270
     60 H          -0.8776   -0.5038   -5.1250 H       1  LIG1        0.0270
     61 H          -0.8955   -1.2221   -2.1263 H       1  LIG1        0.0265
     62 H          -0.4284   -2.2764   -3.4292 H       1  LIG1        0.0265
     63 H          -2.5397   -3.0038   -2.5190 H       1  LIG1        0.0265
     64 H          -2.8301   -2.4972   -4.1682 H       1  LIG1        0.0265
     65 H          -3.4985   -0.2630   -3.2043 H       1  LIG1        0.0265
     66 H          -3.2977   -0.8927   -1.5831 H       1  LIG1        0.0265
     67 H          -5.5489   -1.2748   -3.6352 H       1  LIG1        0.0265
     68 H          -5.5362   -0.3099   -2.1793 H       1  LIG1        0.0265
     69 H          -5.1418   -2.2950   -0.7799 H       1  LIG1        0.0265
     70 H          -5.2060   -3.3306   -2.2478 H       1  LIG1        0.0265
     71 H          -7.6476   -3.3128   -2.1751 H       1  LIG1        0.0265
     72 H          -7.6768   -2.2442   -0.7878 H       1  LIG1        0.0265
     73 H          -6.5248   -5.1612   -0.8315 H       1  LIG1        0.0265
     74 H          -8.0293   -4.6637   -0.0769 H       1  LIG1        0.0265
     75 H          -6.8407   -3.2932    1.5708 H       1  LIG1        0.0265
     76 H          -5.3079   -3.6120    0.8654 H       1  LIG1        0.0265
     77 H          -6.8366   -5.4502    2.7433 H       1  LIG1        0.0265
     78 H          -5.5230   -4.4000    3.0932 H       1  LIG1        0.0265
     79 H          -5.3122   -7.1224    1.7771 H       1  LIG1        0.0265
     80 H          -4.8893   -6.6132    3.3696 H       1  LIG1        0.0265
     81 H          -2.9523   -7.1830    2.2951 H       1  LIG1        0.0265
     82 H          -2.8530   -5.5139    2.7351 H       1  LIG1        0.0265
     83 H          -3.1846   -6.7171   -0.0756 H       1  LIG1        0.0263
     84 H          -1.7075   -6.1152    0.6430 H       1  LIG1        0.0263
     85 H          -2.6145   -3.7902    0.6556 H       1  LIG1        0.0230
     86 H          -4.0505   -4.4396   -0.1983 H       1  LIG1        0.0230
     87 H          -2.5062   -4.5240   -0.9540 H       1  LIG1        0.0230
     88 H          -1.0785    6.1284   -3.7643 H       1  LIG1        0.0301
     89 H           0.4442    6.5555   -4.5262 H       1  LIG1        0.0301
     90 H           0.0019    6.6624   -1.7950 H       1  LIG1        0.0275
     91 H           1.5478    6.7585   -2.5850 H       1  LIG1        0.0275
     92 H           3.9666    3.2839   -3.2323 H       1  LIG1        0.0572
     93 H           4.4762    4.2568   -0.7267 H       1  LIG1        0.0310
     94 H           4.3621    2.5152   -0.9710 H       1  LIG1        0.0310
     95 H           1.8807    2.6954   -0.7027 H       1  LIG1        0.0310
     96 H           2.6358    5.5601   -0.3074 H       1  LIG1        0.0313
     97 H          -0.0978    5.3644    0.5886 H       1  LIG1        0.0293
     98 H           1.2308    6.1849    1.2392 H       1  LIG1        0.0293
     99 H          -0.5205    5.4837    2.7259 H       1  LIG1        0.2098
    100 H          -0.9507    2.8710    1.0807 H       1  LIG1        0.0236
    101 H          -0.8324    1.5834    2.1847 H       1  LIG1        0.0236
    102 H          -0.1053    1.3808    0.5877 H       1  LIG1        0.0236
    103 H           2.5736    1.5284    0.9008 H       1  LIG1        0.0310
    104 H           3.6895    3.8527    2.5097 H       1  LIG1        0.0268
    105 H           4.3948    2.2861    2.1901 H       1  LIG1        0.0268
    106 H           2.6065    3.0704    4.3756 H       1  LIG1        0.0268
    107 H           3.3842    1.5132    4.2084 H       1  LIG1        0.0268
    108 H           2.3599   -0.5782    5.0365 H       1  LIG1        0.0233
    109 H           1.4719   -1.8647    4.2241 H       1  LIG1        0.0233
    110 H           0.5792   -0.5752    4.9883 H       1  LIG1        0.0233
    111 H           2.6040   -0.5343    1.1235 H       1  LIG1        0.0271
    112 H           2.4510   -1.8582    2.2257 H       1  LIG1        0.0271
    113 H           4.3053   -1.1361    3.6511 H       1  LIG1        0.0310
    114 H           4.5625    0.2835    2.6923 H       1  LIG1        0.0310
    115 H           5.2067   -3.1576    3.1875 H       1  LIG1        0.0340
    116 H           7.0080   -4.0437    0.8661 H       1  LIG1        0.0235
    117 H           5.2746   -4.4085    1.0971 H       1  LIG1        0.0235
    118 H           6.4710   -4.9868    2.2403 H       1  LIG1        0.0235
    119 H           8.2264   -2.8797    2.8062 H       1  LIG1        0.0235
    120 H           7.3077   -3.7046    4.0501 H       1  LIG1        0.0235
    121 H           7.3357   -1.9417    4.0289 H       1  LIG1        0.0235
    122 H           6.1760    0.1835    0.7230 H       1  LIG1        0.0534
    123 H           7.3188   -1.2412    0.7343 H       1  LIG1        0.0534
@<TRIPOS>BOND
     1     2     3    1
     2     3     4    1
     3     4     5    1
     4     7     8    1
     5     8     9    1
     6     9    10    1
     7    10    11    1
     8    11    12    1
     9    12    13    1
    10    13    14    1
    11    14    15    1
    12    15    16    1
    13    16    17    1
    14    17    18    1
    15    18    19    1
    16    19    20    1
    17    20    21    1
    18    21    22    1
    19    22    23    1
    20     8    24    2
    21     5    25    1
    22    25    26    1
    23     2    26    1
    24     3    27    2
    25    27    28    1
    26    28    29    1
    27    29    30    1
    28     2    30    1
    29    30    31    1
    30    31    32    1
    31    32    35    1
    32    35    37    1
    33    29    37    1
    34    37    38    1
    35    38    39    1
    36    39    40    1
    37    35    40    1
    38    42    45    1
    39    45    46    1
    40    46    47    1
    41    47    48    1
    42    48    49    1
    43    48    50    1
    44    47    51    2
    45     1     2    1
    46    35    36    1
    47    40    41    1
    48    40    42    1
    49     5     7    1
    50     5     6    1
    51    32    34    1
    52    32    33    1
    53    42    44    1
    54    42    43    1
    55     1    52    1
    56     1    53    1
    57     1    54    1
    58     4    55    1
    59     4    56    1
    60     9    57    1
    61     9    58    1
    62    10    59    1
    63    10    60    1
    64    11    61    1
    65    11    62    1
    66    12    63    1
    67    12    64    1
    68    13    65    1
    69    13    66    1
    70    14    67    1
    71    14    68    1
    72    15    69    1
    73    15    70    1
    74    16    71    1
    75    16    72    1
    76    17    73    1
    77    17    74    1
    78    18    75    1
    79    18    76    1
    80    19    77    1
    81    19    78    1
    82    20    79    1
    83    20    80    1
    84    21    81    1
    85    21    82    1
    86    22    83    1
    87    22    84    1
    88    23    85    1
    89    23    86    1
    90    23    87    1
    91    25    88    1
    92    25    89    1
    93    26    90    1
    94    26    91    1
    95    27    92    1
    96    28    93    1
    97    28    94    1
    98    29    95    1
    99    30    96    1
   100    31    97    1
   101    31    98    1
   102    34    99    1
   103    36   100    1
   104    36   101    1
   105    36   102    1
   106    37   103    1
   107    38   104    1
   108    38   105    1
   109    39   106    1
   110    39   107    1
   111    44   108    1
   112    44   109    1
   113    44   110    1
   114    45   111    1
   115    45   112    1
   116    46   113    1
   117    46   114    1
   118    48   115    1
   119    49   116    1
   120    49   117    1
   121    49   118    1
   122    50   119    1
   123    50   120    1
   124    50   121    1
   125    51   122    1
   126    51   123    1
