REMARK  Name = NuBBE_1392
REMARK  3 active torsions:
REMARK  status: ('A' for Active; 'I' for Inactive)
REMARK    1  A    between atoms: C_1  and  C_2
REMARK    2  A    between atoms: C_12  and  C_13
REMARK    3  A    between atoms: C_12  and  C_14
REMARK                            x       y       z     vdW  Elec       q    Type
REMARK                         _______ _______ _______ _____ _____    ______ ____
ROOT
ATOM      1  C   LIG A   1      -2.401   2.782   0.567  0.00  0.00    +0.044 C 
ATOM      2  C   LIG A   1      -0.936   2.440   0.688  0.00  0.00    +0.093 C 
ATOM      3  C   LIG A   1       0.060   2.961  -0.349  0.00  0.00    +0.151 C 
ATOM      4  C   LIG A   1       1.509   2.605  -0.495  0.00  0.00    +0.039 C 
ATOM      5  C   LIG A   1       1.759   1.306  -1.259  0.00  0.00    +0.033 C 
ATOM      6  C   LIG A   1       1.889   0.107  -0.355  0.00  0.00    -0.073 C 
ATOM      7  C   LIG A   1       0.802  -0.900  -0.415  0.00  0.00    +0.019 C 
ATOM      8  C   LIG A   1      -0.127  -1.135   0.791  0.00  0.00    +0.002 C 
ATOM      9  C   LIG A   1      -0.488  -2.676  -0.002  0.00  0.00    -0.031 C 
ATOM     10  C   LIG A   1      -0.291  -3.827  -1.045  0.00  0.00    +0.011 C 
ATOM     11  C   LIG A   1      -1.959  -2.317  -0.346  0.00  0.00    +0.011 C 
ATOM     12  C   LIG A   1       1.148  -2.367  -0.222  0.00  0.00    +0.014 C 
ATOM     13  C   LIG A   1      -1.162  -0.026   1.058  0.00  0.00    +0.007 C 
ATOM     14  C   LIG A   1      -0.578   1.288   1.598  0.00  0.00    +0.037 C 
ATOM     15  C   LIG A   1       2.988  -0.069   0.422  0.00  0.00    +0.008 C 
ATOM     16  O   LIG A   1      -0.170   3.636   0.895  0.00  0.00    -0.365 OA
ENDROOT
TORSDOF 0
