REMARK  Name = NuBBE_311
REMARK  20 active torsions:
REMARK  status: ('A' for Active; 'I' for Inactive)
REMARK    1  A    between atoms: C_3  and  C_4
REMARK    2  A    between atoms: C_5  and  O_6
REMARK    3  A    between atoms: O_6  and  C_7
REMARK    4  A    between atoms: C_7  and  C_8
REMARK    5  A    between atoms: C_9  and  C_10
REMARK    6  A    between atoms: C_13  and  O_14
REMARK    7  A    between atoms: C_20  and  C_21
REMARK    8  A    between atoms: C_21  and  C_22
REMARK    9  A    between atoms: C_22  and  C_23
REMARK   10  A    between atoms: C_23  and  C_24
REMARK   11  A    between atoms: C_24  and  C_25
REMARK   12  A    between atoms: C_25  and  C_26
REMARK   13  A    between atoms: C_26  and  C_27
REMARK   14  A    between atoms: C_27  and  C_28
REMARK   15  A    between atoms: C_28  and  C_29
REMARK   16  A    between atoms: C_29  and  C_30
REMARK   17  A    between atoms: C_30  and  C_31
REMARK   18  A    between atoms: C_31  and  C_32
REMARK   19  A    between atoms: C_32  and  C_33
REMARK   20  A    between atoms: C_33  and  C_34
REMARK                            x       y       z     vdW  Elec       q    Type
REMARK                         _______ _______ _______ _____ _____    ______ ____
ROOT
ATOM      1  H   LIG A   1       2.808  -3.633  -2.218  0.00  0.00    +0.123 HD
ATOM      2  N   LIG A   1       1.984  -3.066  -2.063  0.00  0.00    -0.307 NA
ATOM      3  C   LIG A   1       2.326  -1.631  -2.229  0.00  0.00    +0.092 C 
ATOM      4  C   LIG A   1       2.695  -1.498  -3.689  0.00  0.00    +0.028 C 
ATOM      5  C   LIG A   1       1.195  -0.632  -2.029  0.00  0.00    +0.193 C 
ATOM      6  C   LIG A   1       0.313  -1.258  -1.035  0.00  0.00    +0.048 C 
ATOM      7  C   LIG A   1      -0.012  -2.729  -0.948  0.00  0.00    +0.022 C 
ATOM      8  C   LIG A   1       1.286  -3.476  -0.839  0.00  0.00    +0.054 C 
ENDROOT
BRANCH   8   9
ATOM      9  C   LIG A   1       2.101  -3.323   0.494  0.00  0.00    +0.019 C 
BRANCH   9  10
ATOM     10  C   LIG A   1       1.466  -3.852   1.813  0.00  0.00    +0.002 C 
BRANCH  10  11
ATOM     11  C   LIG A   1       0.184  -3.242   2.434  0.00  0.00    +0.000 C 
BRANCH  11  12
ATOM     12  C   LIG A   1       0.151  -1.809   3.037  0.00  0.00    -0.000 C 
BRANCH  12  13
ATOM     13  C   LIG A   1       0.389  -0.618   2.133  0.00  0.00    -0.000 C 
BRANCH  13  14
ATOM     14  C   LIG A   1      -0.692  -0.370   1.104  0.00  0.00    -0.000 C 
BRANCH  14  15
ATOM     15  C   LIG A   1      -2.164  -0.473   0.901  0.00  0.00    -0.000 C 
BRANCH  15  16
ATOM     16  C   LIG A   1      -2.789  -0.068  -0.455  0.00  0.00    -0.000 C 
BRANCH  16  17
ATOM     17  C   LIG A   1      -4.309  -0.034  -0.337  0.00  0.00    +0.000 C 
BRANCH  17  18
ATOM     18  C   LIG A   1      -4.954  -1.380   0.063  0.00  0.00    +0.000 C 
BRANCH  18  19
ATOM     19  C   LIG A   1      -4.572  -1.994   1.427  0.00  0.00    +0.007 C 
BRANCH  19  20
ATOM     20  C   LIG A   1      -4.726  -1.023   2.606  0.00  0.00    +0.074 C 
BRANCH  20  21
ATOM     21  C   LIG A   1      -4.059  -1.556   3.863  0.00  0.00    +0.130 C 
ATOM     22  C   LIG A   1      -3.608  -0.552   4.897  0.00  0.00    +0.086 C 
ATOM     23  O   LIG A   1      -3.866  -2.759   4.039  0.00  0.00    -0.298 OA
ENDBRANCH  20  21
ENDBRANCH  19  20
ENDBRANCH  18  19
ENDBRANCH  17  18
ENDBRANCH  16  17
ENDBRANCH  15  16
ENDBRANCH  14  15
ENDBRANCH  13  14
ENDBRANCH  12  13
ENDBRANCH  11  12
ENDBRANCH  10  11
ENDBRANCH   9  10
ENDBRANCH   8   9
BRANCH   5  24
ATOM     24  O   LIG A   1       1.589   0.637  -1.420  0.00  0.00    -0.457 OA
BRANCH  24  25
ATOM     25  C   LIG A   1       2.391   1.407  -2.204  0.00  0.00    +0.332 C 
ATOM     26  O   LIG A   1       2.958   1.121  -3.179  0.00  0.00    -0.246 OA
BRANCH  25  27
ATOM     27  C   LIG A   1       2.390   2.783  -1.744  0.00  0.00    +0.092 C 
ATOM     28  C   LIG A   1       3.172   3.570  -2.494  0.00  0.00    +0.015 C 
BRANCH  28  29
ATOM     29  C   LIG A   1       3.220   4.991  -2.257  0.00  0.00    -0.025 A 
ATOM     30  C   LIG A   1       2.077   5.651  -1.804  0.00  0.00    +0.011 A 
ATOM     31  C   LIG A   1       2.130   7.001  -1.527  0.00  0.00    +0.046 A 
ATOM     32  C   LIG A   1       3.324   7.679  -1.737  0.00  0.00    +0.117 A 
ATOM     33  C   LIG A   1       4.455   7.039  -2.238  0.00  0.00    +0.046 A 
ATOM     34  C   LIG A   1       4.406   5.679  -2.505  0.00  0.00    +0.011 A 
BRANCH  32  35
ATOM     35  O   LIG A   1       3.414   9.005  -1.448  0.00  0.00    -0.507 OA
ATOM     36  H   LIG A   1       2.592   9.259  -0.996  0.00  0.00    +0.292 HD
ENDBRANCH  32  35
ENDBRANCH  28  29
ENDBRANCH  25  27
ENDBRANCH  24  25
ENDBRANCH   5  24
TORSDOF 18
