REMARK  Name = NuBBE_1617
REMARK  2 active torsions:
REMARK  status: ('A' for Active; 'I' for Inactive)
REMARK    1  A    between atoms: O_1  and  C_2
REMARK    2  A    between atoms: O_1  and  C_3
REMARK                            x       y       z     vdW  Elec       q    Type
REMARK                         _______ _______ _______ _____ _____    ______ ____
ROOT
ATOM      1  C   LIG A   1      -1.529  -0.248  -0.022  0.00  0.00    +0.164 A 
ATOM      2  C   LIG A   1      -0.758  -1.417   0.052  0.00  0.00    +0.180 A 
ATOM      3  C   LIG A   1       0.631  -1.442   0.119  0.00  0.00    +0.067 A 
ATOM      4  C   LIG A   1       1.312  -0.215   0.116  0.00  0.00    +0.150 A 
ATOM      5  C   LIG A   1       0.590   0.984   0.052  0.00  0.00    +0.022 A 
ATOM      6  C   LIG A   1      -0.812   0.961  -0.015  0.00  0.00    +0.061 A 
ATOM      7  C   LIG A   1       1.322   2.243   0.058  0.00  0.00    +0.019 A 
ATOM      8  C   LIG A   1       2.657   2.236   0.118  0.00  0.00    +0.092 A 
ATOM      9  C   LIG A   1       3.440   0.991   0.181  0.00  0.00    +0.337 A 
ATOM     10  O   LIG A   1       4.663   1.023   0.233  0.00  0.00    -0.245 OA
ATOM     11  O   LIG A   1       2.724  -0.197   0.180  0.00  0.00    -0.421 OA
ATOM     12  C   LIG A   1       0.999  -2.813   0.176  0.00  0.00    +0.053 A 
ATOM     13  C   LIG A   1      -0.174  -3.530   0.141  0.00  0.00    +0.196 A 
ATOM     14  O   LIG A   1      -1.242  -2.695   0.066  0.00  0.00    -0.459 OA
ENDROOT
BRANCH   1  15
ATOM     15  O   LIG A   1      -2.888  -0.372  -0.080  0.00  0.00    -0.491 OA
ATOM     16  C   LIG A   1      -3.631   0.795  -0.400  0.00  0.00    +0.277 C 
ENDBRANCH   1  15
TORSDOF 1
