REMARK  Name = NuBBE_493
REMARK  8 active torsions:
REMARK  status: ('A' for Active; 'I' for Inactive)
REMARK    1  A    between atoms: C_1  and  C_2
REMARK    2  A    between atoms: C_3  and  C_4
REMARK    3  A    between atoms: C_6  and  C_9
REMARK    4  A    between atoms: C_9  and  C_10
REMARK    5  A    between atoms: C_26  and  C_28
REMARK    6  A    between atoms: C_30  and  C_31
REMARK    7  A    between atoms: C_32  and  O_34
REMARK    8  A    between atoms: C_37  and  O_39
REMARK                            x       y       z     vdW  Elec       q    Type
REMARK                         _______ _______ _______ _____ _____    ______ ____
ROOT
ATOM      1  C   LIG A   1      -3.804  -3.160   0.526  0.00  0.00    +0.041 C 
ATOM      2  C   LIG A   1      -2.562  -2.567  -0.101  0.00  0.00    -0.045 C 
ATOM      3  C   LIG A   1      -1.378  -3.224  -0.153  0.00  0.00    -0.065 C 
ATOM      4  C   LIG A   1      -1.308  -4.710   0.128  0.00  0.00    +0.039 C 
ATOM      5  C   LIG A   1      -0.077  -2.567  -0.647  0.00  0.00    +0.058 C 
ATOM      6  C   LIG A   1       1.075  -2.424   0.400  0.00  0.00    +0.086 C 
ATOM      7  N   LIG A   1       0.796  -1.140   0.993  0.00  0.00    -0.311 N 
ATOM      8  C   LIG A   1      -0.248  -1.056  -1.112  0.00  0.00    +0.126 C 
ATOM      9  C   LIG A   1      -1.650  -0.828  -1.718  0.00  0.00    +0.067 C 
ATOM     10  C   LIG A   1      -1.887   0.504  -2.430  0.00  0.00    -0.023 C 
ATOM     11  C   LIG A   1      -2.272   1.666  -1.878  0.00  0.00    -0.030 C 
ATOM     12  C   LIG A   1      -2.615   2.904  -2.671  0.00  0.00    +0.034 C 
ATOM     13  C   LIG A   1      -1.519   3.993  -2.706  0.00  0.00    +0.012 C 
ATOM     14  C   LIG A   1      -2.041   5.223  -3.456  0.00  0.00    +0.012 C 
ATOM     15  C   LIG A   1      -1.075   4.404  -1.320  0.00  0.00    -0.022 C 
ATOM     16  C   LIG A   1       0.184   4.549  -0.853  0.00  0.00    -0.041 C 
ATOM     17  C   LIG A   1       0.394   5.005   0.572  0.00  0.00    +0.042 C 
ATOM     18  C   LIG A   1       1.472   4.358  -1.624  0.00  0.00    +0.210 C 
ATOM     19  C   LIG A   1       1.656   3.045  -2.425  0.00  0.00    +0.189 C 
ATOM     20  O   LIG A   1       2.209   3.060  -3.529  0.00  0.00    -0.289 OA
ATOM     21  C   LIG A   1      -2.756  -1.185  -0.690  0.00  0.00    +0.148 C 
ATOM     22  C   LIG A   1       0.846  -0.751  -2.152  0.00  0.00    +0.172 C 
ATOM     23  C   LIG A   1       1.327   0.621  -2.496  0.00  0.00    +0.051 C 
ATOM     24  C   LIG A   1       1.190   1.766  -1.817  0.00  0.00    +0.052 C 
ATOM     25  O   LIG A   1       1.329  -1.658  -2.842  0.00  0.00    -0.291 OA
ATOM     26  C   LIG A   1      -0.031  -0.367   0.224  0.00  0.00    +0.228 C 
ATOM     27  O   LIG A   1      -0.486   0.701   0.605  0.00  0.00    -0.275 OA
ATOM     28  H   LIG A   1       1.138  -0.829   1.896  0.00  0.00    +0.149 HD
ENDROOT
BRANCH  18  29
ATOM     29  O   LIG A   1       1.632   5.494  -2.473  0.00  0.00    -0.380 OA
ATOM     30  H   LIG A   1       2.137   5.175  -3.247  0.00  0.00    +0.211 HD
ENDBRANCH  18  29
BRANCH  21  31
ATOM     31  O   LIG A   1      -4.020  -1.192  -1.366  0.00  0.00    -0.387 OA
ATOM     32  H   LIG A   1      -4.181  -0.281  -1.667  0.00  0.00    +0.210 HD
ENDBRANCH  21  31
BRANCH   6  33
ATOM     33  C   LIG A   1       1.243  -3.535   1.447  0.00  0.00    +0.060 C 
BRANCH  33  34
ATOM     34  C   LIG A   1       2.400  -3.303   2.377  0.00  0.00    -0.021 A 
ATOM     35  C   LIG A   1       3.700  -3.737   2.200  0.00  0.00    +0.087 A 
ATOM     36  N   LIG A   1       4.443  -3.316   3.271  0.00  0.00    -0.360 N 
ATOM     37  C   LIG A   1       3.657  -2.603   4.146  0.00  0.00    +0.047 A 
ATOM     38  C   LIG A   1       3.989  -1.975   5.352  0.00  0.00    +0.026 A 
ATOM     39  C   LIG A   1       2.969  -1.312   6.042  0.00  0.00    +0.002 A 
ATOM     40  C   LIG A   1       1.666  -1.292   5.549  0.00  0.00    +0.001 A 
ATOM     41  C   LIG A   1       1.350  -1.935   4.348  0.00  0.00    +0.010 A 
ATOM     42  C   LIG A   1       2.364  -2.595   3.623  0.00  0.00    +0.003 A 
ATOM     43  H   LIG A   1       5.428  -3.496   3.404  0.00  0.00    +0.165 HD
ENDBRANCH  33  34
ENDBRANCH   6  33
TORSDOF 4
