REMARK  Name = NuBBE_1054
REMARK  9 active torsions:
REMARK  status: ('A' for Active; 'I' for Inactive)
REMARK    1  A    between atoms: C_12  and  C_25
REMARK    2  A    between atoms: C_13  and  C_20
REMARK    3  A    between atoms: C_15  and  C_16
REMARK    4  A    between atoms: C_15  and  C_19
REMARK    5  A    between atoms: C_20  and  C_21
REMARK    6  A    between atoms: C_21  and  O_22
REMARK    7  A    between atoms: O_22  and  C_23
REMARK    8  A    between atoms: C_29  and  C_30
REMARK    9  A    between atoms: C_32  and  C_34
REMARK                            x       y       z     vdW  Elec       q    Type
REMARK                         _______ _______ _______ _____ _____    ______ ____
ROOT
ATOM      1  O   LIG A   1      -2.064  -4.227   3.958  0.00  0.00    -0.251 OA
ATOM      2  C   LIG A   1      -1.932  -3.187   3.315  0.00  0.00    +0.312 C 
ATOM      3  C   LIG A   1      -1.520  -3.232   1.843  0.00  0.00    +0.152 C 
ATOM      4  C   LIG A   1      -1.455  -1.911   1.090  0.00  0.00    -0.050 C 
ATOM      5  C   LIG A   1      -0.607  -1.673   0.055  0.00  0.00    -0.064 C 
ATOM      6  C   LIG A   1       0.343  -2.750  -0.450  0.00  0.00    +0.049 C 
ATOM      7  C   LIG A   1       1.408  -2.250  -1.412  0.00  0.00    +0.126 C 
ATOM      8  C   LIG A   1       0.689  -1.494  -2.461  0.00  0.00    +0.150 C 
ATOM      9  O   LIG A   1       0.604  -1.921  -3.609  0.00  0.00    -0.296 OA
ATOM     10  C   LIG A   1      -0.509  -0.275  -0.571  0.00  0.00    +0.028 C 
ATOM     11  C   LIG A   1       0.149  -0.147  -2.001  0.00  0.00    +0.037 C 
ATOM     12  C   LIG A   1       1.461   0.741  -1.957  0.00  0.00    +0.026 C 
ATOM     13  C   LIG A   1       2.655   0.064  -1.108  0.00  0.00    +0.028 C 
ATOM     14  C   LIG A   1       3.925   0.029  -1.989  0.00  0.00    +0.019 C 
ATOM     15  C   LIG A   1       2.427  -1.413  -0.691  0.00  0.00    +0.150 C 
ATOM     16  O   LIG A   1       3.104  -1.941   0.197  0.00  0.00    -0.296 OA
ATOM     17  C   LIG A   1       3.012   0.828   0.192  0.00  0.00    +0.019 C 
ATOM     18  C   LIG A   1      -0.845   0.292  -3.098  0.00  0.00    +0.020 C 
ATOM     19  C   LIG A   1      -1.862   0.450  -0.442  0.00  0.00    +0.010 C 
ATOM     20  C   LIG A   1      -2.260   0.547   1.024  0.00  0.00    +0.015 C 
ATOM     21  C   LIG A   1      -2.358  -0.841   1.704  0.00  0.00    +0.031 C 
ATOM     22  C   LIG A   1      -3.840  -1.293   1.567  0.00  0.00    +0.020 C 
ATOM     23  O   LIG A   1      -2.192  -1.993   3.893  0.00  0.00    -0.455 OA
ATOM     24  C   LIG A   1      -1.951  -0.744   3.208  0.00  0.00    +0.219 C 
ENDROOT
BRANCH  24  25
ATOM     25  C   LIG A   1      -0.541  -0.256   3.492  0.00  0.00    +0.031 A 
ATOM     26  C   LIG A   1       0.656  -0.913   3.266  0.00  0.00    +0.202 A 
ATOM     27  O   LIG A   1       1.714  -0.164   3.659  0.00  0.00    -0.471 OA
ATOM     28  C   LIG A   1       1.214   0.985   4.172  0.00  0.00    +0.195 A 
ATOM     29  C   LIG A   1      -0.159   0.986   4.091  0.00  0.00    +0.048 A 
ENDBRANCH  24  25
BRANCH  12  30
ATOM     30  C   LIG A   1       1.209   2.231  -1.565  0.00  0.00    +0.126 C 
BRANCH  30  31
ATOM     31  C   LIG A   1       0.538   3.090  -2.617  0.00  0.00    +0.307 C 
ATOM     32  O   LIG A   1       0.705   2.953  -3.816  0.00  0.00    -0.251 OA
BRANCH  31  33
ATOM     33  O   LIG A   1      -0.155   4.107  -2.024  0.00  0.00    -0.468 OA
ATOM     34  C   LIG A   1      -0.535   5.141  -2.934  0.00  0.00    +0.280 C 
ENDBRANCH  31  33
ENDBRANCH  30  31
ENDBRANCH  12  30
TORSDOF 4
