@<TRIPOS>MOLECULE
NuBBE_605
 98 102 0 0 0
SMALL
GASTEIGER

@<TRIPOS>ATOM
      1 C           3.2511    5.8976   -1.9812 C.2     1  LIG1       -0.0994
      2 C           3.0182    6.0233   -0.6611 C.2     1  LIG1       -0.0763
      3 C           3.5216    5.0654    0.4234 C.3     1  LIG1       -0.0168
      4 H           2.8128    5.0838    1.2618 H       1  LIG1        0.0348
      5 C           4.9132    5.5093    0.9416 C.3     1  LIG1       -0.0457
      6 C           5.8793    4.3661    0.6055 C.3     1  LIG1       -0.0468
      7 C           5.0040    3.1106    0.6958 C.3     1  LIG1       -0.0284
      8 C           5.5261    1.9127   -0.1097 C.3     1  LIG1       -0.0468
      9 C           4.4792    0.7834   -0.2114 C.3     1  LIG1       -0.0464
     10 C           2.9984    1.2158   -0.5795 C.3     1  LIG1       -0.0233
     11 C           1.9030    0.1023   -0.1524 C.3     1  LIG1       -0.0231
     12 C           2.1634   -1.2252   -0.9015 C.3     1  LIG1       -0.0466
     13 C           1.1200   -2.3000   -0.6247 C.3     1  LIG1       -0.0486
     14 C          -0.3223   -1.8569   -0.9526 C.3     1  LIG1       -0.0268
     15 H          -0.2838   -1.6321   -2.0318 H       1  LIG1        0.0312
     16 C          -1.3737   -3.0284   -0.8074 C.3     1  LIG1        0.0055
     17 C          -1.2150   -3.9433   -2.0626 C.3     1  LIG1       -0.0562
     18 C          -2.8815   -2.5493   -0.8016 C.3     1  LIG1        0.1084
     19 H          -3.3890   -2.9669   -1.6909 H       1  LIG1        0.0739
     20 C          -3.1819   -1.0410   -0.8488 C.3     1  LIG1       -0.0146
     21 C          -2.0128   -0.0807   -1.0543 C.3     1  LIG1       -0.0437
     22 C          -0.7263   -0.4965   -0.2856 C.3     1  LIG1       -0.0252
     23 C           0.4357    0.5805   -0.5424 C.3     1  LIG1       -0.0294
     24 H           0.4379    0.7019   -1.6348 H       1  LIG1        0.0312
     25 C           0.1327    1.9972    0.0107 C.3     1  LIG1       -0.0489
     26 C           1.2106    3.0439   -0.3113 C.3     1  LIG1       -0.0491
     27 C           2.5985    2.5687    0.1307 C.3     1  LIG1       -0.0313
     28 H           2.4970    2.3882    1.2051 H       1  LIG1        0.0309
     29 C           3.7283    3.5991   -0.0209 C.3     1  LIG1       -0.0258
     30 H           3.9777    3.6335   -1.0798 H       1  LIG1        0.0315
     31 C          -1.1112   -0.5956    1.2091 C.3     1  LIG1       -0.0590
     32 O          -3.6029   -3.0498    0.3674 O.3     1  LIG1       -0.4608
     33 C          -4.1587   -4.2917    0.3183 C.2     1  LIG1        0.3074
     34 C          -4.7579   -4.6520    1.6582 C.3     1  LIG1        0.0449
     35 C          -6.2315   -4.2788    1.7871 C.3     1  LIG1       -0.0430
     36 C          -7.1487   -4.9985    0.7910 C.3     1  LIG1       -0.0528
     37 C          -8.6098   -4.6022    1.0120 C.3     1  LIG1       -0.0559
     38 C          -9.5507   -5.2793    0.0276 C.3     1  LIG1       -0.0653
     39 O          -4.1463   -5.0418   -0.6489 O.2     1  LIG1       -0.2508
     40 C          -1.0215   -3.9272    0.4088 C.3     1  LIG1       -0.0562
     41 C           2.0133   -0.1644    1.3817 C.3     1  LIG1       -0.0588
     42 C           3.0206    1.4099   -2.1352 C.3     1  LIG1       -0.0588
     43 C           4.8279    2.7272    2.1845 C.3     1  LIG1       -0.0593
     44 C           2.2243    7.2035   -0.1674 C.3     1  LIG1       -0.0438
     45 H           2.8659    6.6181   -2.6969 H       1  LIG1        0.0534
     46 H           3.8466    5.1007   -2.4115 H       1  LIG1        0.0534
     47 H           4.8663    5.6461    2.0297 H       1  LIG1        0.0271
     48 H           5.2643    6.4574    0.5212 H       1  LIG1        0.0271
     49 H           6.7361    4.3445    1.2871 H       1  LIG1        0.0271
     50 H           6.2668    4.5028   -0.4112 H       1  LIG1        0.0271
     51 H           6.4441    1.5185    0.3435 H       1  LIG1        0.0271
     52 H           5.8030    2.2285   -1.1236 H       1  LIG1        0.0271
     53 H           4.5247    0.2487    0.7351 H       1  LIG1        0.0271
     54 H           4.8417    0.0532   -0.9470 H       1  LIG1        0.0271
     55 H           3.1514   -1.6231   -0.6434 H       1  LIG1        0.0271
     56 H           2.1655   -1.0625   -1.9846 H       1  LIG1        0.0271
     57 H           1.2060   -2.6315    0.4115 H       1  LIG1        0.0268
     58 H           1.3861   -3.1674   -1.2400 H       1  LIG1        0.0268
     59 H          -1.3829   -3.3771   -2.9864 H       1  LIG1        0.0236
     60 H          -1.9333   -4.7697   -2.0489 H       1  LIG1        0.0236
     61 H          -0.2183   -4.3909   -2.1251 H       1  LIG1        0.0236
     62 H          -3.7141   -0.7421    0.0703 H       1  LIG1        0.0301
     63 H          -3.9160   -0.8533   -1.6415 H       1  LIG1        0.0301
     64 H          -2.3470    0.9177   -0.7502 H       1  LIG1        0.0272
     65 H          -1.8035   -0.0068   -2.1299 H       1  LIG1        0.0272
     66 H           0.0109    1.9655    1.0981 H       1  LIG1        0.0268
     67 H          -0.8148    2.3693   -0.3921 H       1  LIG1        0.0268
     68 H           0.9444    3.9677    0.2158 H       1  LIG1        0.0268
     69 H           1.1932    3.2898   -1.3779 H       1  LIG1        0.0268
     70 H          -1.3762    0.3850    1.6168 H       1  LIG1        0.0235
     71 H          -0.3392   -1.0229    1.8385 H       1  LIG1        0.0235
     72 H          -1.9827   -1.2278    1.3879 H       1  LIG1        0.0235
     73 H          -4.1841   -4.1442    2.4444 H       1  LIG1        0.0377
     74 H          -4.6061   -5.7229    1.8298 H       1  LIG1        0.0377
     75 H          -6.3471   -3.1944    1.6729 H       1  LIG1        0.0270
     76 H          -6.5570   -4.5273    2.8059 H       1  LIG1        0.0270
     77 H          -7.0368   -6.0832    0.9040 H       1  LIG1        0.0265
     78 H          -6.8560   -4.7471   -0.2365 H       1  LIG1        0.0265
     79 H          -8.7186   -3.5154    0.9161 H       1  LIG1        0.0263
     80 H          -8.9111   -4.8681    2.0318 H       1  LIG1        0.0263
     81 H          -9.3700   -4.9291   -0.9936 H       1  LIG1        0.0230
     82 H         -10.5902   -5.0478    0.2831 H       1  LIG1        0.0230
     83 H          -9.4323   -6.3671    0.0466 H       1  LIG1        0.0230
     84 H          -1.7168   -4.7586    0.5381 H       1  LIG1        0.0236
     85 H          -0.9917   -3.3583    1.3413 H       1  LIG1        0.0236
     86 H          -0.0467   -4.4124    0.2828 H       1  LIG1        0.0236
     87 H           3.0358   -0.2806    1.7351 H       1  LIG1        0.0235
     88 H           1.5564   -1.1021    1.6874 H       1  LIG1        0.0235
     89 H           1.5593    0.6273    1.9820 H       1  LIG1        0.0235
     90 H           3.3699    0.5093   -2.6498 H       1  LIG1        0.0235
     91 H           3.7092    2.1984   -2.4498 H       1  LIG1        0.0235
     92 H           2.0456    1.6621   -2.5559 H       1  LIG1        0.0235
     93 H           4.2637    1.8015    2.3241 H       1  LIG1        0.0235
     94 H           4.3064    3.5022    2.7550 H       1  LIG1        0.0235
     95 H           5.8043    2.5681    2.6571 H       1  LIG1        0.0235
     96 H           1.8777    7.8368   -0.9922 H       1  LIG1        0.0274
     97 H           2.8376    7.8260    0.4911 H       1  LIG1        0.0274
     98 H           1.3401    6.8666    0.3816 H       1  LIG1        0.0274
@<TRIPOS>BOND
     1     1     2    2
     2     3     5    1
     3     5     6    1
     4     6     7    1
     5     7     8    1
     6     8     9    1
     7     9    10    1
     8    10    11    1
     9    11    12    1
    10    12    13    1
    11    13    14    1
    12    14    15    1
    13    14    16    1
    14    16    17    1
    15    16    18    1
    16    18    19    1
    17    18    20    1
    18    20    21    1
    19    21    22    1
    20    22    23    1
    21    23    24    1
    22    23    25    1
    23    25    26    1
    24    26    27    1
    25    27    28    1
    26    27    29    1
    27     3    29    1
    28    29    30    1
    29    14    22    1
    30    22    31    1
    31    18    32    1
    32    32    33    1
    33    33    34    1
    34    34    35    1
    35    35    36    1
    36    36    37    1
    37    37    38    1
    38    33    39    2
    39    16    40    1
    40    23    11    1
    41    11    41    1
    42    27    10    1
    43    10    42    1
    44    29     7    1
    45     7    43    1
    46     2    44    1
    47     3     4    1
    48     3     2    1
    49     1    45    1
    50     1    46    1
    51     5    47    1
    52     5    48    1
    53     6    49    1
    54     6    50    1
    55     8    51    1
    56     8    52    1
    57     9    53    1
    58     9    54    1
    59    12    55    1
    60    12    56    1
    61    13    57    1
    62    13    58    1
    63    17    59    1
    64    17    60    1
    65    17    61    1
    66    20    62    1
    67    20    63    1
    68    21    64    1
    69    21    65    1
    70    25    66    1
    71    25    67    1
    72    26    68    1
    73    26    69    1
    74    31    70    1
    75    31    71    1
    76    31    72    1
    77    34    73    1
    78    34    74    1
    79    35    75    1
    80    35    76    1
    81    36    77    1
    82    36    78    1
    83    37    79    1
    84    37    80    1
    85    38    81    1
    86    38    82    1
    87    38    83    1
    88    40    84    1
    89    40    85    1
    90    40    86    1
    91    41    87    1
    92    41    88    1
    93    41    89    1
    94    42    90    1
    95    42    91    1
    96    42    92    1
    97    43    93    1
    98    43    94    1
    99    43    95    1
   100    44    96    1
   101    44    97    1
   102    44    98    1
