REMARK  Name = NuBBE_353
REMARK  9 active torsions:
REMARK  status: ('A' for Active; 'I' for Inactive)
REMARK    1  A    between atoms: C_2  and  O_3
REMARK    2  A    between atoms: C_2  and  C_5
REMARK    3  A    between atoms: O_3  and  C_4
REMARK    4  A    between atoms: C_8  and  O_9
REMARK    5  A    between atoms: C_10  and  C_11
REMARK    6  A    between atoms: C_11  and  C_12
REMARK    7  A    between atoms: C_12  and  O_13
REMARK    8  A    between atoms: C_12  and  C_14
REMARK    9  A    between atoms: C_14  and  C_15
REMARK                            x       y       z     vdW  Elec       q    Type
REMARK                         _______ _______ _______ _____ _____    ______ ____
ROOT
ATOM      1  C   LIG A   1       0.481   2.536   0.558  0.00  0.00    +0.059 A 
ATOM      2  C   LIG A   1       1.105   3.087  -0.567  0.00  0.00    +0.018 A 
ATOM      3  C   LIG A   1       1.533   2.255  -1.604  0.00  0.00    +0.046 A 
ATOM      4  C   LIG A   1       1.343   0.874  -1.511  0.00  0.00    +0.120 A 
ATOM      5  C   LIG A   1       0.758   0.298  -0.380  0.00  0.00    -0.002 A 
ATOM      6  C   LIG A   1       0.318   1.143   0.645  0.00  0.00    +0.022 A 
ENDROOT
BRANCH   1   8
ATOM      7  O   LIG A   1      -0.153   4.658   1.494  0.00  0.00    -0.245 OA
ATOM      8  C   LIG A   1      -0.067   3.438   1.605  0.00  0.00    +0.339 C 
BRANCH   8   9
ATOM      9  O   LIG A   1      -0.515   2.687   2.635  0.00  0.00    -0.465 OA
ATOM     10  C   LIG A   1      -1.423   3.341   3.518  0.00  0.00    +0.280 C 
ENDBRANCH   8   9
ENDBRANCH   1   8
BRANCH   4  11
ATOM     11  O   LIG A   1       1.730   0.056  -2.536  0.00  0.00    -0.506 OA
ATOM     12  H   LIG A   1       2.056   0.613  -3.264  0.00  0.00    +0.292 HD
ENDBRANCH   4  11
BRANCH   5  13
ATOM     13  C   LIG A   1       0.609  -1.196  -0.219  0.00  0.00    +0.074 C 
BRANCH  13  14
ATOM     14  C   LIG A   1      -0.712  -1.781  -0.759  0.00  0.00    +0.144 C 
BRANCH  14  15
ATOM     15  C   LIG A   1      -0.791  -3.280  -0.524  0.00  0.00    -0.051 C 
ATOM     16  C   LIG A   1       0.271  -4.128  -1.173  0.00  0.00    +0.041 C 
ATOM     17  C   LIG A   1      -1.754  -3.849   0.224  0.00  0.00    +0.010 C 
ENDBRANCH  14  15
BRANCH  14  18
ATOM     18  O   LIG A   1      -0.859  -1.570  -2.162  0.00  0.00    -0.387 OA
ATOM     19  H   LIG A   1       0.036  -1.576  -2.547  0.00  0.00    +0.210 HD
ENDBRANCH  14  18
ENDBRANCH  13  14
ENDBRANCH   5  13
TORSDOF 7
