REMARK  Name = NuBBE_1472
REMARK  11 active torsions:
REMARK  status: ('A' for Active; 'I' for Inactive)
REMARK    1  A    between atoms: C_1  and  O_2
REMARK    2  A    between atoms: O_2  and  C_3
REMARK    3  A    between atoms: C_5  and  C_6
REMARK    4  A    between atoms: C_10  and  O_11
REMARK    5  A    between atoms: O_11  and  C_12
REMARK    6  A    between atoms: C_14  and  O_15
REMARK    7  A    between atoms: O_15  and  C_16
REMARK    8  A    between atoms: C_22  and  O_23
REMARK    9  A    between atoms: O_23  and  C_24
REMARK   10  A    between atoms: C_25  and  O_26
REMARK   11  A    between atoms: O_26  and  C_27
REMARK                            x       y       z     vdW  Elec       q    Type
REMARK                         _______ _______ _______ _____ _____    ______ ____
ROOT
ATOM      1  C   LIG A   1      -0.430   0.371  -0.826  0.00  0.00    +0.211 C 
ATOM      2  C   LIG A   1       0.567   1.442  -1.232  0.00  0.00    +0.129 C 
ATOM      3  C   LIG A   1      -0.176   2.755  -1.206  0.00  0.00    +0.174 C 
ATOM      4  C   LIG A   1      -0.931   3.000   0.050  0.00  0.00    +0.101 A 
ATOM      5  C   LIG A   1      -1.271   4.275   0.525  0.00  0.00    +0.138 A 
ATOM      6  C   LIG A   1      -1.953   4.383   1.752  0.00  0.00    +0.092 A 
ATOM      7  C   LIG A   1      -2.235   3.248   2.518  0.00  0.00    +0.127 A 
ATOM      8  C   LIG A   1      -1.898   1.995   2.029  0.00  0.00    +0.092 A 
ATOM      9  C   LIG A   1      -1.249   1.875   0.809  0.00  0.00    +0.139 A 
ATOM     10  O   LIG A   1      -0.936   0.587   0.491  0.00  0.00    -0.483 OA
ATOM     11  O   LIG A   1      -0.144   3.528  -2.134  0.00  0.00    -0.292 OA
ENDROOT
BRANCH   1  14
ATOM     12  C   LIG A   1       0.700  -3.095  -1.986  0.00  0.00    +0.166 A 
ATOM     13  C   LIG A   1       0.166  -1.796  -1.975  0.00  0.00    +0.057 A 
ATOM     14  C   LIG A   1       0.205  -1.005  -0.823  0.00  0.00    +0.000 A 
ATOM     15  C   LIG A   1       0.830  -1.522   0.321  0.00  0.00    +0.057 A 
ATOM     16  C   LIG A   1       1.423  -2.789   0.316  0.00  0.00    +0.166 A 
ATOM     17  C   LIG A   1       1.366  -3.590  -0.844  0.00  0.00    +0.203 A 
BRANCH  12  19
ATOM     18  C   LIG A   1      -0.124  -3.479  -4.209  0.00  0.00    +0.277 C 
ATOM     19  O   LIG A   1       0.569  -3.934  -3.059  0.00  0.00    -0.491 OA
ENDBRANCH  12  19
BRANCH  16  20
ATOM     20  O   LIG A   1       1.986  -3.128   1.527  0.00  0.00    -0.491 OA
ATOM     21  C   LIG A   1       3.054  -4.071   1.494  0.00  0.00    +0.277 C 
ENDBRANCH  16  20
BRANCH  17  22
ATOM     22  O   LIG A   1       1.966  -4.813  -0.731  0.00  0.00    -0.488 OA
ATOM     23  C   LIG A   1       2.095  -5.692  -1.829  0.00  0.00    +0.277 C 
ENDBRANCH  17  22
ENDBRANCH   1  14
BRANCH   5  24
ATOM     24  O   LIG A   1      -0.918   5.359  -0.230  0.00  0.00    -0.494 OA
ATOM     25  C   LIG A   1      -0.686   6.575   0.471  0.00  0.00    +0.277 C 
ENDBRANCH   5  24
BRANCH   7  26
ATOM     26  O   LIG A   1      -2.853   3.449   3.724  0.00  0.00    -0.495 OA
ATOM     27  C   LIG A   1      -2.570   2.450   4.706  0.00  0.00    +0.277 C 
ENDBRANCH   7  26
TORSDOF 6
