REMARK  Name = NuBBE_1898
REMARK  7 active torsions:
REMARK  status: ('A' for Active; 'I' for Inactive)
REMARK    1  A    between atoms: C_2  and  C_3
REMARK    2  A    between atoms: C_6  and  C_7
REMARK    3  A    between atoms: C_10  and  O_11
REMARK    4  A    between atoms: C_12  and  O_13
REMARK    5  A    between atoms: C_14  and  C_15
REMARK    6  A    between atoms: C_15  and  C_16
REMARK    7  A    between atoms: C_15  and  C_17
REMARK                            x       y       z     vdW  Elec       q    Type
REMARK                         _______ _______ _______ _____ _____    ______ ____
ROOT
ATOM      1  C   LIG A   1       0.651  -2.936   0.208  0.00  0.00    +0.025 A 
ATOM      2  C   LIG A   1       1.746  -3.058   1.079  0.00  0.00    +0.012 A 
ATOM      3  C   LIG A   1       2.309  -1.938   1.661  0.00  0.00    +0.005 A 
ATOM      4  C   LIG A   1       1.792  -0.670   1.389  0.00  0.00    -0.043 A 
ATOM      5  C   LIG A   1       2.454   0.506   2.071  0.00  0.00    +0.044 C 
ATOM      6  C   LIG A   1       0.684  -0.515   0.507  0.00  0.00    -0.010 A 
ATOM      7  C   LIG A   1       0.076  -1.655  -0.115  0.00  0.00    +0.038 A 
ATOM      8  C   LIG A   1      -1.030  -1.361  -0.978  0.00  0.00    +0.167 A 
ATOM      9  C   LIG A   1      -1.495  -0.053  -1.202  0.00  0.00    +0.162 A 
ATOM     10  C   LIG A   1      -0.907   1.044  -0.601  0.00  0.00    +0.001 A 
ATOM     11  C   LIG A   1       0.180   0.785   0.242  0.00  0.00    +0.016 A 
ENDROOT
BRANCH  10  12
ATOM     12  C   LIG A   1      -1.406   2.457  -0.845  0.00  0.00    +0.017 C 
ATOM     13  C   LIG A   1      -1.827   3.142   0.460  0.00  0.00    +0.012 C 
ATOM     14  C   LIG A   1      -0.360   3.295  -1.586  0.00  0.00    +0.012 C 
ENDBRANCH  10  12
BRANCH   1  16
ATOM     15  O   LIG A   1      -0.729  -4.403  -1.098  0.00  0.00    -0.296 OA
ATOM     16  C   LIG A   1       0.193  -4.253  -0.309  0.00  0.00    +0.259 C 
ENDBRANCH   1  16
BRANCH   8  17
ATOM     17  O   LIG A   1      -1.770  -2.282  -1.688  0.00  0.00    -0.503 OA
ATOM     18  H   LIG A   1      -1.422  -3.186  -1.543  0.00  0.00    +0.292 HD
ENDBRANCH   8  17
BRANCH   9  19
ATOM     19  O   LIG A   1      -2.562   0.116  -2.049  0.00  0.00    -0.503 OA
ATOM     20  H   LIG A   1      -2.783  -0.797  -2.329  0.00  0.00    +0.292 HD
ENDBRANCH   9  19
TORSDOF 4
