@<TRIPOS>MOLECULE
NuBBE_1281
 35 37 0 0 0
SMALL
GASTEIGER

@<TRIPOS>ATOM
      1 O          -5.9223    1.3767    2.4377 O.2     1  LIG1       -0.2452
      2 C          -4.7601    1.2201    2.0890 C.ar    1  LIG1        0.3372
      3 O          -3.7642    2.1427    2.3673 O.2     1  LIG1       -0.4219
      4 C          -2.4360    1.9652    1.9147 C.ar    1  LIG1        0.1461
      5 C          -1.5437    2.9808    2.2592 C.ar    1  LIG1        0.0245
      6 C          -0.2371    2.8088    1.8190 C.ar    1  LIG1        0.1418
      7 C           0.2107    1.7227    1.0700 C.ar    1  LIG1        0.0633
      8 C          -0.7291    0.7206    0.7269 C.ar    1  LIG1        0.1530
      9 O          -0.3812   -0.4825    0.0370 O.3     1  LIG1       -0.4244
     10 C           0.4403   -0.4447   -1.0861 C.2     1  LIG1        0.3126
     11 C           0.6954   -1.8553   -1.5776 C.3     1  LIG1        0.0477
     12 C           2.1794   -2.2514   -1.5753 C.3     1  LIG1       -0.0367
     13 C           2.3373   -3.6885   -2.0816 C.3     1  LIG1       -0.0622
     14 C           3.0459   -1.3113   -2.4173 C.3     1  LIG1       -0.0622
     15 O           0.8688    0.5663   -1.6355 O.2     1  LIG1       -0.2504
     16 C          -2.0660    0.8365    1.1763 C.ar    1  LIG1        0.0607
     17 C          -3.0926   -0.1737    0.9242 C.ar    1  LIG1       -0.0408
     18 C          -4.3445    0.0140    1.3522 C.ar    1  LIG1        0.0237
     19 C           1.6017    1.9606    0.8757 C.ar    1  LIG1       -0.0126
     20 C           1.8923    3.1566    1.4882 C.ar    1  LIG1        0.0933
     21 O           0.7824    3.6740    2.0696 O.2     1  LIG1       -0.4627
     22 H          -1.8400    3.8437    2.8420 H       1  LIG1        0.0692
     23 H           0.2587   -1.9370   -2.5815 H       1  LIG1        0.0380
     24 H           0.1359   -2.5540   -0.9434 H       1  LIG1        0.0380
     25 H           2.5509   -2.2160   -0.5433 H       1  LIG1        0.0301
     26 H           3.3914   -3.9880   -2.0816 H       1  LIG1        0.0232
     27 H           1.9573   -3.7965   -3.1034 H       1  LIG1        0.0232
     28 H           1.7951   -4.3909   -1.4401 H       1  LIG1        0.0232
     29 H           4.0231   -1.7544   -2.6360 H       1  LIG1        0.0232
     30 H           3.2360   -0.3778   -1.8775 H       1  LIG1        0.0232
     31 H           2.5639   -1.0652   -3.3692 H       1  LIG1        0.0232
     32 H          -2.8255   -1.0802    0.3924 H       1  LIG1        0.0628
     33 H          -5.1266   -0.7163    1.1811 H       1  LIG1        0.0689
     34 H           2.3087    1.3499    0.3331 H       1  LIG1        0.0656
     35 H           2.7933    3.7445    1.5939 H       1  LIG1        0.1030
@<TRIPOS>BOND
     1     1     2    2
     2     2     3   ar
     3     3     4   ar
     4     4     5   ar
     5     5     6   ar
     6     6     7   ar
     7     7     8   ar
     8     8     9    1
     9     9    10    1
    10    10    11    1
    11    11    12    1
    12    12    13    1
    13    12    14    1
    14    10    15    2
    15     8    16   ar
    16     4    16   ar
    17    16    17   ar
    18    17    18   ar
    19     2    18   ar
    20     7    19   ar
    21    19    20   ar
    22    20    21   ar
    23     6    21   ar
    24     5    22    1
    25    11    23    1
    26    11    24    1
    27    12    25    1
    28    13    26    1
    29    13    27    1
    30    13    28    1
    31    14    29    1
    32    14    30    1
    33    14    31    1
    34    17    32    1
    35    18    33    1
    36    19    34    1
    37    20    35    1
