REMARK  Name = NuBBE_1517
REMARK  9 active torsions:
REMARK  status: ('A' for Active; 'I' for Inactive)
REMARK    1  A    between atoms: C_7  and  C_9
REMARK    2  A    between atoms: C_9  and  C_10
REMARK    3  A    between atoms: C_10  and  C_11
REMARK    4  A    between atoms: C_11  and  C_12
REMARK    5  A    between atoms: C_12  and  C_13
REMARK    6  A    between atoms: C_13  and  C_14
REMARK    7  A    between atoms: C_14  and  C_15
REMARK    8  A    between atoms: C_15  and  C_16
REMARK    9  A    between atoms: C_16  and  C_17
REMARK                            x       y       z     vdW  Elec       q    Type
REMARK                         _______ _______ _______ _____ _____    ______ ____
ROOT
ATOM      1  O   LIG A   1      -3.889  -2.921  -1.294  0.00  0.00    -0.287 OA
ATOM      2  C   LIG A   1      -3.106  -2.787  -0.392  0.00  0.00    +0.190 A 
ATOM      3  C   LIG A   1      -2.608  -3.950   0.416  0.00  0.00    +0.045 A 
ATOM      4  C   LIG A   1      -1.683  -3.705   1.430  0.00  0.00    +0.050 A 
ATOM      5  N   LIG A   1      -1.144  -2.403   1.606  0.00  0.00    -0.358 N 
ATOM      6  H   LIG A   1      -0.542  -2.257   2.401  0.00  0.00    +0.166 HD
ATOM      7  C   LIG A   1      -1.726  -1.276   1.005  0.00  0.00    +0.020 A 
ATOM      8  C   LIG A   1      -2.654  -1.435   0.046  0.00  0.00    +0.072 A 
ATOM      9  C   LIG A   1      -1.336  -4.774   2.273  0.00  0.00    +0.026 A 
ATOM     10  C   LIG A   1      -1.892  -6.054   2.088  0.00  0.00    +0.002 A 
ATOM     11  C   LIG A   1      -2.772  -6.295   1.037  0.00  0.00    +0.001 A 
ATOM     12  C   LIG A   1      -3.142  -5.227   0.196  0.00  0.00    +0.013 A 
ENDROOT
BRANCH   7  13
ATOM     13  C   LIG A   1      -1.460   0.093   1.666  0.00  0.00    +0.053 C 
BRANCH  13  14
ATOM     14  C   LIG A   1      -1.029   1.360   0.898  0.00  0.00    +0.006 C 
BRANCH  14  15
ATOM     15  C   LIG A   1       0.337   1.457   0.225  0.00  0.00    +0.000 C 
BRANCH  15  16
ATOM     16  C   LIG A   1       1.601   1.297   1.058  0.00  0.00    +0.000 C 
BRANCH  16  17
ATOM     17  C   LIG A   1       2.885   1.348   0.188  0.00  0.00    -0.000 C 
BRANCH  17  18
ATOM     18  C   LIG A   1       3.266   2.622  -0.653  0.00  0.00    -0.000 C 
BRANCH  18  19
ATOM     19  C   LIG A   1       2.289   3.186  -1.722  0.00  0.00    -0.000 C 
BRANCH  19  20
ATOM     20  C   LIG A   1       2.786   4.375  -2.587  0.00  0.00    -0.003 C 
ATOM     21  C   LIG A   1       1.728   4.824  -3.610  0.00  0.00    +0.004 C 
ENDBRANCH  19  20
ENDBRANCH  18  19
ENDBRANCH  17  18
ENDBRANCH  16  17
ENDBRANCH  15  16
ENDBRANCH  14  15
ENDBRANCH  13  14
ENDBRANCH   7  13
TORSDOF 8
