REMARK  Name = NuBBE_2494
REMARK  6 active torsions:
REMARK  status: ('A' for Active; 'I' for Inactive)
REMARK    1  A    between atoms: C_1  and  C_2
REMARK    2  A    between atoms: C_2  and  C_3
REMARK    3  A    between atoms: C_4  and  C_5
REMARK    4  A    between atoms: C_14  and  C_15
REMARK    5  A    between atoms: C_14  and  C_16
REMARK    6  A    between atoms: C_21  and  C_22
REMARK                            x       y       z     vdW  Elec       q    Type
REMARK                         _______ _______ _______ _____ _____    ______ ____
ROOT
ATOM      1  C   LIG A   1       0.998   2.444  -0.555  0.00  0.00    -0.034 A 
ATOM      2  C   LIG A   1       2.410   2.426  -0.437  0.00  0.00    -0.047 A 
ATOM      3  C   LIG A   1       3.241   3.684  -0.435  0.00  0.00    +0.044 C 
ATOM      4  C   LIG A   1       3.075   1.204  -0.283  0.00  0.00    +0.004 A 
ATOM      5  C   LIG A   1       2.377  -0.001  -0.241  0.00  0.00    +0.005 A 
ATOM      6  C   LIG A   1       0.982  -0.030  -0.345  0.00  0.00    -0.030 A 
ATOM      7  C   LIG A   1       0.293   1.207  -0.523  0.00  0.00    +0.025 A 
ATOM      8  C   LIG A   1      -1.205   1.153  -0.680  0.00  0.00    +0.164 C 
ATOM      9  O   LIG A   1      -1.822   2.003  -1.317  0.00  0.00    -0.292 OA
ATOM     10  C   LIG A   1      -1.966  -0.009  -0.070  0.00  0.00    +0.085 C 
ATOM     11  C   LIG A   1      -1.042  -0.998   0.639  0.00  0.00    +0.020 C 
ATOM     12  C   LIG A   1      -1.750  -2.205   1.333  0.00  0.00    +0.027 C 
ATOM     13  C   LIG A   1      -2.801  -1.695   2.343  0.00  0.00    +0.019 C 
ATOM     14  C   LIG A   1      -2.445  -3.177   0.372  0.00  0.00    +0.019 C 
ATOM     15  C   LIG A   1      -0.689  -2.987   2.131  0.00  0.00    +0.139 C 
ATOM     16  O   LIG A   1      -0.993  -3.792   3.012  0.00  0.00    -0.297 OA
ATOM     17  C   LIG A   1       0.768  -2.725   1.803  0.00  0.00    +0.076 C 
ATOM     18  C   LIG A   1       0.921  -2.591   0.296  0.00  0.00    +0.019 C 
ATOM     19  C   LIG A   1       0.178  -1.349  -0.286  0.00  0.00    -0.002 C 
ATOM     20  C   LIG A   1      -0.176  -1.702  -1.755  0.00  0.00    +0.016 C 
ENDROOT
BRANCH   1  22
ATOM     21  C   LIG A   1       0.151   4.221  -2.152  0.00  0.00    +0.009 C 
ATOM     22  C   LIG A   1       0.282   3.777  -0.700  0.00  0.00    +0.033 C 
ENDBRANCH   1  22
TORSDOF 1
