REMARK  Name = NuBBE_1539
REMARK  6 active torsions:
REMARK  status: ('A' for Active; 'I' for Inactive)
REMARK    1  A    between atoms: C_1  and  C_3
REMARK    2  A    between atoms: C_1  and  C_4
REMARK    3  A    between atoms: C_6  and  C_7
REMARK    4  A    between atoms: C_6  and  C_9
REMARK    5  A    between atoms: C_12  and  C_15
REMARK    6  A    between atoms: C_15  and  C_17
REMARK                            x       y       z     vdW  Elec       q    Type
REMARK                         _______ _______ _______ _____ _____    ______ ____
ROOT
ATOM      1  C   LIG A   1       0.138   0.385   1.070  0.00  0.00    +0.024 C 
ATOM      2  C   LIG A   1       1.128  -0.815   0.790  0.00  0.00    -0.008 C 
ATOM      3  C   LIG A   1       0.917  -1.965   1.801  0.00  0.00    +0.016 C 
ATOM      4  C   LIG A   1       0.914  -1.353  -0.646  0.00  0.00    +0.012 C 
ATOM      5  C   LIG A   1       1.093  -0.281  -1.721  0.00  0.00    +0.009 C 
ATOM      6  C   LIG A   1       0.200   0.964  -1.534  0.00  0.00    +0.015 C 
ATOM      7  C   LIG A   1       0.203   1.452  -0.059  0.00  0.00    +0.016 C 
ENDROOT
BRANCH   1   8
ATOM      8  C   LIG A   1      -1.302   0.045   1.504  0.00  0.00    -0.076 C 
ATOM      9  C   LIG A   1      -2.192  -0.637   0.774  0.00  0.00    +0.007 C 
ATOM     10  C   LIG A   1      -1.715   0.510   2.886  0.00  0.00    +0.038 C 
ENDBRANCH   1   8
BRANCH   6  11
ATOM     11  C   LIG A   1      -1.180   0.932  -2.205  0.00  0.00    -0.077 C 
ATOM     12  C   LIG A   1      -1.671  -0.094  -2.925  0.00  0.00    +0.007 C 
ATOM     13  C   LIG A   1      -1.980   2.213  -2.138  0.00  0.00    +0.038 C 
ENDBRANCH   6  11
BRANCH   2  14
ATOM     14  C   LIG A   1       2.582  -0.322   0.949  0.00  0.00    -0.027 C 
ATOM     15  C   LIG A   1       3.695  -1.058   0.791  0.00  0.00    +0.004 C 
ENDBRANCH   2  14
TORSDOF 3
