@<TRIPOS>MOLECULE
NuBBE_1207
 83 87 0 0 0
SMALL
GASTEIGER

@<TRIPOS>ATOM
      1 O           2.9935   -5.6000    2.9421 O.3     1  LIG1       -0.3886
      2 C           2.0906   -4.6627    2.3336 C.3     1  LIG1        0.0888
      3 H           1.1090   -5.1559    2.3213 H       1  LIG1        0.0625
      4 C           2.0023   -3.4525    3.2742 C.3     1  LIG1        0.0822
      5 H           3.0006   -3.0578    3.4851 H       1  LIG1        0.0619
      6 C           1.0760   -2.3645    2.7357 C.3     1  LIG1       -0.0184
      7 C           1.4440   -1.8744    1.3033 C.3     1  LIG1       -0.0225
      8 C           1.5360   -3.1521    0.3764 C.3     1  LIG1       -0.0253
      9 C           2.5168   -4.2926    0.8810 C.3     1  LIG1        0.0227
     10 C           2.3278   -5.5608    0.0005 C.3     1  LIG1       -0.0547
     11 C           4.0303   -3.9590    0.8440 C.3     1  LIG1        0.0523
     12 O           4.4651   -3.6219   -0.4657 O.3     1  LIG1       -0.3944
     13 C           1.6391   -2.7809   -1.1195 C.3     1  LIG1       -0.0485
     14 C           0.4813   -1.8785   -1.5853 C.3     1  LIG1       -0.0463
     15 C           0.3379   -0.5700   -0.7685 C.3     1  LIG1       -0.0194
     16 C           0.2624   -0.9662    0.7585 C.3     1  LIG1       -0.0257
     17 C          -0.1289    0.2259    1.6817 C.3     1  LIG1       -0.0306
     18 C          -0.6300    1.4708    0.9953 C.2     1  LIG1       -0.0836
     19 C          -0.9623    1.5449   -0.3100 C.2     1  LIG1       -0.0629
     20 C          -1.0055    0.2453   -1.1307 C.3     1  LIG1       -0.0051
     21 C          -1.1420    0.5657   -2.6478 C.3     1  LIG1       -0.0424
     22 C          -2.2853    1.5462   -2.9650 C.3     1  LIG1       -0.0359
     23 C          -2.2417    2.8606   -2.1215 C.3     1  LIG1        0.0741
     24 C          -1.0642    2.8576   -1.1048 C.3     1  LIG1       -0.0031
     25 C          -1.0082    4.1867   -0.3012 C.3     1  LIG1       -0.0403
     26 C          -2.3642    4.6973    0.2443 C.3     1  LIG1       -0.0343
     27 C          -2.2318    5.0039    1.7505 C.3     1  LIG1       -0.0598
     28 C          -3.4755    3.6542    0.0433 C.3     1  LIG1       -0.0468
     29 C          -3.5936    3.1005   -1.3836 C.3     1  LIG1       -0.0362
     30 C          -2.7450    6.0238   -0.4474 C.3     1  LIG1       -0.0598
     31 C          -1.9687    3.9604   -3.1617 C.2     1  LIG1        0.3115
     32 O          -3.0602    4.3947   -3.8155 O.3     1  LIG1       -0.4802
     33 O          -0.8716    4.3940   -3.4966 O.2     1  LIG1       -0.2504
     34 C          -2.3022   -0.5327   -0.7372 C.3     1  LIG1       -0.0553
     35 C           1.5783    0.3202   -1.0984 C.3     1  LIG1       -0.0585
     36 C           2.7647   -1.0731    1.3916 C.3     1  LIG1       -0.0589
     37 O           1.4920   -3.8956    4.5388 O.3     1  LIG1       -0.3892
     38 H           2.8436   -6.4652    2.5216 H       1  LIG1        0.2099
     39 H           1.0686   -1.5281    3.4462 H       1  LIG1        0.0296
     40 H           0.0472   -2.7519    2.7447 H       1  LIG1        0.0296
     41 H           0.5399   -3.6218    0.4542 H       1  LIG1        0.0313
     42 H           1.2779   -5.8719   -0.0255 H       1  LIG1        0.0237
     43 H           2.9128   -6.4056    0.3807 H       1  LIG1        0.0237
     44 H           2.6569   -5.4023   -1.0310 H       1  LIG1        0.0237
     45 H           4.2999   -3.1443    1.5156 H       1  LIG1        0.0563
     46 H           4.6216   -4.8261    1.1607 H       1  LIG1        0.0563
     47 H           5.4256   -3.4731   -0.4195 H       1  LIG1        0.2094
     48 H           1.5964   -3.6830   -1.7380 H       1  LIG1        0.0268
     49 H           2.5965   -2.3080   -1.3460 H       1  LIG1        0.0268
     50 H          -0.4417   -2.4663   -1.5244 H       1  LIG1        0.0271
     51 H           0.6288   -1.6491   -2.6477 H       1  LIG1        0.0271
     52 H          -0.5998   -1.6459    0.8283 H       1  LIG1        0.0315
     53 H           0.7269    0.5304    2.2920 H       1  LIG1        0.0310
     54 H          -0.8950   -0.1057    2.3946 H       1  LIG1        0.0310
     55 H          -0.5666    2.3611    1.6110 H       1  LIG1        0.0572
     56 H          -1.3166   -0.3591   -3.2124 H       1  LIG1        0.0274
     57 H          -0.2234    0.9933   -3.0590 H       1  LIG1        0.0274
     58 H          -2.2319    1.7647   -4.0406 H       1  LIG1        0.0276
     59 H          -3.2467    1.0341   -2.8503 H       1  LIG1        0.0276
     60 H          -0.1244    2.8684   -1.6804 H       1  LIG1        0.0357
     61 H          -0.5820    4.9560   -0.9601 H       1  LIG1        0.0276
     62 H          -0.2604    4.1162    0.4973 H       1  LIG1        0.0276
     63 H          -1.9933    4.1027    2.3244 H       1  LIG1        0.0235
     64 H          -3.1644    5.4138    2.1547 H       1  LIG1        0.0235
     65 H          -1.4383    5.7371    1.9364 H       1  LIG1        0.0235
     66 H          -4.4465    4.0737    0.3388 H       1  LIG1        0.0271
     67 H          -3.3115    2.8106    0.7261 H       1  LIG1        0.0271
     68 H          -4.2497    3.7713   -1.9478 H       1  LIG1        0.0276
     69 H          -4.1599    2.1648   -1.3032 H       1  LIG1        0.0276
     70 H          -1.9755    6.7875   -0.2827 H       1  LIG1        0.0235
     71 H          -3.6888    6.4184   -0.0544 H       1  LIG1        0.0235
     72 H          -2.8644    5.9094   -1.5269 H       1  LIG1        0.0235
     73 H          -2.7081    5.0517   -4.4525 H       1  LIG1        0.2951
     74 H          -3.2075    0.0448   -0.9456 H       1  LIG1        0.0238
     75 H          -2.3708   -0.7676    0.3281 H       1  LIG1        0.0238
     76 H          -2.3894   -1.4715   -1.2931 H       1  LIG1        0.0238
     77 H           2.5212   -0.2215   -1.0548 H       1  LIG1        0.0235
     78 H           1.6789    1.1763   -0.4257 H       1  LIG1        0.0235
     79 H           1.5420    0.7104   -2.1183 H       1  LIG1        0.0235
     80 H           3.3621   -1.3360    2.2681 H       1  LIG1        0.0235
     81 H           2.5978    0.0032    1.4826 H       1  LIG1        0.0235
     82 H           3.4060   -1.2253    0.5221 H       1  LIG1        0.0235
     83 H           2.0391   -4.6720    4.7709 H       1  LIG1        0.2099
@<TRIPOS>BOND
     1     1     2    1
     2     2     3    1
     3     2     4    1
     4     4     6    1
     5     6     7    1
     6     7     8    1
     7     8     9    1
     8     2     9    1
     9    11    12    1
    10     8    13    1
    11    13    14    1
    12    14    15    1
    13    15    16    1
    14    16    17    1
    15    17    18    1
    16    18    19    2
    17    19    20    1
    18    20    21    1
    19    21    22    1
    20    22    23    1
    21    23    24    1
    22    19    24    1
    23    24    25    1
    24    25    26    1
    25    26    27    1
    26    26    28    1
    27    28    29    1
    28    26    30    1
    29    29    23    1
    30    23    31    1
    31    31    32    1
    32    31    33    2
    33    15    20    1
    34    20    34    1
    35    15    35    1
    36    16     7    1
    37     7    36    1
    38     9    11    1
    39     9    10    1
    40     4    37    1
    41     4     5    1
    42     1    38    1
    43     6    39    1
    44     6    40    1
    45     8    41    1
    46    10    42    1
    47    10    43    1
    48    10    44    1
    49    11    45    1
    50    11    46    1
    51    12    47    1
    52    13    48    1
    53    13    49    1
    54    14    50    1
    55    14    51    1
    56    16    52    1
    57    17    53    1
    58    17    54    1
    59    18    55    1
    60    21    56    1
    61    21    57    1
    62    22    58    1
    63    22    59    1
    64    24    60    1
    65    25    61    1
    66    25    62    1
    67    27    63    1
    68    27    64    1
    69    27    65    1
    70    28    66    1
    71    28    67    1
    72    29    68    1
    73    29    69    1
    74    30    70    1
    75    30    71    1
    76    30    72    1
    77    32    73    1
    78    34    74    1
    79    34    75    1
    80    34    76    1
    81    35    77    1
    82    35    78    1
    83    35    79    1
    84    36    80    1
    85    36    81    1
    86    36    82    1
    87    37    83    1
