REMARK  Name = NuBBE_1130
REMARK  12 active torsions:
REMARK  status: ('A' for Active; 'I' for Inactive)
REMARK    1  A    between atoms: C_1  and  C_2
REMARK    2  A    between atoms: C_8  and  C_9
REMARK    3  A    between atoms: C_13  and  C_14
REMARK    4  A    between atoms: C_13  and  C_15
REMARK    5  A    between atoms: C_21  and  C_35
REMARK    6  A    between atoms: C_22  and  C_23
REMARK    7  A    between atoms: C_23  and  C_25
REMARK    8  A    between atoms: C_23  and  C_26
REMARK    9  A    between atoms: C_26  and  C_27
REMARK   10  A    between atoms: C_27  and  C_28
REMARK   11  A    between atoms: C_29  and  C_30
REMARK   12  A    between atoms: C_29  and  C_31
REMARK                            x       y       z     vdW  Elec       q    Type
REMARK                         _______ _______ _______ _____ _____    ______ ____
ROOT
ATOM      1  C   LIG A   1      -2.266  -0.105  -1.509  0.00  0.00    +0.016 C 
ATOM      2  C   LIG A   1      -0.943   0.622  -1.144  0.00  0.00    -0.005 C 
ATOM      3  C   LIG A   1       0.151  -0.239  -1.811  0.00  0.00    -0.063 C 
ATOM      4  C   LIG A   1       0.539  -0.102  -3.096  0.00  0.00    -0.026 C 
ATOM      5  C   LIG A   1       1.226  -1.193  -3.870  0.00  0.00    +0.032 C 
ATOM      6  C   LIG A   1       0.941  -2.562  -3.213  0.00  0.00    +0.012 C 
ATOM      7  C   LIG A   1       1.452  -2.531  -1.732  0.00  0.00    -0.021 C 
ATOM      8  C   LIG A   1       2.966  -2.239  -1.618  0.00  0.00    +0.012 C 
ATOM      9  C   LIG A   1       1.143  -3.900  -1.071  0.00  0.00    +0.015 C 
ATOM     10  C   LIG A   1       1.653  -5.092  -1.865  0.00  0.00    +0.075 C 
ATOM     11  C   LIG A   1       1.108  -5.084  -3.266  0.00  0.00    +0.139 C 
ATOM     12  C   LIG A   1       1.301  -3.805  -4.094  0.00  0.00    +0.027 C 
ATOM     13  C   LIG A   1       2.728  -3.829  -4.660  0.00  0.00    +0.019 C 
ATOM     14  C   LIG A   1       0.327  -3.849  -5.303  0.00  0.00    +0.019 C 
ATOM     15  O   LIG A   1       0.588  -6.113  -3.737  0.00  0.00    -0.297 OA
ATOM     16  C   LIG A   1       0.601  -1.429  -0.974  0.00  0.00    +0.021 C 
ATOM     17  C   LIG A   1       1.247  -0.843   0.284  0.00  0.00    +0.009 C 
ATOM     18  C   LIG A   1       0.178  -0.175   1.145  0.00  0.00    +0.008 C 
ATOM     19  C   LIG A   1      -0.726   0.878   0.424  0.00  0.00    -0.020 C 
ATOM     20  C   LIG A   1      -0.012   2.300   0.499  0.00  0.00    -0.001 C 
ATOM     21  C   LIG A   1       0.025   2.828  -0.948  0.00  0.00    +0.005 C 
ATOM     22  C   LIG A   1      -1.053   2.064  -1.683  0.00  0.00    +0.012 C 
ATOM     23  C   LIG A   1      -2.085   0.810   1.160  0.00  0.00    +0.012 C 
ENDROOT
BRANCH  20  24
ATOM     24  C   LIG A   1      -0.499   3.412   1.494  0.00  0.00    -0.010 C 
ATOM     25  C   LIG A   1      -1.931   3.920   1.274  0.00  0.00    +0.008 C 
BRANCH  24  26
ATOM     26  C   LIG A   1      -0.213   3.048   2.970  0.00  0.00    +0.007 C 
BRANCH  26  27
ATOM     27  C   LIG A   1      -0.674   4.106   3.982  0.00  0.00    +0.027 C 
BRANCH  27  28
ATOM     28  C   LIG A   1      -0.380   3.661   5.388  0.00  0.00    -0.028 C 
ATOM     29  C   LIG A   1      -1.209   3.011   6.229  0.00  0.00    -0.080 C 
ATOM     30  C   LIG A   1      -2.620   2.596   5.908  0.00  0.00    +0.038 C 
ATOM     31  C   LIG A   1      -0.746   2.607   7.604  0.00  0.00    +0.038 C 
ENDBRANCH  27  28
ENDBRANCH  26  27
ENDBRANCH  24  26
ENDBRANCH  20  24
TORSDOF 4
