REMARK  Name = NuBBE_1091
REMARK  5 active torsions:
REMARK  status: ('A' for Active; 'I' for Inactive)
REMARK    1  A    between atoms: N_2  and  C_3
REMARK    2  A    between atoms: N_2  and  C_4
REMARK    3  A    between atoms: C_5  and  C_6
REMARK    4  A    between atoms: C_9  and  O_10
REMARK    5  A    between atoms: O_10  and  C_11
REMARK                            x       y       z     vdW  Elec       q    Type
REMARK                         _______ _______ _______ _____ _____    ______ ____
ROOT
ATOM      1  C   LIG A   1       0.915  -1.814   0.747  0.00  0.00    +0.038 A 
ATOM      2  C   LIG A   1       0.811  -0.396   0.834  0.00  0.00    +0.038 A 
ATOM      3  C   LIG A   1       1.580   0.287   1.801  0.00  0.00    +0.013 A 
ATOM      4  C   LIG A   1       2.401  -0.396   2.695  0.00  0.00    +0.001 A 
ATOM      5  C   LIG A   1       2.470  -1.779   2.640  0.00  0.00    +0.002 A 
ATOM      6  C   LIG A   1       1.726  -2.477   1.686  0.00  0.00    +0.023 A 
ENDROOT
BRANCH   2   7
ATOM      7  C   LIG A   1      -0.030   0.408  -0.090  0.00  0.00    +0.144 A 
ATOM      8  O   LIG A   1      -0.153  -0.119  -1.399  0.00  0.00    -0.422 OA
ATOM      9  C   LIG A   1      -0.640   1.553   0.248  0.00  0.00    +0.092 A 
ATOM     10  C   LIG A   1      -1.419   2.270  -0.725  0.00  0.00    +0.130 A 
ATOM     11  C   LIG A   1      -1.561   1.774  -1.961  0.00  0.00    +0.137 A 
ATOM     12  C   LIG A   1      -0.918   0.507  -2.339  0.00  0.00    +0.341 A 
ATOM     13  O   LIG A   1      -1.072   0.048  -3.463  0.00  0.00    -0.245 OA
BRANCH  10  14
ATOM     14  O   LIG A   1      -1.945   3.437  -0.230  0.00  0.00    -0.495 OA
ATOM     15  C   LIG A   1      -2.740   4.222  -1.110  0.00  0.00    +0.277 C 
ENDBRANCH  10  14
ENDBRANCH   2   7
BRANCH   1  17
ATOM     16  H   LIG A   1      -0.204  -1.946  -0.910  0.00  0.00    +0.146 HD
ATOM     17  N   LIG A   1       0.105  -2.550  -0.149  0.00  0.00    -0.346 N 
ATOM     18  C   LIG A   1       0.620  -3.805  -0.674  0.00  0.00    +0.125 C 
ENDBRANCH   1  17
TORSDOF 3
