REMARK  Name = NuBBE_2191
REMARK  5 active torsions:
REMARK  status: ('A' for Active; 'I' for Inactive)
REMARK    1  A    between atoms: C_1  and  C_2
REMARK    2  A    between atoms: C_8  and  C_9
REMARK    3  A    between atoms: C_8  and  C_11
REMARK    4  A    between atoms: C_18  and  C_19
REMARK    5  A    between atoms: C_18  and  C_20
REMARK                            x       y       z     vdW  Elec       q    Type
REMARK                         _______ _______ _______ _____ _____    ______ ____
ROOT
ATOM      1  C   LIG A   1      -1.669  -0.686   1.683  0.00  0.00    +0.016 C 
ATOM      2  C   LIG A   1      -0.429  -0.074   0.989  0.00  0.00    +0.000 C 
ATOM      3  C   LIG A   1      -0.668   1.403   0.520  0.00  0.00    +0.012 C 
ATOM      4  C   LIG A   1      -1.678   1.470  -0.628  0.00  0.00    +0.084 C 
ATOM      5  C   LIG A   1      -1.228   0.620  -1.788  0.00  0.00    +0.160 C 
ATOM      6  C   LIG A   1      -0.445  -0.623  -1.515  0.00  0.00    +0.003 C 
ATOM      7  C   LIG A   1      -0.084  -1.430  -2.737  0.00  0.00    +0.050 C 
ATOM      8  C   LIG A   1       1.116  -2.372  -2.501  0.00  0.00    -0.003 C 
ATOM      9  C   LIG A   1       1.231  -3.343  -3.693  0.00  0.00    +0.016 C 
ATOM     10  C   LIG A   1       0.819  -3.184  -1.234  0.00  0.00    +0.090 C 
ATOM     11  C   LIG A   1      -0.135  -0.956  -0.245  0.00  0.00    +0.008 C 
ATOM     12  C   LIG A   1       0.493  -2.313  -0.037  0.00  0.00    +0.161 C 
ATOM     13  O   LIG A   1       0.667  -2.760   1.096  0.00  0.00    -0.292 OA
ATOM     14  O   LIG A   1      -1.567   0.897  -2.938  0.00  0.00    -0.292 OA
ATOM     15  C   LIG A   1      -0.953   2.443   1.668  0.00  0.00    -0.031 C 
ATOM     16  C   LIG A   1      -0.400   3.824   1.226  0.00  0.00    +0.011 C 
ATOM     17  C   LIG A   1      -2.453   2.650   1.968  0.00  0.00    +0.011 C 
ATOM     18  C   LIG A   1      -0.237   2.033   2.979  0.00  0.00    +0.007 C 
ATOM     19  C   LIG A   1       1.040   1.255   2.711  0.00  0.00    +0.001 C 
ATOM     20  C   LIG A   1       0.783  -0.065   1.978  0.00  0.00    +0.012 C 
ENDROOT
BRANCH   8  21
ATOM     21  C   LIG A   1       2.413  -1.561  -2.463  0.00  0.00    -0.027 C 
ATOM     22  C   LIG A   1       3.356  -1.551  -1.511  0.00  0.00    +0.004 C 
ENDBRANCH   8  21
TORSDOF 1
