@<TRIPOS>MOLECULE
NuBBE_229
 82 84 0 0 0
SMALL
GASTEIGER

@<TRIPOS>ATOM
      1 C           1.1214    2.5102    1.3618 C.3     1  LIG1       -0.0584
      2 C          -0.0685    1.5426    1.2311 C.3     1  LIG1        0.0018
      3 H          -0.9072    2.0440    1.7292 H       1  LIG1        0.0340
      4 C           0.2866    0.2700    2.0399 C.3     1  LIG1        0.1328
      5 H           1.0936    0.4902    2.7508 H       1  LIG1        0.0763
      6 O          -0.8021   -0.2264    2.8690 O.3     1  LIG1       -0.4584
      7 C          -1.0056    0.4356    4.0503 C.2     1  LIG1        0.3074
      8 C          -0.9759   -0.5492    5.2081 C.3     1  LIG1        0.0447
      9 C          -2.2509   -0.5587    6.0374 C.3     1  LIG1       -0.0458
     10 C          -3.4789   -0.9698    5.2426 C.3     1  LIG1       -0.0648
     11 O          -1.0966    1.6309    4.1711 O.2     1  LIG1       -0.2508
     12 C           0.7349   -0.9420    1.1980 C.3     1  LIG1        0.1078
     13 H          -0.1447   -1.5598    0.9757 H       1  LIG1        0.0641
     14 O           1.5472   -1.7745    2.0458 O.3     1  LIG1       -0.3870
     15 C           1.4603   -0.6109   -0.1423 C.3     1  LIG1        0.0927
     16 C           1.7436   -1.9515   -0.8108 C.2     1  LIG1        0.0125
     17 C           3.1011   -2.4563   -0.4136 C.3     1  LIG1        0.2315
     18 H           3.0451   -3.2508    0.3390 H       1  LIG1        0.1111
     19 O           3.8804   -2.8542   -1.5482 O.3     1  LIG1       -0.4311
     20 C           3.7719   -4.1553   -1.9153 C.2     1  LIG1        0.3063
     21 C           4.6871   -4.4709   -3.0612 C.3     1  LIG1        0.0333
     22 O           2.9966   -4.9744   -1.4350 O.2     1  LIG1       -0.2511
     23 O           3.7496   -1.3494    0.2139 O.3     1  LIG1       -0.2971
     24 C           2.9487   -0.1685    0.0698 C.3     1  LIG1        0.2205
     25 H           3.0519    0.3972    1.0012 H       1  LIG1        0.1068
     26 O           3.4420    0.6440   -1.0169 O.3     1  LIG1       -0.4341
     27 C           4.7014    1.1326   -0.8462 C.2     1  LIG1        0.3061
     28 C           5.1294    2.0022   -1.9980 C.3     1  LIG1        0.0333
     29 O           5.4219    0.9383    0.1187 O.2     1  LIG1       -0.2511
     30 C           0.8392   -2.5784   -1.5767 C.2     1  LIG1       -0.0381
     31 C          -0.4284   -1.9014   -1.9843 C.3     1  LIG1        0.1220
     32 H          -1.1775   -2.0360   -1.1955 H       1  LIG1        0.0779
     33 O          -0.8229   -2.5503   -3.2029 O.3     1  LIG1       -0.4573
     34 C          -2.0509   -3.1247   -3.2190 C.2     1  LIG1        0.3045
     35 C          -2.0574   -4.2589   -4.2044 C.3     1  LIG1        0.0333
     36 O          -2.9881   -2.8478   -2.4733 O.2     1  LIG1       -0.2511
     37 C          -0.1002   -0.4224   -2.2454 C.3     1  LIG1       -0.0075
     38 C           0.5434    0.3415   -1.0303 C.3     1  LIG1       -0.0135
     39 H           1.2242    1.0572   -1.5071 H       1  LIG1        0.0319
     40 C          -0.5153    1.2743   -0.2536 C.3     1  LIG1       -0.0186
     41 C          -1.9214    0.6205   -0.2136 C.3     1  LIG1       -0.0586
     42 C          -0.6704    2.6356   -1.0796 C.3     1  LIG1       -0.0282
     43 C          -1.5710    3.7417   -0.5489 C.2     1  LIG1       -0.0806
     44 C          -2.8504    4.0863   -0.8141 C.2     1  LIG1       -0.0549
     45 C          -3.7558    3.3996   -1.7186 C.2     1  LIG1       -0.0662
     46 C          -4.9781    2.9742   -1.3627 C.2     1  LIG1       -0.0985
     47 C          -3.4621    5.3200   -0.1763 C.3     1  LIG1       -0.0400
     48 H           1.9917    2.1789    0.7990 H       1  LIG1        0.0234
     49 H           1.4205    2.6105    2.4125 H       1  LIG1        0.0234
     50 H           0.8766    3.5150    1.0179 H       1  LIG1        0.0234
     51 H          -0.1273   -0.2579    5.8382 H       1  LIG1        0.0377
     52 H          -0.7486   -1.5555    4.8397 H       1  LIG1        0.0377
     53 H          -2.4217    0.4272    6.4828 H       1  LIG1        0.0268
     54 H          -2.1161   -1.2644    6.8680 H       1  LIG1        0.0268
     55 H          -3.7549   -0.1959    4.5197 H       1  LIG1        0.0230
     56 H          -4.3290   -1.1156    5.9166 H       1  LIG1        0.0230
     57 H          -3.3092   -1.9057    4.7012 H       1  LIG1        0.0230
     58 H           1.0014   -2.0336    2.8099 H       1  LIG1        0.2100
     59 H           5.5857   -3.8489   -3.0285 H       1  LIG1        0.0342
     60 H           4.1603   -4.3144   -4.0055 H       1  LIG1        0.0342
     61 H           5.0066   -5.5155   -2.9873 H       1  LIG1        0.0342
     62 H           5.3800    2.9965   -1.6171 H       1  LIG1        0.0342
     63 H           4.3349    2.1101   -2.7404 H       1  LIG1        0.0342
     64 H           6.0044    1.5601   -2.4812 H       1  LIG1        0.0342
     65 H           1.0155   -3.5843   -1.9456 H       1  LIG1        0.0610
     66 H          -1.5491   -5.1203   -3.7561 H       1  LIG1        0.0342
     67 H          -1.5493   -3.9668   -5.1264 H       1  LIG1        0.0342
     68 H          -3.0847   -4.5390   -4.4501 H       1  LIG1        0.0342
     69 H          -0.9737    0.0937   -2.6540 H       1  LIG1        0.0307
     70 H           0.6216   -0.3824   -3.0753 H       1  LIG1        0.0307
     71 H          -1.8957   -0.3927    0.1899 H       1  LIG1        0.0235
     72 H          -2.3778    0.5703   -1.2076 H       1  LIG1        0.0235
     73 H          -2.6139    1.1972    0.4080 H       1  LIG1        0.0235
     74 H           0.3305    3.0901   -1.1538 H       1  LIG1        0.0313
     75 H          -0.9338    2.4175   -2.1212 H       1  LIG1        0.0313
     76 H          -1.0382    4.4152    0.1249 H       1  LIG1        0.0575
     77 H          -3.4617    3.3351   -2.7629 H       1  LIG1        0.0614
     78 H          -5.3411    3.0253   -0.3391 H       1  LIG1        0.0535
     79 H          -5.6644    2.5682   -2.0995 H       1  LIG1        0.0535
     80 H          -2.7793    5.8165    0.5203 H       1  LIG1        0.0277
     81 H          -4.3653    5.0652    0.3878 H       1  LIG1        0.0277
     82 H          -3.7365    6.0543   -0.9447 H       1  LIG1        0.0277
@<TRIPOS>BOND
     1     2     4    1
     2     6     7    1
     3     7     8    1
     4     8     9    1
     5     9    10    1
     6     7    11    2
     7     4    12    1
     8    12    15    1
     9    15    16    1
    10    16    17    1
    11    19    20    1
    12    20    21    1
    13    20    22    2
    14    17    23    1
    15    23    24    1
    16    15    24    1
    17    26    27    1
    18    27    28    1
    19    27    29    2
    20    16    30    2
    21    30    31    1
    22    33    34    1
    23    34    35    1
    24    34    36    2
    25    31    37    1
    26    37    38    1
    27    15    38    1
    28    38    40    1
    29     2    40    1
    30    42    43    1
    31    43    44    2
    32    44    45    1
    33    45    46    2
    34    44    47    1
    35    12    13    1
    36    12    14    1
    37    17    18    1
    38    17    19    1
    39    24    25    1
    40    24    26    1
    41    38    39    1
    42    40    41    1
    43    40    42    1
    44     4     6    1
    45     4     5    1
    46     2     3    1
    47     2     1    1
    48    31    33    1
    49    31    32    1
    50     1    48    1
    51     1    49    1
    52     1    50    1
    53     8    51    1
    54     8    52    1
    55     9    53    1
    56     9    54    1
    57    10    55    1
    58    10    56    1
    59    10    57    1
    60    14    58    1
    61    21    59    1
    62    21    60    1
    63    21    61    1
    64    28    62    1
    65    28    63    1
    66    28    64    1
    67    30    65    1
    68    35    66    1
    69    35    67    1
    70    35    68    1
    71    37    69    1
    72    37    70    1
    73    41    71    1
    74    41    72    1
    75    41    73    1
    76    42    74    1
    77    42    75    1
    78    43    76    1
    79    45    77    1
    80    46    78    1
    81    46    79    1
    82    47    80    1
    83    47    81    1
    84    47    82    1
