@<TRIPOS>MOLECULE
NuBBE_1807
 53 52 0 0 0
SMALL
GASTEIGER

@<TRIPOS>ATOM
      1 O           0.1707    3.5263    0.6512 O.3     1  LIG1       -0.3925
      2 C           1.2967    4.2109    0.1393 C.3     1  LIG1        0.0701
      3 C           2.6898    3.5687   -0.1697 C.3     1  LIG1        0.0786
      4 O           3.3525    3.0005    0.9380 O.3     1  LIG1       -0.3895
      5 C           2.8884    2.6362   -1.3894 C.3     1  LIG1       -0.0197
      6 C           2.2005    1.2426   -1.4490 C.3     1  LIG1       -0.0131
      7 C           2.5288    0.2816   -0.2574 C.3     1  LIG1       -0.0219
      8 C           2.2809    0.5321    1.2712 C.3     1  LIG1        0.0556
      9 C           0.9246    0.8987    1.8635 C.3     1  LIG1       -0.0268
     10 C          -0.2033   -0.0919    1.7243 C.3     1  LIG1       -0.0507
     11 C          -0.0250   -1.4425    2.3932 C.3     1  LIG1       -0.0530
     12 C          -1.2278   -2.3464    2.0751 C.3     1  LIG1       -0.0531
     13 C          -1.4380   -2.5850    0.5460 C.3     1  LIG1       -0.0530
     14 C          -2.6630   -3.4504    0.2210 C.3     1  LIG1       -0.0522
     15 C          -2.9578   -3.8376   -1.2547 C.3     1  LIG1       -0.0422
     16 C          -3.3206   -2.8342   -2.3677 C.3     1  LIG1        0.0089
     17 C          -4.6024   -2.1977   -2.1524 C.1     1  LIG1       -0.1056
     18 C          -5.7690   -1.7947   -2.0010 C.1     1  LIG1       -0.1192
     19 O           2.7691   -0.5980    1.9976 O.3     1  LIG1       -0.3918
     20 C           0.7068    1.3763   -1.6364 C.3     1  LIG1        0.0472
     21 O           0.2863    2.2692   -2.6502 O.3     1  LIG1       -0.3947
     22 H          -0.2958    3.0125   -0.0210 H       1  LIG1        0.2095
     23 H           1.4706    4.9011    0.9638 H       1  LIG1        0.0583
     24 H           0.9551    4.7496   -0.7426 H       1  LIG1        0.0583
     25 H           3.3317    4.4344   -0.3705 H       1  LIG1        0.0616
     26 H           3.3133    3.5660    1.7237 H       1  LIG1        0.2099
     27 H           3.9705    2.4424   -1.4803 H       1  LIG1        0.0294
     28 H           2.6285    3.2084   -2.2903 H       1  LIG1        0.0294
     29 H           2.5717    0.7544   -2.3696 H       1  LIG1        0.0324
     30 H           3.6110    0.1090   -0.3333 H       1  LIG1        0.0293
     31 H           2.0797   -0.6906   -0.5009 H       1  LIG1        0.0293
     32 H           2.9704    1.2633    1.6404 H       1  LIG1        0.0593
     33 H           0.5470    1.7704    1.3860 H       1  LIG1        0.0290
     34 H           1.0337    1.2239    2.9073 H       1  LIG1        0.0290
     35 H          -0.3739   -0.2071    0.6551 H       1  LIG1        0.0266
     36 H          -1.1082    0.3716    2.1404 H       1  LIG1        0.0266
     37 H           0.0808   -1.2911    3.4773 H       1  LIG1        0.0265
     38 H           0.8782   -1.9575    2.0670 H       1  LIG1        0.0265
     39 H          -2.1194   -1.8815    2.5116 H       1  LIG1        0.0265
     40 H          -1.0762   -3.3005    2.5945 H       1  LIG1        0.0265
     41 H          -0.5262   -3.0419    0.1441 H       1  LIG1        0.0265
     42 H          -1.5860   -1.6291    0.0423 H       1  LIG1        0.0265
     43 H          -3.5517   -2.9917    0.6668 H       1  LIG1        0.0266
     44 H          -2.5191   -4.4055    0.7448 H       1  LIG1        0.0266
     45 H          -3.8215   -4.5140   -1.1923 H       1  LIG1        0.0274
     46 H          -2.1269   -4.4463   -1.6270 H       1  LIG1        0.0274
     47 H          -3.4448   -3.4351   -3.2868 H       1  LIG1        0.0397
     48 H          -2.5201   -2.1242   -2.6066 H       1  LIG1        0.0397
     49 H          -6.7729   -1.5589   -1.8619 H       1  LIG1        0.1228
     50 H           2.6059   -1.3696    1.4405 H       1  LIG1        0.2098
     51 H           0.4785    1.8249   -0.7154 H       1  LIG1        0.0560
     52 H           0.1067    0.4637   -1.6455 H       1  LIG1        0.0560
     53 H          -0.6786    2.3843   -2.5543 H       1  LIG1        0.2094
@<TRIPOS>BOND
     1     1     2    1
     2     2     3    1
     3     3     4    1
     4     3     5    1
     5     5     6    1
     6     6     7    1
     7     7     8    1
     8     8     9    1
     9     9    10    1
    10    10    11    1
    11    11    12    1
    12    12    13    1
    13    13    14    1
    14    14    15    1
    15    15    16    1
    16    16    17    1
    17    17    18    3
    18     8    19    1
    19     6    20    1
    20    20    21    1
    21     1    22    1
    22     2    23    1
    23     2    24    1
    24     3    25    1
    25     4    26    1
    26     5    27    1
    27     5    28    1
    28     6    29    1
    29     7    30    1
    30     7    31    1
    31     8    32    1
    32     9    33    1
    33     9    34    1
    34    10    35    1
    35    10    36    1
    36    11    37    1
    37    11    38    1
    38    12    39    1
    39    12    40    1
    40    13    41    1
    41    13    42    1
    42    14    43    1
    43    14    44    1
    44    15    45    1
    45    15    46    1
    46    16    47    1
    47    16    48    1
    48    18    49    1
    49    19    50    1
    50    20    51    1
    51    20    52    1
    52    21    53    1
