@<TRIPOS>MOLECULE
NuBBE_1506
 49 50 0 0 0
SMALL
GASTEIGER

@<TRIPOS>ATOM
      1 C           0.8109   -2.3066    0.1457 C.3     1  LIG1        0.0119
      2 C          -0.5361   -3.0728    0.1533 C.3     1  LIG1        0.1613
      3 S          -1.6895   -2.5670    1.5309 S.3     1  LIG1       -0.1292
      4 C          -0.7008   -2.9785    2.9925 C.3     1  LIG1       -0.0156
      5 C          -0.2239   -4.5953    0.3169 C.2     1  LIG1        0.2484
      6 O           0.7111   -5.0280    0.9835 O.2     1  LIG1       -0.2725
      7 N          -1.2048   -5.4638   -0.1084 N.am    1  LIG1       -0.2933
      8 C          -2.0534   -5.1652   -1.2440 C.3     1  LIG1        0.1463
      9 H          -3.0248   -5.6177   -1.0218 H       1  LIG1        0.0713
     10 C          -2.2718   -3.6564   -1.5084 C.2     1  LIG1        0.2450
     11 O          -3.1706   -3.2164   -2.2150 O.2     1  LIG1       -0.2728
     12 N          -1.2686   -2.8171   -1.0847 N.am    1  LIG1       -0.2908
     13 S          -1.3130   -5.9921   -2.6926 S.3     1  LIG1       -0.1327
     14 C          -2.5136   -5.5247   -3.9690 C.3     1  LIG1       -0.0159
     15 C           0.7265   -0.8064   -0.0207 C.ar    1  LIG1       -0.0438
     16 C           0.7483   -0.2147   -1.2909 C.ar    1  LIG1       -0.0550
     17 C           0.7115    1.1809   -1.4291 C.ar    1  LIG1       -0.0197
     18 C           0.6456    1.9987   -0.2963 C.ar    1  LIG1        0.1210
     19 C           0.5867    1.3966    0.9602 C.ar    1  LIG1       -0.0197
     20 C           0.6350    0.0165    1.1003 C.ar    1  LIG1       -0.0550
     21 O           0.6516    3.3623   -0.4798 O.3     1  LIG1       -0.4880
     22 C           0.5734    4.1238    0.7386 C.3     1  LIG1        0.1080
     23 C           0.6088    5.5872    0.4315 C.2     1  LIG1       -0.0484
     24 C           1.4960    6.5120    0.8529 C.2     1  LIG1       -0.0765
     25 C           2.6912    6.2587    1.7332 C.3     1  LIG1       -0.0439
     26 C           1.3518    7.9484    0.4243 C.3     1  LIG1       -0.0439
     27 H           1.4001   -2.5251    1.0461 H       1  LIG1        0.0347
     28 H           1.4333   -2.6927   -0.6746 H       1  LIG1        0.0347
     29 H          -1.2229   -2.5990    3.8756 H       1  LIG1        0.0341
     30 H           0.2818   -2.5058    2.9656 H       1  LIG1        0.0341
     31 H          -0.5916   -4.0587    3.1037 H       1  LIG1        0.0341
     32 H          -0.9603   -6.4362    0.0206 H       1  LIG1        0.1503
     33 H          -1.5025   -1.8464   -1.2544 H       1  LIG1        0.1506
     34 H          -2.3354   -6.1284   -4.8629 H       1  LIG1        0.0341
     35 H          -2.3843   -4.4767   -4.2488 H       1  LIG1        0.0341
     36 H          -3.5379   -5.7035   -3.6312 H       1  LIG1        0.0341
     37 H           0.8059   -0.8387   -2.1817 H       1  LIG1        0.0621
     38 H           0.7428    1.6091   -2.4287 H       1  LIG1        0.0654
     39 H           0.5113    1.9729    1.8739 H       1  LIG1        0.0654
     40 H           0.6030   -0.3881    2.1069 H       1  LIG1        0.0621
     41 H           1.3922    3.8481    1.4098 H       1  LIG1        0.0742
     42 H          -0.3853    3.9147    1.2322 H       1  LIG1        0.0742
     43 H          -0.2234    5.9067   -0.1927 H       1  LIG1        0.0605
     44 H           2.7675    5.2310    2.0929 H       1  LIG1        0.0274
     45 H           2.6549    6.9057    2.6171 H       1  LIG1        0.0274
     46 H           3.6114    6.4847    1.1838 H       1  LIG1        0.0274
     47 H           0.4780    8.1048   -0.2164 H       1  LIG1        0.0274
     48 H           2.2376    8.2600   -0.1383 H       1  LIG1        0.0274
     49 H           1.2460    8.5992    1.2983 H       1  LIG1        0.0274
@<TRIPOS>BOND
     1     3     4    1
     2     2     5    1
     3     5     6    2
     4     5     7   am
     5     7     8    1
     6     8     9    1
     7     8    10    1
     8    10    11    2
     9    10    12   am
    10     2    12    1
    11     8    13    1
    12    13    14    1
    13     1    15    1
    14    15    16   ar
    15    16    17   ar
    16    17    18   ar
    17    18    19   ar
    18    19    20   ar
    19    15    20   ar
    20    18    21    1
    21    21    22    1
    22    22    23    1
    23    23    24    2
    24    24    25    1
    25    24    26    1
    26     2     3    1
    27     2     1    1
    28     1    27    1
    29     1    28    1
    30     4    29    1
    31     4    30    1
    32     4    31    1
    33     7    32    1
    34    12    33    1
    35    14    34    1
    36    14    35    1
    37    14    36    1
    38    16    37    1
    39    17    38    1
    40    19    39    1
    41    20    40    1
    42    22    41    1
    43    22    42    1
    44    23    43    1
    45    25    44    1
    46    25    45    1
    47    25    46    1
    48    26    47    1
    49    26    48    1
    50    26    49    1
