@<TRIPOS>MOLECULE
NuBBE_1500
 34 34 0 0 0
SMALL
GASTEIGER

@<TRIPOS>ATOM
      1 C          -1.2480   -0.1348   -0.3109 C.2     1  LIG1       -0.0548
      2 C          -2.1199    0.3832    0.5666 C.2     1  LIG1       -0.0192
      3 C          -3.5821    0.1711    0.3900 C.2     1  LIG1        0.1530
      4 O          -4.0220   -0.6820   -0.3806 O.2     1  LIG1       -0.2930
      5 C          -4.5045    1.0766    1.1627 C.3     1  LIG1       -0.0020
      6 C           0.2020    0.0322   -0.2326 C.2     1  LIG1       -0.0426
      7 C           0.8028    1.2490   -0.2809 C.2     1  LIG1       -0.0689
      8 C           2.3101    1.4135   -0.2530 C.3     1  LIG1       -0.0314
      9 C           3.0912    0.1329   -0.5069 C.3     1  LIG1       -0.0486
     10 C           2.4815   -1.0131    0.2808 C.3     1  LIG1       -0.0436
     11 C           1.0093   -1.2860   -0.1300 C.3     1  LIG1       -0.0099
     12 C           0.9930   -2.0196   -1.4907 C.3     1  LIG1       -0.0558
     13 C           0.4285   -2.2365    0.9436 C.3     1  LIG1       -0.0558
     14 C           0.0993    2.5823   -0.3897 C.3     1  LIG1       -0.0432
     15 H          -1.6117   -0.7589   -1.1271 H       1  LIG1        0.0621
     16 H          -1.7981    0.9982    1.3977 H       1  LIG1        0.0652
     17 H          -3.9588    1.6620    1.9074 H       1  LIG1        0.0309
     18 H          -5.2521    0.4726    1.6835 H       1  LIG1        0.0309
     19 H          -4.9963    1.7634    0.4680 H       1  LIG1        0.0309
     20 H           2.5905    1.8208    0.7269 H       1  LIG1        0.0310
     21 H           2.6195    2.1512   -1.0036 H       1  LIG1        0.0310
     22 H           4.1374    0.2767   -0.2135 H       1  LIG1        0.0269
     23 H           3.0974   -0.0976   -1.5785 H       1  LIG1        0.0269
     24 H           2.5333   -0.7679    1.3509 H       1  LIG1        0.0274
     25 H           3.0925   -1.9142    0.1434 H       1  LIG1        0.0274
     26 H           1.3039   -1.3645   -2.3117 H       1  LIG1        0.0238
     27 H          -0.0060   -2.3973   -1.7360 H       1  LIG1        0.0238
     28 H           1.6671   -2.8841   -1.4807 H       1  LIG1        0.0238
     29 H           0.3002   -1.7216    1.9029 H       1  LIG1        0.0238
     30 H           1.0956   -3.0903    1.1134 H       1  LIG1        0.0238
     31 H          -0.5445   -2.6451    0.6488 H       1  LIG1        0.0238
     32 H          -0.9857    2.5149   -0.4810 H       1  LIG1        0.0275
     33 H           0.4535    3.1231   -1.2739 H       1  LIG1        0.0275
     34 H           0.3211    3.1898    0.4948 H       1  LIG1        0.0275
@<TRIPOS>BOND
     1     1     2    2
     2     2     3    1
     3     3     4    2
     4     3     5    1
     5     1     6    1
     6     6     7    2
     7     7     8    1
     8     8     9    1
     9     9    10    1
    10    10    11    1
    11     6    11    1
    12    11    12    1
    13    11    13    1
    14     7    14    1
    15     1    15    1
    16     2    16    1
    17     5    17    1
    18     5    18    1
    19     5    19    1
    20     8    20    1
    21     8    21    1
    22     9    22    1
    23     9    23    1
    24    10    24    1
    25    10    25    1
    26    12    26    1
    27    12    27    1
    28    12    28    1
    29    13    29    1
    30    13    30    1
    31    13    31    1
    32    14    32    1
    33    14    33    1
    34    14    34    1
