@<TRIPOS>MOLECULE
NuBBE_2360
 51 53 0 0 0
SMALL
GASTEIGER

@<TRIPOS>ATOM
      1 C          -3.8155   -1.6998    1.8225 C.3     1  LIG1       -0.0491
      2 C          -2.2616   -1.7033    1.8695 C.3     1  LIG1        0.0684
      3 C          -1.7249   -3.1348    1.5894 C.2     1  LIG1        0.3110
      4 O          -2.4225   -3.8675    0.6926 O.3     1  LIG1       -0.4802
      5 O          -0.7285   -3.6106    2.1098 O.2     1  LIG1       -0.2504
      6 C          -1.8908   -1.3484    3.3263 C.3     1  LIG1       -0.0372
      7 C          -0.4029   -1.1093    3.5643 C.3     1  LIG1       -0.0512
      8 C           0.3879   -0.6987    2.3242 C.3     1  LIG1       -0.0433
      9 C          -0.4011    0.1592    1.3060 C.3     1  LIG1       -0.0028
     10 C          -0.8113    1.5000    1.9817 C.3     1  LIG1       -0.0552
     11 C          -1.7237   -0.6073    0.8704 C.3     1  LIG1       -0.0158
     12 H          -2.5028    0.1712    0.8395 H       1  LIG1        0.0320
     13 C          -1.6662   -1.1383   -0.5735 C.3     1  LIG1       -0.0444
     14 C          -1.2934   -0.0278   -1.5393 C.3     1  LIG1       -0.0271
     15 C           0.0770    0.4847   -1.2112 C.ar    1  LIG1       -0.0432
     16 C           0.5127    0.5657    0.1220 C.ar    1  LIG1       -0.0345
     17 C           1.8019    1.0883    0.3491 C.ar    1  LIG1       -0.0159
     18 C           2.6295    1.4837   -0.7074 C.ar    1  LIG1        0.1206
     19 O           3.8802    1.9670   -0.4368 O.3     1  LIG1       -0.5065
     20 C           2.2045    1.3998   -2.0332 C.ar    1  LIG1       -0.0031
     21 C           3.1115    1.7995   -3.1862 C.3     1  LIG1       -0.0181
     22 C           2.5196    2.9397   -4.0193 C.3     1  LIG1       -0.0585
     23 C           3.4423    0.5945   -4.0723 C.3     1  LIG1       -0.0585
     24 C           0.9110    0.9096   -2.2649 C.ar    1  LIG1       -0.0514
     25 H          -4.2155   -0.7270    2.1328 H       1  LIG1        0.0240
     26 H          -4.2344   -2.4605    2.4911 H       1  LIG1        0.0240
     27 H          -4.2108   -1.8857    0.8194 H       1  LIG1        0.0240
     28 H          -3.1912   -3.4506    0.2751 H       1  LIG1        0.2951
     29 H          -2.2313   -2.1353    4.0131 H       1  LIG1        0.0276
     30 H          -2.4378   -0.4475    3.6331 H       1  LIG1        0.0276
     31 H           0.0562   -2.0120    3.9869 H       1  LIG1        0.0266
     32 H          -0.2938   -0.3438    4.3430 H       1  LIG1        0.0266
     33 H           0.7700   -1.5928    1.8157 H       1  LIG1        0.0274
     34 H           1.2819   -0.1792    2.6883 H       1  LIG1        0.0274
     35 H          -1.5280    1.3602    2.7946 H       1  LIG1        0.0238
     36 H          -1.2773    2.1795    1.2571 H       1  LIG1        0.0238
     37 H           0.0541    2.0233    2.4052 H       1  LIG1        0.0238
     38 H          -2.6429   -1.5355   -0.8709 H       1  LIG1        0.0272
     39 H          -0.9395   -1.9560   -0.6565 H       1  LIG1        0.0272
     40 H          -2.0122    0.7987   -1.4847 H       1  LIG1        0.0313
     41 H          -1.3229   -0.4251   -2.5607 H       1  LIG1        0.0313
     42 H           2.1672    1.2039    1.3646 H       1  LIG1        0.0657
     43 H           4.0438    1.8961    0.5171 H       1  LIG1        0.2921
     44 H           4.0651    2.1689   -2.7905 H       1  LIG1        0.0345
     45 H           1.6133    2.6333   -4.5521 H       1  LIG1        0.0235
     46 H           3.2441    3.2797   -4.7681 H       1  LIG1        0.0235
     47 H           2.2656    3.7976   -3.3873 H       1  LIG1        0.0235
     48 H           2.5495    0.1812   -4.5541 H       1  LIG1        0.0235
     49 H           3.9050   -0.2062   -3.4844 H       1  LIG1        0.0235
     50 H           4.1450    0.8784   -4.8632 H       1  LIG1        0.0235
     51 H           0.5438    0.8394   -3.2875 H       1  LIG1        0.0624
@<TRIPOS>BOND
     1     3     4    1
     2     3     5    2
     3     2     6    1
     4     6     7    1
     5     7     8    1
     6     8     9    1
     7     9    11    1
     8     2    11    1
     9    11    13    1
    10    13    14    1
    11    14    15    1
    12    15    16   ar
    13     9    16    1
    14    16    17   ar
    15    17    18   ar
    16    18    20   ar
    17    21    22    1
    18    21    23    1
    19    20    24   ar
    20    15    24   ar
    21     1     2    1
    22     2     3    1
    23     9    10    1
    24    11    12    1
    25    18    19    1
    26    20    21    1
    27     1    25    1
    28     1    26    1
    29     1    27    1
    30     4    28    1
    31     6    29    1
    32     6    30    1
    33     7    31    1
    34     7    32    1
    35     8    33    1
    36     8    34    1
    37    10    35    1
    38    10    36    1
    39    10    37    1
    40    13    38    1
    41    13    39    1
    42    14    40    1
    43    14    41    1
    44    17    42    1
    45    19    43    1
    46    21    44    1
    47    22    45    1
    48    22    46    1
    49    22    47    1
    50    23    48    1
    51    23    49    1
    52    23    50    1
    53    24    51    1
