REMARK  Name = NuBBE_178
REMARK  7 active torsions:
REMARK  status: ('A' for Active; 'I' for Inactive)
REMARK    1  A    between atoms: C_4  and  C_5
REMARK    2  A    between atoms: C_8  and  O_9
REMARK    3  A    between atoms: O_9  and  C_10
REMARK    4  A    between atoms: C_11  and  O_12
REMARK    5  A    between atoms: O_12  and  C_13
REMARK    6  A    between atoms: C_19  and  O_20
REMARK    7  A    between atoms: O_20  and  C_21
REMARK                            x       y       z     vdW  Elec       q    Type
REMARK                         _______ _______ _______ _____ _____    ______ ____
ROOT
ATOM      1  O   LIG A   1      -4.388  -1.140   0.509  0.00  0.00    -0.287 OA
ATOM      2  C   LIG A   1      -3.171  -1.005   0.474  0.00  0.00    +0.193 A 
ATOM      3  C   LIG A   1      -2.558   0.329   0.447  0.00  0.00    +0.098 A 
ATOM      4  C   LIG A   1      -1.222   0.437   0.425  0.00  0.00    +0.139 A 
ATOM      5  O   LIG A   1      -0.357  -0.651   0.421  0.00  0.00    -0.455 OA
ATOM      6  C   LIG A   1      -2.255  -2.152   0.441  0.00  0.00    +0.064 A 
ATOM      7  C   LIG A   1      -0.887  -1.913   0.407  0.00  0.00    +0.143 A 
ATOM      8  C   LIG A   1       0.005  -2.983   0.359  0.00  0.00    +0.092 A 
ATOM      9  C   LIG A   1      -0.471  -4.298   0.355  0.00  0.00    +0.124 A 
ATOM     10  C   LIG A   1      -1.849  -4.530   0.395  0.00  0.00    +0.046 A 
ATOM     11  C   LIG A   1      -2.744  -3.457   0.436  0.00  0.00    +0.019 A 
ENDROOT
BRANCH   4  12
ATOM     12  C   LIG A   1      -0.540   1.745   0.332  0.00  0.00    +0.021 A 
ATOM     13  C   LIG A   1      -1.074   2.920   0.866  0.00  0.00    +0.015 A 
ATOM     14  C   LIG A   1      -0.390   4.128   0.726  0.00  0.00    +0.050 A 
ATOM     15  C   LIG A   1       0.843   4.197   0.060  0.00  0.00    +0.162 A 
ATOM     16  C   LIG A   1       1.398   3.025  -0.478  0.00  0.00    +0.162 A 
ATOM     17  C   LIG A   1       0.700   1.818  -0.323  0.00  0.00    +0.061 A 
BRANCH  15  18
ATOM     18  O   LIG A   1       1.345   5.472   0.034  0.00  0.00    -0.491 OA
ATOM     19  C   LIG A   1       2.607   5.690  -0.578  0.00  0.00    +0.277 C 
ENDBRANCH  15  18
BRANCH  16  20
ATOM     20  O   LIG A   1       2.590   3.099  -1.149  0.00  0.00    -0.491 OA
ATOM     21  C   LIG A   1       3.149   1.894  -1.659  0.00  0.00    +0.277 C 
ENDBRANCH  16  20
ENDBRANCH   4  12
BRANCH   9  22
ATOM     22  O   LIG A   1       0.500  -5.259   0.313  0.00  0.00    -0.495 OA
ATOM     23  C   LIG A   1       0.060  -6.612   0.341  0.00  0.00    +0.277 C 
ENDBRANCH   9  22
TORSDOF 4
