@<TRIPOS>MOLECULE
NuBBE_1404
 39 39 0 0 0
SMALL
GASTEIGER

@<TRIPOS>ATOM
      1 C          -2.1705    0.4283    0.6272 C.2     1  LIG1       -0.0721
      2 C          -3.0664    0.8677    1.5307 C.2     1  LIG1       -0.0991
      3 C          -2.6373   -0.0522   -0.7238 C.3     1  LIG1       -0.0435
      4 C          -0.6735    0.3655    0.9702 C.3     1  LIG1        0.0067
      5 H          -0.6126    0.2815    2.0674 H       1  LIG1        0.0396
      6 C           0.1954    1.6251    0.5762 C.3     1  LIG1       -0.0041
      7 C           1.4481    1.6600    1.4775 C.2     1  LIG1       -0.0843
      8 C           1.8228    2.6276    2.3366 C.2     1  LIG1       -0.1021
      9 C          -0.6112    2.9384    0.7287 C.3     1  LIG1       -0.0553
     10 C           0.6338    1.5195   -0.9052 C.3     1  LIG1       -0.0397
     11 C           1.2929    0.1901   -1.2971 C.3     1  LIG1       -0.0307
     12 C           0.7786   -1.0386   -0.5794 C.2     1  LIG1       -0.0703
     13 C          -0.0877   -0.9323    0.4475 C.2     1  LIG1       -0.0766
     14 C           1.3379   -2.3703   -1.0794 C.3     1  LIG1       -0.0255
     15 C           1.4270   -3.4559    0.0005 C.3     1  LIG1       -0.0590
     16 C           0.5447   -2.8993   -2.2798 C.3     1  LIG1       -0.0590
     17 H          -4.1281    0.9099    1.3076 H       1  LIG1        0.0534
     18 H          -2.7588    1.2126    2.5136 H       1  LIG1        0.0534
     19 H          -3.7171    0.0815   -0.8520 H       1  LIG1        0.0274
     20 H          -2.4357   -1.1210   -0.8507 H       1  LIG1        0.0274
     21 H          -2.1459    0.4966   -1.5302 H       1  LIG1        0.0274
     22 H           2.0903    0.7810    1.4287 H       1  LIG1        0.0572
     23 H           1.2575    3.5401    2.4830 H       1  LIG1        0.0532
     24 H           2.7237    2.5165    2.9307 H       1  LIG1        0.0532
     25 H          -0.9879    3.0626    1.7509 H       1  LIG1        0.0238
     26 H          -1.4696    2.9714    0.0496 H       1  LIG1        0.0238
     27 H           0.0033    3.8142    0.4876 H       1  LIG1        0.0238
     28 H           1.3238    2.3371   -1.1560 H       1  LIG1        0.0277
     29 H          -0.2384    1.6707   -1.5533 H       1  LIG1        0.0277
     30 H           2.3726    0.2642   -1.1161 H       1  LIG1        0.0310
     31 H           1.1692    0.0616   -2.3797 H       1  LIG1        0.0310
     32 H          -0.4544   -1.8207    0.9543 H       1  LIG1        0.0578
     33 H           2.3679   -2.1908   -1.4166 H       1  LIG1        0.0340
     34 H           0.4422   -3.7322    0.3919 H       1  LIG1        0.0235
     35 H           2.0475   -3.1159    0.8370 H       1  LIG1        0.0235
     36 H           1.8800   -4.3679   -0.4021 H       1  LIG1        0.0235
     37 H          -0.4828   -3.1585   -2.0014 H       1  LIG1        0.0235
     38 H           1.0180   -3.8025   -2.6830 H       1  LIG1        0.0235
     39 H           0.5005   -2.1658   -3.0916 H       1  LIG1        0.0235
@<TRIPOS>BOND
     1     1     2    2
     2     1     3    1
     3     1     4    1
     4     4     5    1
     5     4     6    1
     6     6     7    1
     7     7     8    2
     8     6     9    1
     9     6    10    1
    10    10    11    1
    11    11    12    1
    12    12    13    2
    13     4    13    1
    14    12    14    1
    15    14    15    1
    16    14    16    1
    17     2    17    1
    18     2    18    1
    19     3    19    1
    20     3    20    1
    21     3    21    1
    22     7    22    1
    23     8    23    1
    24     8    24    1
    25     9    25    1
    26     9    26    1
    27     9    27    1
    28    10    28    1
    29    10    29    1
    30    11    30    1
    31    11    31    1
    32    13    32    1
    33    14    33    1
    34    15    34    1
    35    15    35    1
    36    15    36    1
    37    16    37    1
    38    16    38    1
    39    16    39    1
