REMARK  Name = NuBBE_12
REMARK  2 active torsions:
REMARK  status: ('A' for Active; 'I' for Inactive)
REMARK    1  A    between atoms: C_9  and  C_10
REMARK    2  A    between atoms: C_16  and  C_22
REMARK                            x       y       z     vdW  Elec       q    Type
REMARK                         _______ _______ _______ _____ _____    ______ ____
ROOT
ATOM      1  C   LIG A   1      -0.384  -1.401   0.984  0.00  0.00    +0.154 C 
ATOM      2  C   LIG A   1      -0.841  -0.370  -0.055  0.00  0.00    +0.056 C 
ATOM      3  C   LIG A   1      -1.796   0.658   0.493  0.00  0.00    +0.167 C 
ATOM      4  O   LIG A   1      -1.002   1.619   1.197  0.00  0.00    -0.371 OA
ATOM      5  C   LIG A   1       0.365   1.528   0.737  0.00  0.00    +0.154 C 
ATOM      6  C   LIG A   1       0.407   0.426  -0.328  0.00  0.00    +0.056 C 
ATOM      7  C   LIG A   1       1.510  -0.585  -0.121  0.00  0.00    +0.167 C 
ATOM      8  O   LIG A   1       1.049  -1.511   0.869  0.00  0.00    -0.371 OA
ENDROOT
BRANCH   1  16
ATOM      9  C   LIG A   1      -2.471  -4.559   1.603  0.00  0.00    +0.050 A 
ATOM     10  C   LIG A   1      -2.220  -5.240   0.433  0.00  0.00    +0.166 A 
ATOM     11  O   LIG A   1      -2.731  -6.453   0.090  0.00  0.00    -0.453 OA
ATOM     12  C   LIG A   1      -2.127  -6.645  -1.206  0.00  0.00    +0.466 C 
ATOM     13  O   LIG A   1      -1.278  -5.551  -1.612  0.00  0.00    -0.453 OA
ATOM     14  C   LIG A   1      -1.391  -4.729  -0.535  0.00  0.00    +0.167 A 
ATOM     15  C   LIG A   1      -0.769  -3.507  -0.388  0.00  0.00    +0.055 A 
ATOM     16  C   LIG A   1      -1.010  -2.767   0.784  0.00  0.00    -0.015 A 
ATOM     17  C   LIG A   1      -1.861  -3.310   1.776  0.00  0.00    +0.010 A 
ENDBRANCH   1  16
BRANCH   5  18
ATOM     18  C   LIG A   1       0.841   2.870   0.210  0.00  0.00    -0.015 A 
ATOM     19  C   LIG A   1       2.209   3.195   0.265  0.00  0.00    +0.055 A 
ATOM     20  C   LIG A   1       2.611   4.424  -0.223  0.00  0.00    +0.167 A 
ATOM     21  C   LIG A   1       1.720   5.321  -0.758  0.00  0.00    +0.166 A 
ATOM     22  C   LIG A   1       0.374   5.041  -0.840  0.00  0.00    +0.050 A 
ATOM     23  C   LIG A   1      -0.062   3.803  -0.354  0.00  0.00    +0.010 A 
ATOM     24  O   LIG A   1       2.319   6.468  -1.173  0.00  0.00    -0.453 OA
ATOM     25  C   LIG A   1       3.694   6.190  -0.840  0.00  0.00    +0.466 C 
ATOM     26  O   LIG A   1       3.888   4.894  -0.235  0.00  0.00    -0.453 OA
ENDBRANCH   5  18
TORSDOF 2
