REMARK  Name = NuBBE_52
REMARK  18 active torsions:
REMARK  status: ('A' for Active; 'I' for Inactive)
REMARK    1  A    between atoms: C_1  and  C_2
REMARK    2  A    between atoms: C_5  and  O_42
REMARK    3  A    between atoms: C_9  and  O_18
REMARK    4  A    between atoms: C_12  and  O_14
REMARK    5  A    between atoms: O_14  and  C_15
REMARK    6  A    between atoms: C_15  and  C_16
REMARK    7  A    between atoms: O_18  and  C_19
REMARK    8  A    between atoms: C_19  and  C_20
REMARK    9  A    between atoms: C_23  and  O_36
REMARK   10  A    between atoms: C_27  and  C_28
REMARK   11  A    between atoms: C_27  and  C_34
REMARK   12  A    between atoms: C_28  and  C_29
REMARK   13  A    between atoms: C_30  and  C_31
REMARK   14  A    between atoms: C_30  and  C_32
REMARK   15  A    between atoms: O_36  and  C_37
REMARK   16  A    between atoms: C_37  and  C_38
REMARK   17  A    between atoms: C_38  and  C_39
REMARK   18  A    between atoms: C_39  and  C_40
REMARK                            x       y       z     vdW  Elec       q    Type
REMARK                         _______ _______ _______ _____ _____    ______ ____
ROOT
ATOM      1  C   LIG A   1      -2.523  -0.104   1.485  0.00  0.00    +0.008 C 
ATOM      2  C   LIG A   1      -2.064  -1.052   0.363  0.00  0.00    -0.005 C 
ATOM      3  C   LIG A   1      -1.184  -2.210   0.953  0.00  0.00    +0.036 C 
ATOM      4  C   LIG A   1       0.343  -1.951   1.126  0.00  0.00    +0.131 C 
ATOM      5  C   LIG A   1       1.019  -1.216  -0.088  0.00  0.00    +0.089 C 
ATOM      6  C   LIG A   1       2.436  -0.728   0.157  0.00  0.00    +0.012 C 
ATOM      7  C   LIG A   1       3.375  -1.865   0.048  0.00  0.00    +0.343 C 
ATOM      8  O   LIG A   1       2.776  -2.685  -0.953  0.00  0.00    -0.297 OA
ATOM      9  C   LIG A   1       1.413  -2.243  -1.198  0.00  0.00    +0.327 C 
ATOM     10  C   LIG A   1       2.880   0.541   0.171  0.00  0.00    +0.023 C 
ATOM     11  C   LIG A   1       2.008   1.707  -0.143  0.00  0.00    +0.200 C 
ATOM     12  C   LIG A   1       0.850   1.200  -1.058  0.00  0.00    +0.054 C 
ATOM     13  C   LIG A   1       0.088   0.012  -0.406  0.00  0.00    +0.018 C 
ATOM     14  C   LIG A   1      -1.382  -0.354  -0.891  0.00  0.00    -0.022 C 
ATOM     15  C   LIG A   1      -1.452  -1.393  -2.041  0.00  0.00    +0.012 C 
ENDROOT
BRANCH   4  16
ATOM     16  O   LIG A   1       0.476  -1.187   2.333  0.00  0.00    -0.391 OA
ATOM     17  H   LIG A   1       1.413  -0.916   2.427  0.00  0.00    +0.210 HD
ENDBRANCH   4  16
BRANCH   9  18
ATOM     18  O   LIG A   1       0.606  -3.424  -1.171  0.00  0.00    -0.434 OA
BRANCH  18  19
ATOM     19  C   LIG A   1       0.643  -4.214  -2.260  0.00  0.00    +0.306 C 
ATOM     20  C   LIG A   1      -0.203  -5.430  -2.039  0.00  0.00    +0.136 C 
ATOM     21  O   LIG A   1       1.225  -3.959  -3.315  0.00  0.00    -0.251 OA
ENDBRANCH  18  19
ENDBRANCH   9  18
BRANCH   7  22
ATOM     22  O   LIG A   1       3.568  -2.600   1.247  0.00  0.00    -0.431 OA
BRANCH  22  23
ATOM     23  C   LIG A   1       3.986  -1.845   2.303  0.00  0.00    +0.306 C 
ATOM     24  C   LIG A   1       5.186  -2.482   2.937  0.00  0.00    +0.136 C 
ATOM     25  O   LIG A   1       3.473  -0.833   2.709  0.00  0.00    -0.251 OA
ENDBRANCH  22  23
ENDBRANCH   7  22
BRANCH  14  26
ATOM     26  C   LIG A   1      -2.130   0.945  -1.419  0.00  0.00    +0.034 C 
BRANCH  26  27
ATOM     27  C   LIG A   1      -3.565   0.783  -1.893  0.00  0.00    -0.023 C 
ATOM     28  C   LIG A   1      -4.223   1.453  -2.864  0.00  0.00    -0.055 C 
ATOM     29  C   LIG A   1      -5.650   1.109  -3.225  0.00  0.00    +0.043 C 
BRANCH  28  30
ATOM     30  C   LIG A   1      -3.682   2.570  -3.619  0.00  0.00    -0.005 C 
ATOM     31  C   LIG A   1      -3.318   2.499  -4.906  0.00  0.00    +0.008 C 
ENDBRANCH  28  30
ENDBRANCH  26  27
ENDBRANCH  14  26
BRANCH  11  32
ATOM     32  O   LIG A   1       1.532   2.256   1.104  0.00  0.00    -0.457 OA
BRANCH  32  33
ATOM     33  C   LIG A   1       2.397   3.046   1.776  0.00  0.00    +0.308 C 
ATOM     34  O   LIG A   1       3.463   3.498   1.332  0.00  0.00    -0.251 OA
BRANCH  33  35
ATOM     35  C   LIG A   1       1.935   3.314   3.203  0.00  0.00    +0.120 C 
BRANCH  35  36
ATOM     36  C   LIG A   1       1.030   4.535   3.311  0.00  0.00    +0.008 C 
ATOM     37  C   LIG A   1       0.575   4.793   4.743  0.00  0.00    +0.004 C 
ENDBRANCH  35  36
ENDBRANCH  33  35
ENDBRANCH  32  33
ENDBRANCH  11  32
TORSDOF 12
