REMARK  Name = NuBBE_2116
REMARK  6 active torsions:
REMARK  status: ('A' for Active; 'I' for Inactive)
REMARK    1  A    between atoms: C_1  and  C_2
REMARK    2  A    between atoms: C_2  and  C_3
REMARK    3  A    between atoms: C_3  and  C_4
REMARK    4  A    between atoms: C_4  and  C_5
REMARK    5  A    between atoms: C_5  and  C_6
REMARK    6  A    between atoms: C_6  and  C_7
REMARK                            x       y       z     vdW  Elec       q    Type
REMARK                         _______ _______ _______ _____ _____    ______ ____
ROOT
ATOM      1  C   LIG A   1       0.105  -0.493  -0.002  0.00  0.00    -0.000 C 
ENDROOT
BRANCH   1   2
ATOM      2  C   LIG A   1      -1.236   0.099   0.439  0.00  0.00    -0.000 C 
BRANCH   2   4
ATOM      3  C   LIG A   1      -3.546  -0.426   1.323  0.00  0.00    +0.004 C 
ATOM      4  C   LIG A   1      -2.211  -0.997   0.873  0.00  0.00    -0.003 C 
ENDBRANCH   2   4
ENDBRANCH   1   2
BRANCH   1   5
ATOM      5  C   LIG A   1       1.085   0.592  -0.455  0.00  0.00    -0.000 C 
BRANCH   5   6
ATOM      6  C   LIG A   1       2.430  -0.015  -0.860  0.00  0.00    -0.003 C 
ATOM      7  C   LIG A   1       3.414   1.048  -1.319  0.00  0.00    +0.004 C 
ENDBRANCH   5   6
ENDBRANCH   1   5
TORSDOF 4
