@<TRIPOS>MOLECULE
NuBBE_1309
 51 53 0 0 0
SMALL
GASTEIGER

@<TRIPOS>ATOM
      1 O          -3.8653    1.7179   -0.0420 O.2     1  LIG1       -0.2869
      2 C          -2.6984    1.4213   -0.0781 C.ar    1  LIG1        0.1967
      3 C          -2.3313   -0.0074   -0.0851 C.ar    1  LIG1        0.0288
      4 C          -1.0494   -0.3636   -0.0782 C.ar    1  LIG1        0.1396
      5 C          -0.6650   -1.7943   -0.0409 C.ar    1  LIG1        0.0245
      6 C           0.5124   -2.2105   -0.6645 C.ar    1  LIG1       -0.0054
      7 C           0.9269   -3.5483   -0.6302 C.ar    1  LIG1        0.1658
      8 O           2.0687   -3.9806   -1.2420 O.3     1  LIG1       -0.4913
      9 C           2.9009   -3.0500   -1.9075 C.3     1  LIG1        0.0790
     10 C           0.1459   -4.5174    0.0355 C.ar    1  LIG1        0.2035
     11 O           0.4421   -5.8576    0.0503 O.3     1  LIG1       -0.4885
     12 C           1.8042   -6.2623    0.0387 C.3     1  LIG1        0.0791
     13 C          -1.0468   -4.1139    0.6651 C.ar    1  LIG1        0.1658
     14 O          -1.9101   -4.8934    1.4014 O.3     1  LIG1       -0.4913
     15 C          -1.9463   -6.2835    1.1007 C.3     1  LIG1        0.0790
     16 C          -1.4313   -2.7615    0.6295 C.ar    1  LIG1       -0.0054
     17 O           0.0088    0.5385   -0.1477 O.2     1  LIG1       -0.4507
     18 C          -1.5762    2.3915   -0.1003 C.ar    1  LIG1        0.1094
     19 C          -0.2682    1.9001   -0.1493 C.ar    1  LIG1        0.1878
     20 C           0.8360    2.7872   -0.2005 C.ar    1  LIG1        0.2051
     21 O           2.0876    2.2174   -0.2724 O.3     1  LIG1       -0.4885
     22 C           3.1578    2.9491    0.3287 C.3     1  LIG1        0.0791
     23 C           0.5859    4.1704   -0.2276 C.ar    1  LIG1        0.1687
     24 O           1.6220    5.0478   -0.4189 O.3     1  LIG1       -0.4912
     25 C           1.4778    6.3304    0.1863 C.3     1  LIG1        0.0790
     26 C          -0.7275    4.6404   -0.1712 C.ar    1  LIG1        0.0264
     27 C          -1.8146    3.7680   -0.0744 C.ar    1  LIG1        0.1381
     28 O          -3.0969    4.2424   -0.0651 O.3     1  LIG1       -0.4942
     29 C          -3.3245    5.4584    0.6417 C.3     1  LIG1        0.0788
     30 H          -3.1700   -0.6958   -0.0740 H       1  LIG1        0.0693
     31 H           1.1009   -1.4667   -1.1943 H       1  LIG1        0.0662
     32 H           3.2012   -2.2312   -1.2472 H       1  LIG1        0.0660
     33 H           2.4103   -2.6848   -2.8139 H       1  LIG1        0.0660
     34 H           3.8077   -3.5861   -2.2018 H       1  LIG1        0.0660
     35 H           2.2614   -6.1280   -0.9442 H       1  LIG1        0.0660
     36 H           1.8307   -7.3413    0.2192 H       1  LIG1        0.0660
     37 H           2.3736   -5.7690    0.8333 H       1  LIG1        0.0660
     38 H          -2.7804   -6.7321    1.6495 H       1  LIG1        0.0660
     39 H          -1.0471   -6.7959    1.4542 H       1  LIG1        0.0660
     40 H          -2.1231   -6.4446    0.0319 H       1  LIG1        0.0660
     41 H          -2.3514   -2.4845    1.1417 H       1  LIG1        0.0662
     42 H           2.9161    3.2344    1.3589 H       1  LIG1        0.0660
     43 H           3.4543    3.8174   -0.2664 H       1  LIG1        0.0660
     44 H           4.0404    2.3028    0.3557 H       1  LIG1        0.0660
     45 H           2.4733    6.7749    0.2660 H       1  LIG1        0.0660
     46 H           1.0607    6.2565    1.1970 H       1  LIG1        0.0660
     47 H           0.8681    6.9872   -0.4426 H       1  LIG1        0.0660
     48 H          -0.9065    5.7002   -0.2716 H       1  LIG1        0.0692
     49 H          -4.3781    5.7231    0.5203 H       1  LIG1        0.0660
     50 H          -2.7497    6.2960    0.2368 H       1  LIG1        0.0660
     51 H          -3.1178    5.3307    1.7095 H       1  LIG1        0.0660
@<TRIPOS>BOND
     1     1     2    2
     2     2     3   ar
     3     3     4   ar
     4     4     5    1
     5     5     6   ar
     6     6     7   ar
     7     7     8    1
     8     8     9    1
     9     7    10   ar
    10    10    11    1
    11    11    12    1
    12    10    13   ar
    13    13    14    1
    14    14    15    1
    15    13    16   ar
    16     5    16   ar
    17     4    17   ar
    18     2    18   ar
    19    18    19   ar
    20    17    19   ar
    21    19    20   ar
    22    20    21    1
    23    21    22    1
    24    20    23   ar
    25    23    24    1
    26    24    25    1
    27    23    26   ar
    28    26    27   ar
    29    18    27   ar
    30    27    28    1
    31    28    29    1
    32     3    30    1
    33     6    31    1
    34     9    32    1
    35     9    33    1
    36     9    34    1
    37    12    35    1
    38    12    36    1
    39    12    37    1
    40    15    38    1
    41    15    39    1
    42    15    40    1
    43    16    41    1
    44    22    42    1
    45    22    43    1
    46    22    44    1
    47    25    45    1
    48    25    46    1
    49    25    47    1
    50    26    48    1
    51    29    49    1
    52    29    50    1
    53    29    51    1
