REMARK  Name = NuBBE_1598
REMARK  4 active torsions:
REMARK  status: ('A' for Active; 'I' for Inactive)
REMARK    1  A    between atoms: C_1  and  C_6
REMARK    2  A    between atoms: C_2  and  C_3
REMARK    3  A    between atoms: C_3  and  C_4
REMARK    4  A    between atoms: C_4  and  C_5
REMARK                            x       y       z     vdW  Elec       q    Type
REMARK                         _______ _______ _______ _____ _____    ______ ____
ROOT
ATOM      1  C   LIG A   1       0.521  -0.878   0.282  0.00  0.00    +0.064 A 
ATOM      2  N   LIG A   1       1.016   0.380   0.222  0.00  0.00    -0.247 NA
ATOM      3  C   LIG A   1       2.346   0.547   0.128  0.00  0.00    +0.072 A 
ATOM      4  C   LIG A   1       3.245  -0.540   0.090  0.00  0.00    +0.000 A 
ATOM      5  C   LIG A   1       2.711  -1.831   0.153  0.00  0.00    +0.012 A 
ATOM      6  C   LIG A   1       1.333  -2.004   0.250  0.00  0.00    +0.028 A 
ATOM      7  C   LIG A   1       4.629  -0.313  -0.007  0.00  0.00    +0.010 A 
ATOM      8  C   LIG A   1       5.126   0.988  -0.069  0.00  0.00    +0.001 A 
ATOM      9  C   LIG A   1       4.244   2.062  -0.034  0.00  0.00    +0.002 A 
ATOM     10  C   LIG A   1       2.869   1.831   0.064  0.00  0.00    +0.028 A 
ENDROOT
BRANCH   1  11
ATOM     11  C   LIG A   1      -0.940  -1.030   0.379  0.00  0.00    +0.023 C 
ATOM     12  C   LIG A   1      -1.810  -0.006   0.417  0.00  0.00    -0.025 C 
BRANCH  12  13
ATOM     13  C   LIG A   1      -3.298  -0.177   0.510  0.00  0.00    +0.027 C 
BRANCH  13  14
ATOM     14  C   LIG A   1      -4.006   0.451  -0.692  0.00  0.00    +0.001 C 
ATOM     15  C   LIG A   1      -5.513   0.261  -0.613  0.00  0.00    +0.004 C 
ENDBRANCH  13  14
ENDBRANCH  12  13
ENDBRANCH   1  11
TORSDOF 3
