REMARK  Name = NuBBE_229
REMARK  21 active torsions:
REMARK  status: ('A' for Active; 'I' for Inactive)
REMARK    1  A    between atoms: C_1  and  C_2
REMARK    2  A    between atoms: C_4  and  O_6
REMARK    3  A    between atoms: O_6  and  C_7
REMARK    4  A    between atoms: C_7  and  C_8
REMARK    5  A    between atoms: C_8  and  C_9
REMARK    6  A    between atoms: C_9  and  C_10
REMARK    7  A    between atoms: C_12  and  O_14
REMARK    8  A    between atoms: C_17  and  O_19
REMARK    9  A    between atoms: O_19  and  C_20
REMARK   10  A    between atoms: C_20  and  C_21
REMARK   11  A    between atoms: C_24  and  O_26
REMARK   12  A    between atoms: O_26  and  C_27
REMARK   13  A    between atoms: C_27  and  C_28
REMARK   14  A    between atoms: C_31  and  O_33
REMARK   15  A    between atoms: O_33  and  C_34
REMARK   16  A    between atoms: C_34  and  C_35
REMARK   17  A    between atoms: C_40  and  C_41
REMARK   18  A    between atoms: C_40  and  C_42
REMARK   19  A    between atoms: C_42  and  C_43
REMARK   20  A    between atoms: C_44  and  C_45
REMARK   21  A    between atoms: C_44  and  C_47
REMARK                            x       y       z     vdW  Elec       q    Type
REMARK                         _______ _______ _______ _____ _____    ______ ____
ROOT
ATOM      1  C   LIG A   1       1.121   2.510   1.362  0.00  0.00    +0.012 C 
ATOM      2  C   LIG A   1      -0.069   1.543   1.231  0.00  0.00    +0.036 C 
ATOM      3  C   LIG A   1       0.287   0.270   2.040  0.00  0.00    +0.209 C 
ATOM      4  C   LIG A   1       0.735  -0.942   1.198  0.00  0.00    +0.172 C 
ATOM      5  C   LIG A   1       1.460  -0.611  -0.142  0.00  0.00    +0.093 C 
ATOM      6  C   LIG A   1       1.744  -1.952  -0.811  0.00  0.00    +0.013 C 
ATOM      7  C   LIG A   1       3.101  -2.456  -0.414  0.00  0.00    +0.343 C 
ATOM      8  O   LIG A   1       3.750  -1.349   0.214  0.00  0.00    -0.297 OA
ATOM      9  C   LIG A   1       2.949  -0.169   0.070  0.00  0.00    +0.327 C 
ATOM     10  C   LIG A   1       0.839  -2.578  -1.577  0.00  0.00    +0.023 C 
ATOM     11  C   LIG A   1      -0.428  -1.901  -1.984  0.00  0.00    +0.200 C 
ATOM     12  C   LIG A   1      -0.100  -0.422  -2.245  0.00  0.00    +0.054 C 
ATOM     13  C   LIG A   1       0.543   0.342  -1.030  0.00  0.00    +0.018 C 
ATOM     14  C   LIG A   1      -0.515   1.274  -0.254  0.00  0.00    -0.019 C 
ATOM     15  C   LIG A   1      -1.921   0.621  -0.214  0.00  0.00    +0.012 C 
ENDROOT
BRANCH   4  16
ATOM     16  O   LIG A   1       1.547  -1.774   2.046  0.00  0.00    -0.387 OA
ATOM     17  H   LIG A   1       1.001  -2.034   2.810  0.00  0.00    +0.210 HD
ENDBRANCH   4  16
BRANCH   3  18
ATOM     18  O   LIG A   1      -0.802  -0.226   2.869  0.00  0.00    -0.458 OA
BRANCH  18  19
ATOM     19  C   LIG A   1      -1.006   0.436   4.050  0.00  0.00    +0.307 C 
ATOM     20  O   LIG A   1      -1.097   1.631   4.171  0.00  0.00    -0.251 OA
BRANCH  19  21
ATOM     21  C   LIG A   1      -0.976  -0.549   5.208  0.00  0.00    +0.120 C 
BRANCH  21  22
ATOM     22  C   LIG A   1      -2.251  -0.559   6.037  0.00  0.00    +0.008 C 
ATOM     23  C   LIG A   1      -3.479  -0.970   5.243  0.00  0.00    +0.004 C 
ENDBRANCH  21  22
ENDBRANCH  19  21
ENDBRANCH  18  19
ENDBRANCH   3  18
BRANCH   7  24
ATOM     24  O   LIG A   1       3.880  -2.854  -1.548  0.00  0.00    -0.431 OA
BRANCH  24  25
ATOM     25  C   LIG A   1       3.772  -4.155  -1.915  0.00  0.00    +0.306 C 
ATOM     26  C   LIG A   1       4.687  -4.471  -3.061  0.00  0.00    +0.136 C 
ATOM     27  O   LIG A   1       2.997  -4.974  -1.435  0.00  0.00    -0.251 OA
ENDBRANCH  24  25
ENDBRANCH   7  24
BRANCH   9  28
ATOM     28  O   LIG A   1       3.442   0.644  -1.017  0.00  0.00    -0.434 OA
BRANCH  28  29
ATOM     29  C   LIG A   1       4.701   1.133  -0.846  0.00  0.00    +0.306 C 
ATOM     30  C   LIG A   1       5.129   2.002  -1.998  0.00  0.00    +0.136 C 
ATOM     31  O   LIG A   1       5.422   0.938   0.119  0.00  0.00    -0.251 OA
ENDBRANCH  28  29
ENDBRANCH   9  28
BRANCH  11  32
ATOM     32  O   LIG A   1      -0.823  -2.550  -3.203  0.00  0.00    -0.457 OA
BRANCH  32  33
ATOM     33  C   LIG A   1      -2.051  -3.125  -3.219  0.00  0.00    +0.304 C 
ATOM     34  C   LIG A   1      -2.057  -4.259  -4.204  0.00  0.00    +0.136 C 
ATOM     35  O   LIG A   1      -2.988  -2.848  -2.473  0.00  0.00    -0.251 OA
ENDBRANCH  32  33
ENDBRANCH  11  32
BRANCH  14  36
ATOM     36  C   LIG A   1      -0.670   2.636  -1.080  0.00  0.00    +0.034 C 
BRANCH  36  37
ATOM     37  C   LIG A   1      -1.571   3.742  -0.549  0.00  0.00    -0.023 C 
ATOM     38  C   LIG A   1      -2.850   4.086  -0.814  0.00  0.00    -0.055 C 
ATOM     39  C   LIG A   1      -3.462   5.320  -0.176  0.00  0.00    +0.043 C 
BRANCH  38  40
ATOM     40  C   LIG A   1      -3.756   3.400  -1.719  0.00  0.00    -0.005 C 
ATOM     41  C   LIG A   1      -4.978   2.974  -1.363  0.00  0.00    +0.008 C 
ENDBRANCH  38  40
ENDBRANCH  36  37
ENDBRANCH  14  36
TORSDOF 14
