@<TRIPOS>MOLECULE
NuBBE_2514
 48 51 0 0 0
SMALL
GASTEIGER

@<TRIPOS>ATOM
      1 C          -2.7539    0.0903    0.0354 C.3     1  LIG1       -0.0185
      2 C          -3.4917    0.7535    1.1812 C.2     1  LIG1       -0.0899
      3 C          -4.8095    1.0002    1.2117 C.2     1  LIG1       -0.1026
      4 C          -1.5338    0.8706   -0.5685 C.3     1  LIG1        0.0592
      5 C          -0.4256    1.0831    0.4329 C.2     1  LIG1        0.1125
      6 C          -0.1058    2.2550    0.9818 C.2     1  LIG1        0.0271
      7 C          -0.8430    3.4813    0.6010 C.2     1  LIG1        0.2231
      8 O          -0.6477    4.5056    1.2354 O.2     1  LIG1       -0.2839
      9 C          -1.7376    3.3932   -0.6180 C.2     1  LIG1        0.1637
     10 C          -2.0047    2.1870   -1.1500 C.2     1  LIG1       -0.0243
     11 O          -2.2703    4.5136   -1.2439 O.2     1  LIG1       -0.4916
     12 C          -2.5041    5.6458   -0.4122 C.3     1  LIG1        0.0790
     13 O           0.4341    0.0022    0.5468 O.2     1  LIG1       -0.4914
     14 C           0.1667   -0.8312   -0.6007 C.3     1  LIG1        0.1075
     15 H          -0.4039   -1.6975   -0.2458 H       1  LIG1        0.0739
     16 C          -0.6943    0.0254   -1.5543 C.3     1  LIG1        0.0099
     17 H          -0.0337    0.7021   -2.1202 H       1  LIG1        0.0347
     18 C          -1.4386   -0.8252   -2.5776 C.3     1  LIG1       -0.0578
     19 C           1.4927   -1.2947   -1.2298 C.3     1  LIG1        0.0099
     20 C           2.3237   -2.1671   -0.3091 C.ar    1  LIG1       -0.0402
     21 C           3.6153   -1.7627    0.0704 C.ar    1  LIG1       -0.0128
     22 C           4.3349   -2.5823    0.9162 C.ar    1  LIG1        0.1665
     23 C           3.8266   -3.7718    1.3792 C.ar    1  LIG1        0.1662
     24 C           2.5716   -4.2102    1.0210 C.ar    1  LIG1       -0.0159
     25 C           1.8169   -3.3990    0.1669 C.ar    1  LIG1       -0.0548
     26 O           4.6926   -4.4244    2.1995 O.3     1  LIG1       -0.4526
     27 C           5.7964   -3.4957    2.2198 C.3     1  LIG1        0.2332
     28 O           5.5868   -2.3355    1.3881 O.3     1  LIG1       -0.4526
     29 H          -3.4721   -0.1180   -0.7694 H       1  LIG1        0.0320
     30 H          -2.4257   -0.8889    0.4058 H       1  LIG1        0.0320
     31 H          -2.9079    1.0073    2.0647 H       1  LIG1        0.0567
     32 H          -5.4738    0.7506    0.3901 H       1  LIG1        0.0532
     33 H          -5.2650    1.4589    2.0867 H       1  LIG1        0.0532
     34 H           0.7420    2.3796    1.6432 H       1  LIG1        0.0691
     35 H          -2.6472    2.1402   -2.0267 H       1  LIG1        0.0620
     36 H          -3.1213    6.3531   -0.9746 H       1  LIG1        0.0660
     37 H          -1.5682    6.1601   -0.1749 H       1  LIG1        0.0660
     38 H          -3.0540    5.3691    0.4937 H       1  LIG1        0.0660
     39 H          -0.7255   -1.3250   -3.2434 H       1  LIG1        0.0234
     40 H          -2.0960   -0.2140   -3.2024 H       1  LIG1        0.0234
     41 H          -2.0375   -1.6088   -2.1033 H       1  LIG1        0.0234
     42 H           1.3025   -1.8662   -2.1462 H       1  LIG1        0.0349
     43 H           2.0845   -0.4176   -1.5222 H       1  LIG1        0.0349
     44 H           4.0464   -0.8294   -0.2764 H       1  LIG1        0.0658
     45 H           2.1824   -5.1511    1.3927 H       1  LIG1        0.0655
     46 H           0.8229   -3.7322   -0.1229 H       1  LIG1        0.0621
     47 H           6.6982   -4.0153    1.8760 H       1  LIG1        0.1166
     48 H           5.9556   -3.1638    3.2526 H       1  LIG1        0.1166
@<TRIPOS>BOND
     1     1     2    1
     2     2     3    2
     3     4     5    1
     4     5     6    2
     5     6     7    1
     6     7     9    1
     7     9    10    2
     8     4    10    1
     9    11    12    1
    10     5    13    1
    11    13    14    1
    12    14    16    1
    13     4    16    1
    14    19    20    1
    15    20    21   ar
    16    21    22   ar
    17    22    23   ar
    18    23    24   ar
    19    24    25   ar
    20    20    25   ar
    21    23    26    1
    22    26    27    1
    23    27    28    1
    24    22    28    1
    25     1     4    1
    26     7     8    2
    27     9    11    1
    28    14    19    1
    29    14    15    1
    30    16    18    1
    31    16    17    1
    32     1    29    1
    33     1    30    1
    34     2    31    1
    35     3    32    1
    36     3    33    1
    37     6    34    1
    38    10    35    1
    39    12    36    1
    40    12    37    1
    41    12    38    1
    42    18    39    1
    43    18    40    1
    44    18    41    1
    45    19    42    1
    46    19    43    1
    47    21    44    1
    48    24    45    1
    49    25    46    1
    50    27    47    1
    51    27    48    1
