REMARK  Name = NuBBE_1632
REMARK  5 active torsions:
REMARK  status: ('A' for Active; 'I' for Inactive)
REMARK    1  A    between atoms: C_2  and  C_22
REMARK    2  A    between atoms: C_8  and  C_12
REMARK    3  A    between atoms: C_14  and  O_15
REMARK    4  A    between atoms: O_15  and  C_16
REMARK    5  A    between atoms: C_17  and  O_18
REMARK                            x       y       z     vdW  Elec       q    Type
REMARK                         _______ _______ _______ _____ _____    ______ ____
ROOT
ATOM      1  O   LIG A   1       2.813  -1.062   1.082  0.00  0.00    -0.371 OA
ATOM      2  C   LIG A   1       1.744  -2.013   0.884  0.00  0.00    +0.154 C 
ATOM      3  C   LIG A   1       1.230  -1.810  -0.552  0.00  0.00    +0.056 C 
ATOM      4  C   LIG A   1       1.776  -0.462  -0.957  0.00  0.00    +0.056 C 
ATOM      5  C   LIG A   1       0.655   0.510  -0.569  0.00  0.00    +0.154 C 
ATOM      6  O   LIG A   1      -0.557  -0.274  -0.497  0.00  0.00    -0.371 OA
ATOM      7  C   LIG A   1      -0.250  -1.641  -0.780  0.00  0.00    +0.167 C 
ATOM      8  C   LIG A   1       3.032  -0.337  -0.130  0.00  0.00    +0.167 C 
ENDROOT
BRANCH   2   9
ATOM      9  C   LIG A   1       0.759  -1.924   2.034  0.00  0.00    -0.015 A 
ATOM     10  C   LIG A   1       0.022  -3.061   2.411  0.00  0.00    +0.055 A 
ATOM     11  C   LIG A   1      -0.867  -2.952   3.463  0.00  0.00    +0.167 A 
ATOM     12  O   LIG A   1      -1.642  -3.954   3.957  0.00  0.00    -0.453 OA
ATOM     13  C   LIG A   1      -2.316  -3.268   5.035  0.00  0.00    +0.466 C 
ATOM     14  O   LIG A   1      -1.964  -1.874   5.137  0.00  0.00    -0.453 OA
ATOM     15  C   LIG A   1      -1.050  -1.767   4.138  0.00  0.00    +0.166 A 
ATOM     16  C   LIG A   1      -0.351  -0.633   3.806  0.00  0.00    +0.050 A 
ATOM     17  C   LIG A   1       0.567  -0.720   2.755  0.00  0.00    +0.010 A 
ENDBRANCH   2   9
BRANCH   5  18
ATOM     18  C   LIG A   1       0.483   1.687  -1.515  0.00  0.00    -0.015 A 
ATOM     19  C   LIG A   1      -0.730   1.899  -2.202  0.00  0.00    +0.055 A 
ATOM     20  C   LIG A   1      -0.903   3.003  -3.038  0.00  0.00    +0.162 A 
ATOM     21  C   LIG A   1       0.149   3.910  -3.179  0.00  0.00    +0.159 A 
ATOM     22  C   LIG A   1       1.350   3.737  -2.505  0.00  0.00    +0.049 A 
ATOM     23  C   LIG A   1       1.516   2.629  -1.673  0.00  0.00    +0.010 A 
BRANCH  20  24
ATOM     24  O   LIG A   1      -2.033   3.303  -3.755  0.00  0.00    -0.491 OA
ATOM     25  C   LIG A   1      -3.125   2.399  -3.619  0.00  0.00    +0.277 C 
ENDBRANCH  20  24
BRANCH  21  26
ATOM     26  O   LIG A   1       0.011   5.005  -3.988  0.00  0.00    -0.503 OA
ATOM     27  H   LIG A   1      -0.895   4.934  -4.348  0.00  0.00    +0.292 HD
ENDBRANCH  21  26
ENDBRANCH   5  18
TORSDOF 4
