REMARK  Name = NuBBE_868
REMARK  3 active torsions:
REMARK  status: ('A' for Active; 'I' for Inactive)
REMARK    1  A    between atoms: CA_9  and  CB_14
REMARK    2  A    between atoms: CB_14  and  CG1_16
REMARK    3  A    between atoms: CB_14  and  CG2_17
REMARK                            x       y       z     vdW  Elec       q    Type
REMARK                         _______ _______ _______ _____ _____    ______ ____
ROOT
ATOM      1  O   VAL A   2      -1.589  -0.149  -1.549  0.00  0.00    -0.274 OA
ATOM      2  C   VAL A   2      -0.701  -0.201  -0.702  0.00  0.00    +0.237 C 
ATOM      3  N   PRO A   1      -0.239  -1.409  -0.222  0.00  0.00    -0.288 N 
ATOM      4  CA  PRO A   1       0.376  -1.518   1.083  0.00  0.00    +0.162 C 
ATOM      5  CB  PRO A   1       0.899  -2.944   1.095  0.00  0.00    +0.033 C 
ATOM      6  CG  PRO A   1      -0.212  -3.696   0.358  0.00  0.00    +0.021 C 
ATOM      7  CD  PRO A   1      -0.720  -2.697  -0.682  0.00  0.00    +0.109 C 
ATOM      8  CA  VAL A   2       0.209   1.016  -0.321  0.00  0.00    +0.162 C 
ATOM      9  N   VAL A   2       0.976   0.823   0.925  0.00  0.00    -0.302 N 
ATOM     10  C   PRO A   1       1.407  -0.427   1.321  0.00  0.00    +0.234 C 
ATOM     11  O   PRO A   1       2.402  -0.553   2.025  0.00  0.00    -0.274 OA
ATOM     12  H   VAL A   2       1.679   1.521   1.135  0.00  0.00    +0.149 HD
ENDROOT
BRANCH   8  13
ATOM     13  CB  VAL A   2      -0.566   2.365  -0.294  0.00  0.00    +0.012 C 
ATOM     14  CG1 VAL A   2       0.299   3.526   0.227  0.00  0.00    +0.009 C 
ATOM     15  CG2 VAL A   2      -1.096   2.771  -1.677  0.00  0.00    +0.009 C 
ENDBRANCH   8  13
TORSDOF 1
