@<TRIPOS>MOLECULE
NuBBE_1943
 52 52 0 0 0
SMALL
GASTEIGER

@<TRIPOS>ATOM
      1 C           2.0657    2.5466    0.0299 C.2     1  LIG1       -0.0763
      2 C           2.9206    3.2129    0.8223 C.2     1  LIG1       -0.0994
      3 C           1.9390    2.8820   -1.4328 C.3     1  LIG1       -0.0438
      4 C           1.1604    1.4150    0.5267 C.3     1  LIG1       -0.0167
      5 H           0.7677    0.9381   -0.3769 H       1  LIG1        0.0348
      6 C          -0.0497    2.0179    1.2923 C.3     1  LIG1       -0.0426
      7 C          -1.0303    1.0234    1.9397 C.3     1  LIG1       -0.0315
      8 C          -2.4574    0.8930    1.4294 C.2     1  LIG1       -0.0765
      9 C          -2.9110    0.8586    0.1593 C.2     1  LIG1       -0.0847
     10 C          -2.1659    0.9112   -1.1425 C.3     1  LIG1       -0.0308
     11 C          -2.3242   -0.3492   -2.0144 C.3     1  LIG1       -0.0286
     12 C          -1.7738   -1.6253   -1.3975 C.2     1  LIG1       -0.0762
     13 C          -0.4850   -1.9808   -1.5804 C.2     1  LIG1       -0.0847
     14 C           0.2124   -3.1637   -0.9471 C.3     1  LIG1       -0.0308
     15 C           1.7478   -3.0129   -0.8446 C.3     1  LIG1       -0.0286
     16 C           2.3202   -1.7761   -0.1574 C.2     1  LIG1       -0.0762
     17 C           1.6077   -1.0427    0.7214 C.2     1  LIG1       -0.0845
     18 C           1.9430    0.3145    1.2989 C.3     1  LIG1       -0.0280
     19 C           3.7132   -1.4313   -0.6166 C.3     1  LIG1       -0.0438
     20 C          -2.7708   -2.4588   -0.6363 C.3     1  LIG1       -0.0438
     21 C          -3.4583    0.6929    2.5501 C.3     1  LIG1       -0.0438
     22 H           3.5488    4.0111    0.4367 H       1  LIG1        0.0534
     23 H           3.0144    2.9853    1.8801 H       1  LIG1        0.0534
     24 H           2.5970    3.7065   -1.7266 H       1  LIG1        0.0274
     25 H           0.9107    3.1757   -1.6676 H       1  LIG1        0.0274
     26 H           2.2018    2.0126   -2.0446 H       1  LIG1        0.0274
     27 H          -0.5913    2.7173    0.6426 H       1  LIG1        0.0274
     28 H           0.3536    2.6406    2.1042 H       1  LIG1        0.0274
     29 H          -1.1097    1.3619    2.9842 H       1  LIG1        0.0310
     30 H          -0.6164    0.0177    2.0206 H       1  LIG1        0.0310
     31 H          -3.9859    0.7398    0.0133 H       1  LIG1        0.0572
     32 H          -1.1099    1.1088   -0.9977 H       1  LIG1        0.0310
     33 H          -2.5526    1.7684   -1.7082 H       1  LIG1        0.0310
     34 H          -1.8142   -0.1634   -2.9696 H       1  LIG1        0.0313
     35 H          -3.3805   -0.4907   -2.2768 H       1  LIG1        0.0313
     36 H           0.1476   -1.3363   -2.1903 H       1  LIG1        0.0572
     37 H           0.0025   -4.0515   -1.5561 H       1  LIG1        0.0310
     38 H          -0.1878   -3.3570    0.0549 H       1  LIG1        0.0310
     39 H           2.1347   -3.0374   -1.8729 H       1  LIG1        0.0313
     40 H           2.1548   -3.9008   -0.3441 H       1  LIG1        0.0313
     41 H           0.6186   -1.3987    0.9996 H       1  LIG1        0.0572
     42 H           1.6877    0.3218    2.3651 H       1  LIG1        0.0313
     43 H           3.0216    0.4873    1.2596 H       1  LIG1        0.0313
     44 H           3.7048   -1.1622   -1.6779 H       1  LIG1        0.0274
     45 H           4.3717   -2.2969   -0.4848 H       1  LIG1        0.0274
     46 H           4.1661   -0.6033   -0.0687 H       1  LIG1        0.0274
     47 H          -3.6730   -2.6087   -1.2397 H       1  LIG1        0.0274
     48 H          -3.0578   -1.9722    0.2989 H       1  LIG1        0.0274
     49 H          -2.3928   -3.4555   -0.3928 H       1  LIG1        0.0274
     50 H          -3.5059    1.5855    3.1820 H       1  LIG1        0.0274
     51 H          -3.1604   -0.1601    3.1703 H       1  LIG1        0.0274
     52 H          -4.4696    0.4887    2.1830 H       1  LIG1        0.0274
@<TRIPOS>BOND
     1     1     2    2
     2     1     3    1
     3     1     4    1
     4     4     5    1
     5     4     6    1
     6     6     7    1
     7     7     8    1
     8     8     9    2
     9     9    10    1
    10    10    11    1
    11    11    12    1
    12    12    13    2
    13    13    14    1
    14    14    15    1
    15    15    16    1
    16    16    17    2
    17    17    18    1
    18     4    18    1
    19    16    19    1
    20    12    20    1
    21     8    21    1
    22     2    22    1
    23     2    23    1
    24     3    24    1
    25     3    25    1
    26     3    26    1
    27     6    27    1
    28     6    28    1
    29     7    29    1
    30     7    30    1
    31     9    31    1
    32    10    32    1
    33    10    33    1
    34    11    34    1
    35    11    35    1
    36    13    36    1
    37    14    37    1
    38    14    38    1
    39    15    39    1
    40    15    40    1
    41    17    41    1
    42    18    42    1
    43    18    43    1
    44    19    44    1
    45    19    45    1
    46    19    46    1
    47    20    47    1
    48    20    48    1
    49    20    49    1
    50    21    50    1
    51    21    51    1
    52    21    52    1
