REMARK  Name = NuBBE_2083
REMARK  9 active torsions:
REMARK  status: ('A' for Active; 'I' for Inactive)
REMARK    1  A    between atoms: O_1  and  C_2
REMARK    2  A    between atoms: C_3  and  C_4
REMARK    3  A    between atoms: C_4  and  C_5
REMARK    4  A    between atoms: C_5  and  C_6
REMARK    5  A    between atoms: C_6  and  C_7
REMARK    6  A    between atoms: C_15  and  O_16
REMARK    7  A    between atoms: C_18  and  C_19
REMARK    8  A    between atoms: C_20  and  O_21
REMARK    9  A    between atoms: O_21  and  C_22
REMARK                            x       y       z     vdW  Elec       q    Type
REMARK                         _______ _______ _______ _____ _____    ______ ____
ROOT
ATOM      1  C   LIG A   1       0.665   1.265  -1.102  0.00  0.00    +0.010 C 
ENDROOT
BRANCH   1   2
ATOM      2  C   LIG A   1      -0.360   0.163  -0.826  0.00  0.00    +0.039 C 
BRANCH   2   4
ATOM      3  C   LIG A   1       0.854  -1.839   0.207  0.00  0.00    +0.123 A 
ATOM      4  C   LIG A   1       0.280  -1.200  -0.895  0.00  0.00    -0.005 A 
ATOM      5  C   LIG A   1       0.340  -1.846  -2.140  0.00  0.00    +0.014 A 
ATOM      6  C   LIG A   1       0.939  -3.107  -2.284  0.00  0.00    -0.008 A 
ATOM      7  C   LIG A   1       0.981  -3.755  -3.639  0.00  0.00    +0.048 C 
ATOM      8  C   LIG A   1       1.479  -3.743  -1.155  0.00  0.00    +0.127 A 
ATOM      9  C   LIG A   1       1.442  -3.098   0.083  0.00  0.00    +0.091 A 
BRANCH   3  10
ATOM     10  O   LIG A   1       0.893  -1.285   1.457  0.00  0.00    -0.506 OA
ATOM     11  H   LIG A   1       0.619  -0.355   1.405  0.00  0.00    +0.292 HD
ENDBRANCH   3  10
BRANCH   8  12
ATOM     12  O   LIG A   1       2.077  -4.960  -1.365  0.00  0.00    -0.495 OA
ATOM     13  C   LIG A   1       2.026  -5.867  -0.268  0.00  0.00    +0.277 C 
ENDBRANCH   8  12
ENDBRANCH   2   4
ENDBRANCH   1   2
BRANCH   1  14
ATOM     14  C   LIG A   1       0.059   2.669  -1.023  0.00  0.00    +0.039 C 
BRANCH  14  15
ATOM     15  C   LIG A   1      -0.550   3.012   0.317  0.00  0.00    -0.002 A 
ATOM     16  C   LIG A   1      -1.919   3.326   0.391  0.00  0.00    +0.056 A 
ATOM     17  C   LIG A   1      -2.454   3.632   1.622  0.00  0.00    +0.167 A 
ATOM     18  O   LIG A   1      -3.751   3.956   1.869  0.00  0.00    -0.453 OA
ATOM     19  C   LIG A   1      -3.711   4.180   3.293  0.00  0.00    +0.466 C 
ATOM     20  O   LIG A   1      -2.405   3.966   3.871  0.00  0.00    -0.453 OA
ATOM     21  C   LIG A   1      -1.686   3.637   2.765  0.00  0.00    +0.170 A 
ATOM     22  C   LIG A   1      -0.345   3.336   2.740  0.00  0.00    +0.095 A 
ATOM     23  C   LIG A   1       0.220   3.028   1.503  0.00  0.00    +0.124 A 
BRANCH  23  24
ATOM     24  O   LIG A   1       1.550   2.726   1.426  0.00  0.00    -0.506 OA
ATOM     25  H   LIG A   1       1.951   2.804   2.309  0.00  0.00    +0.292 HD
ENDBRANCH  23  24
ENDBRANCH  14  15
ENDBRANCH   1  14
TORSDOF 7
