REMARK  Name = NuBBE_1863
REMARK  8 active torsions:
REMARK  status: ('A' for Active; 'I' for Inactive)
REMARK    1  A    between atoms: C_1  and  O_2
REMARK    2  A    between atoms: O_2  and  C_3
REMARK    3  A    between atoms: C_8  and  C_9
REMARK    4  A    between atoms: C_15  and  C_17
REMARK    5  A    between atoms: C_17  and  C_18
REMARK    6  A    between atoms: C_18  and  C_19
REMARK    7  A    between atoms: C_24  and  O_25
REMARK    8  A    between atoms: O_25  and  C_26
REMARK                            x       y       z     vdW  Elec       q    Type
REMARK                         _______ _______ _______ _____ _____    ______ ____
ROOT
ATOM      1  C   LIG A   1      -0.169   1.185   0.592  0.00  0.00    +0.149 C 
ATOM      2  C   LIG A   1       1.247   1.726   0.864  0.00  0.00    +0.036 C 
ATOM      3  C   LIG A   1       1.995   2.066  -0.421  0.00  0.00    +0.005 C 
ATOM      4  C   LIG A   1       1.912   0.935  -1.448  0.00  0.00    +0.032 C 
ATOM      5  O   LIG A   1      -0.256   0.354  -0.577  0.00  0.00    -0.369 OA
ATOM      6  C   LIG A   1       0.991  -0.200  -0.988  0.00  0.00    +0.119 C 
ENDROOT
BRANCH   1  12
ATOM      7  C   LIG A   1      -3.021   4.433   0.189  0.00  0.00    +0.120 A 
ATOM      8  C   LIG A   1      -2.752   3.877   1.442  0.00  0.00    +0.046 A 
ATOM      9  C   LIG A   1      -1.841   2.825   1.575  0.00  0.00    +0.010 A 
ATOM     10  C   LIG A   1      -2.365   3.926  -0.932  0.00  0.00    +0.046 A 
ATOM     11  C   LIG A   1      -1.452   2.879  -0.800  0.00  0.00    +0.010 A 
ATOM     12  C   LIG A   1      -1.177   2.310   0.452  0.00  0.00    -0.019 A 
BRANCH   7  14
ATOM     13  C   LIG A   1      -4.224   6.020  -1.094  0.00  0.00    +0.277 C 
ATOM     14  O   LIG A   1      -3.926   5.459   0.180  0.00  0.00    -0.495 OA
ENDBRANCH   7  14
ENDBRANCH   1  12
BRANCH   6  15
ATOM     15  C   LIG A   1       0.750  -1.202  -2.124  0.00  0.00    +0.036 C 
BRANCH  15  16
ATOM     16  C   LIG A   1      -0.189  -2.356  -1.740  0.00  0.00    +0.037 C 
BRANCH  16  17
ATOM     17  C   LIG A   1       0.307  -3.192  -0.584  0.00  0.00    -0.047 A 
ATOM     18  C   LIG A   1      -0.457  -3.323   0.586  0.00  0.00    +0.007 A 
ATOM     19  C   LIG A   1       0.020  -4.081   1.661  0.00  0.00    +0.046 A 
ATOM     20  C   LIG A   1       1.536  -3.849  -0.661  0.00  0.00    +0.007 A 
ATOM     21  C   LIG A   1       2.017  -4.590   0.417  0.00  0.00    +0.046 A 
ATOM     22  C   LIG A   1       1.264  -4.709   1.588  0.00  0.00    +0.120 A 
BRANCH  22  23
ATOM     23  O   LIG A   1       1.645  -5.411   2.698  0.00  0.00    -0.495 OA
ATOM     24  C   LIG A   1       2.938  -6.009   2.644  0.00  0.00    +0.277 C 
ENDBRANCH  22  23
ENDBRANCH  16  17
ENDBRANCH  15  16
ENDBRANCH   6  15
TORSDOF 6
