@<TRIPOS>MOLECULE
NuBBE_1388
 34 33 0 0 0
SMALL
GASTEIGER

@<TRIPOS>ATOM
      1 C          -2.3274    3.0745    2.0433 C.3     1  LIG1       -0.0440
      2 C          -2.3060    2.4958    0.6551 C.2     1  LIG1       -0.0796
      3 C          -3.6483    2.0833    0.1176 C.3     1  LIG1       -0.0440
      4 C          -1.1491    2.3512   -0.0187 C.2     1  LIG1       -0.0850
      5 C          -0.9973    1.8075   -1.4139 C.3     1  LIG1       -0.0308
      6 C          -0.7650    0.2884   -1.4447 C.3     1  LIG1       -0.0285
      7 C           0.5451   -0.1596   -0.8180 C.2     1  LIG1       -0.0731
      8 C           1.7760    0.4053   -1.4784 C.3     1  LIG1       -0.0437
      9 C           0.5594   -1.0106    0.2305 C.2     1  LIG1       -0.0480
     10 C           1.7688   -1.5057    0.9705 C.3     1  LIG1        0.1109
     11 O           1.7953   -2.9369    0.9053 O.3     1  LIG1       -0.4606
     12 C           2.9368   -3.4728    0.3910 C.2     1  LIG1        0.3042
     13 C           2.8405   -4.9678    0.3483 C.3     1  LIG1        0.0332
     14 O           3.9021   -2.8535   -0.0194 O.2     1  LIG1       -0.2512
     15 H          -3.0074    3.9312    2.0874 H       1  LIG1        0.0274
     16 H          -1.3387    3.4179    2.3655 H       1  LIG1        0.0274
     17 H          -2.6685    2.3203    2.7602 H       1  LIG1        0.0274
     18 H          -4.2124    2.9645   -0.2023 H       1  LIG1        0.0274
     19 H          -4.2238    1.5606    0.8883 H       1  LIG1        0.0274
     20 H          -3.5736    1.3983   -0.7317 H       1  LIG1        0.0274
     21 H          -0.2174    2.6562    0.4573 H       1  LIG1        0.0572
     22 H          -0.1737    2.3384   -1.9070 H       1  LIG1        0.0310
     23 H          -1.8818    2.0474   -2.0151 H       1  LIG1        0.0310
     24 H          -0.7722   -0.0426   -2.4912 H       1  LIG1        0.0313
     25 H          -1.6154   -0.2156   -0.9672 H       1  LIG1        0.0313
     26 H           1.8745    1.4702   -1.2460 H       1  LIG1        0.0274
     27 H           1.7026    0.2919   -2.5649 H       1  LIG1        0.0274
     28 H           2.7037   -0.0835   -1.1783 H       1  LIG1        0.0274
     29 H          -0.3903   -1.3718    0.6255 H       1  LIG1        0.0605
     30 H           1.6929   -1.2208    2.0257 H       1  LIG1        0.0743
     31 H           2.6876   -1.0547    0.5979 H       1  LIG1        0.0743
     32 H           2.2116   -5.3384    1.1616 H       1  LIG1        0.0342
     33 H           3.8406   -5.3921    0.4815 H       1  LIG1        0.0342
     34 H           2.4308   -5.2765   -0.6156 H       1  LIG1        0.0342
@<TRIPOS>BOND
     1     1     2    1
     2     2     3    1
     3     2     4    2
     4     4     5    1
     5     5     6    1
     6     6     7    1
     7     7     8    1
     8     7     9    2
     9     9    10    1
    10    10    11    1
    11    11    12    1
    12    12    13    1
    13    12    14    2
    14     1    15    1
    15     1    16    1
    16     1    17    1
    17     3    18    1
    18     3    19    1
    19     3    20    1
    20     4    21    1
    21     5    22    1
    22     5    23    1
    23     6    24    1
    24     6    25    1
    25     8    26    1
    26     8    27    1
    27     8    28    1
    28     9    29    1
    29    10    30    1
    30    10    31    1
    31    13    32    1
    32    13    33    1
    33    13    34    1
