REMARK  Name = NuBBE_2272
REMARK  6 active torsions:
REMARK  status: ('A' for Active; 'I' for Inactive)
REMARK    1  A    between atoms: C_1  and  C_18
REMARK    2  A    between atoms: C_4  and  C_7
REMARK    3  A    between atoms: C_10  and  C_13
REMARK    4  A    between atoms: C_13  and  C_14
REMARK    5  A    between atoms: C_13  and  C_15
REMARK    6  A    between atoms: C_13  and  O_16
REMARK                            x       y       z     vdW  Elec       q    Type
REMARK                         _______ _______ _______ _____ _____    ______ ____
ROOT
ATOM      1  C   LIG A   1       2.505  -0.890  -0.173  0.00  0.00    +0.000 A 
ATOM      2  C   LIG A   1       1.260  -0.204  -0.110  0.00  0.00    +0.000 A 
ATOM      3  C   LIG A   1       1.246   1.219  -0.039  0.00  0.00    +0.000 A 
ATOM      4  C   LIG A   1       2.478   1.927   0.030  0.00  0.00    +0.000 A 
ATOM      5  C   LIG A   1       3.684   1.221  -0.018  0.00  0.00    +0.000 A 
ATOM      6  C   LIG A   1       3.697  -0.163  -0.126  0.00  0.00    +0.000 A 
ATOM      7  C   LIG A   1       2.562   3.432   0.136  0.00  0.00    +0.000 C 
ATOM      8  C   LIG A   1      -0.070   1.978  -0.048  0.00  0.00    +0.000 C 
ATOM      9  C   LIG A   1      -1.264   1.139  -0.514  0.00  0.00    +0.000 C 
ATOM     10  C   LIG A   1      -1.307  -0.189   0.240  0.00  0.00    +0.000 C 
ATOM     11  C   LIG A   1      -0.036  -0.998  -0.117  0.00  0.00    +0.000 C 
ATOM     12  C   LIG A   1       2.613  -2.394  -0.282  0.00  0.00    +0.000 C 
ENDROOT
BRANCH  10  13
ATOM     13  C   LIG A   1      -2.645  -0.981   0.002  0.00  0.00    +0.000 C 
ATOM     14  C   LIG A   1      -2.691  -2.324   0.763  0.00  0.00    +0.000 C 
ATOM     15  C   LIG A   1      -3.864  -0.129   0.404  0.00  0.00    +0.000 C 
BRANCH  13  16
ATOM     16  O   LIG A   1      -2.745  -1.252  -1.369  0.00  0.00    +0.000 OA
ATOM     17 AC   LIG A   1      -4.851  -2.487  -1.671  0.00  0.00    +0.000 Ac
ENDBRANCH  13  16
ENDBRANCH  10  13
TORSDOF 2
