@<TRIPOS>MOLECULE
NuBBE_1602
 82 86 0 0 0
SMALL
GASTEIGER

@<TRIPOS>ATOM
      1 C           2.8354    1.6677   -0.6335 C.3     1  LIG1       -0.0553
      2 C           1.6122    0.7469   -0.8474 C.3     1  LIG1       -0.0051
      3 C           0.3791    1.6810   -0.9844 C.2     1  LIG1       -0.0634
      4 C          -0.1192    2.0860   -2.1665 C.2     1  LIG1       -0.0836
      5 C          -1.1591    3.1409   -2.3378 C.3     1  LIG1       -0.0302
      6 C          -1.2916    4.1089   -1.1470 C.3     1  LIG1       -0.0198
      7 H          -2.2940    4.5487   -1.2801 H       1  LIG1        0.0318
      8 C          -1.3309    3.3124    0.2104 C.3     1  LIG1       -0.0212
      9 C          -2.7294    2.6337    0.2915 C.3     1  LIG1       -0.0587
     10 C          -1.2215    4.2952    1.4200 C.3     1  LIG1       -0.0401
     11 C          -1.6487    5.7138    1.0769 C.3     1  LIG1        0.0069
     12 C          -0.7261    6.2739    0.0182 C.2     1  LIG1        0.1392
     13 C          -0.3409    5.3596   -1.1590 C.3     1  LIG1        0.0270
     14 C          -0.5476    6.1845   -2.4507 C.3     1  LIG1       -0.0528
     15 C           1.1551    5.0503   -1.0367 C.3     1  LIG1       -0.0528
     16 O          -0.3213    7.4391    0.1026 O.2     1  LIG1       -0.2968
     17 C          -0.1612    2.2436    0.3225 C.3     1  LIG1       -0.0136
     18 H           0.6887    2.7611    0.7811 H       1  LIG1        0.0351
     19 C          -0.4929    1.0675    1.2562 C.3     1  LIG1       -0.0455
     20 C           0.7314    0.1936    1.5296 C.3     1  LIG1       -0.0460
     21 C           1.4366   -0.3677    0.2682 C.3     1  LIG1       -0.0198
     22 C           0.5817   -1.4891   -0.4646 C.3     1  LIG1       -0.0298
     23 H          -0.4850   -1.2758   -0.3191 H       1  LIG1        0.0310
     24 C           0.8043   -2.9800   -0.0576 C.3     1  LIG1       -0.0118
     25 H           1.8505   -3.2233   -0.2819 H       1  LIG1        0.0327
     26 C          -0.0661   -3.9740   -0.8585 C.3     1  LIG1        0.0514
     27 O           0.2966   -5.3299   -0.5645 O.3     1  LIG1       -0.3709
     28 C           0.1413   -5.7403    0.8115 C.3     1  LIG1        0.1125
     29 H           0.6981   -6.6867    0.8587 H       1  LIG1        0.0650
     30 C          -1.3296   -6.0900    1.2087 C.3     1  LIG1        0.0889
     31 C          -1.3970   -6.6878    2.6247 C.3     1  LIG1       -0.0338
     32 O          -2.1881   -4.9455    1.1660 O.3     1  LIG1       -0.3865
     33 C          -1.9079   -7.1100    0.2185 C.3     1  LIG1       -0.0338
     34 C           0.8725   -4.7507    1.7362 C.3     1  LIG1        0.0843
     35 H           0.6773   -4.9591    2.7900 H       1  LIG1        0.0620
     36 O           2.2916   -4.9268    1.5675 O.3     1  LIG1       -0.3891
     37 C           0.5424   -3.2903    1.4262 C.3     1  LIG1       -0.0191
     38 C           0.8786   -1.2795   -1.9738 C.3     1  LIG1       -0.0486
     39 C           1.8777   -0.1378   -2.0821 C.3     1  LIG1       -0.0431
     40 C           2.8224   -0.9093    0.7262 C.3     1  LIG1       -0.0585
     41 H           2.8803    2.4513   -1.3983 H       1  LIG1        0.0238
     42 H           3.7828    1.1225   -0.7043 H       1  LIG1        0.0238
     43 H           2.8121    2.1570    0.3460 H       1  LIG1        0.0238
     44 H           0.2688    1.7027   -3.1043 H       1  LIG1        0.0572
     45 H          -2.1178    2.6376   -2.5156 H       1  LIG1        0.0311
     46 H          -0.9523    3.6884   -3.2614 H       1  LIG1        0.0311
     47 H          -3.5329    3.3649    0.1432 H       1  LIG1        0.0235
     48 H          -2.9091    2.1777    1.2709 H       1  LIG1        0.0235
     49 H          -2.8479    1.8515   -0.4646 H       1  LIG1        0.0235
     50 H          -0.1874    4.3466    1.7834 H       1  LIG1        0.0275
     51 H          -1.8118    3.9323    2.2699 H       1  LIG1        0.0275
     52 H          -1.5733    6.3434    1.9703 H       1  LIG1        0.0342
     53 H          -2.6816    5.7596    0.7184 H       1  LIG1        0.0342
     54 H          -1.6070    6.4151   -2.6093 H       1  LIG1        0.0239
     55 H          -0.1719    5.6619   -3.3357 H       1  LIG1        0.0239
     56 H          -0.0151    7.1422   -2.4073 H       1  LIG1        0.0239
     57 H           1.4094    4.5924   -0.0790 H       1  LIG1        0.0239
     58 H           1.7498    5.9709   -1.0922 H       1  LIG1        0.0239
     59 H           1.5011    4.4018   -1.8460 H       1  LIG1        0.0239
     60 H          -1.2929    0.4475    0.8356 H       1  LIG1        0.0271
     61 H          -0.8585    1.4477    2.2179 H       1  LIG1        0.0271
     62 H           0.4252   -0.6197    2.1945 H       1  LIG1        0.0271
     63 H           1.4456    0.7967    2.1060 H       1  LIG1        0.0271
     64 H           0.0864   -3.8542   -1.9342 H       1  LIG1        0.0563
     65 H          -1.1338   -3.8151   -0.6817 H       1  LIG1        0.0563
     66 H          -1.1605   -5.9421    3.3910 H       1  LIG1        0.0258
     67 H          -0.7121   -7.5343    2.7387 H       1  LIG1        0.0258
     68 H          -2.4120   -7.0322    2.8539 H       1  LIG1        0.0258
     69 H          -2.2181   -4.5342    2.0457 H       1  LIG1        0.2102
     70 H          -1.3131   -8.0299    0.1983 H       1  LIG1        0.0258
     71 H          -1.9540   -6.7012   -0.7962 H       1  LIG1        0.0258
     72 H          -2.9368   -7.3751    0.4890 H       1  LIG1        0.0258
     73 H           2.4452   -5.0876    0.6163 H       1  LIG1        0.2099
     74 H           1.1517   -2.6711    2.0823 H       1  LIG1        0.0294
     75 H          -0.5009   -3.0698    1.6752 H       1  LIG1        0.0294
     76 H          -0.0509   -1.0237   -2.4961 H       1  LIG1        0.0268
     77 H           1.2951   -2.1622   -2.4677 H       1  LIG1        0.0268
     78 H           1.8162    0.3750   -3.0450 H       1  LIG1        0.0274
     79 H           2.8925   -0.5545   -2.0529 H       1  LIG1        0.0274
     80 H           2.7479   -1.6552    1.5174 H       1  LIG1        0.0235
     81 H           3.4409   -0.1128    1.1540 H       1  LIG1        0.0235
     82 H           3.3851   -1.3663   -0.0923 H       1  LIG1        0.0235
@<TRIPOS>BOND
     1     2     3    1
     2     3     4    2
     3     4     5    1
     4     5     6    1
     5     6     8    1
     6     8    10    1
     7    10    11    1
     8    11    12    1
     9    12    13    1
    10     6    13    1
    11     8    17    1
    12     3    17    1
    13    17    19    1
    14    19    20    1
    15    20    21    1
    16    21    22    1
    17    24    26    1
    18    26    27    1
    19    27    28    1
    20    28    29    1
    21    28    30    1
    22    30    31    1
    23    30    32    1
    24    30    33    1
    25    28    34    1
    26    34    37    1
    27    24    37    1
    28    22    38    1
    29    38    39    1
    30     2    39    1
    31     2    21    1
    32     1     2    1
    33     6     7    1
    34     8     9    1
    35    12    16    2
    36    13    14    1
    37    13    15    1
    38    17    18    1
    39    21    40    1
    40    22    23    1
    41    34    36    1
    42    34    35    1
    43    24    22    1
    44    24    25    1
    45     1    41    1
    46     1    42    1
    47     1    43    1
    48     4    44    1
    49     5    45    1
    50     5    46    1
    51     9    47    1
    52     9    48    1
    53     9    49    1
    54    10    50    1
    55    10    51    1
    56    11    52    1
    57    11    53    1
    58    14    54    1
    59    14    55    1
    60    14    56    1
    61    15    57    1
    62    15    58    1
    63    15    59    1
    64    19    60    1
    65    19    61    1
    66    20    62    1
    67    20    63    1
    68    26    64    1
    69    26    65    1
    70    31    66    1
    71    31    67    1
    72    31    68    1
    73    32    69    1
    74    33    70    1
    75    33    71    1
    76    33    72    1
    77    36    73    1
    78    37    74    1
    79    37    75    1
    80    38    76    1
    81    38    77    1
    82    39    78    1
    83    39    79    1
    84    40    80    1
    85    40    81    1
    86    40    82    1
