@<TRIPOS>MOLECULE
NuBBE_2002
 68 72 0 0 0
SMALL
GASTEIGER

@<TRIPOS>ATOM
      1 C          -3.3643   -0.2462   -1.5136 C.3     1  LIG1       -0.0327
      2 C          -2.1411    0.0601   -2.3383 C.ar    1  LIG1        0.0340
      3 C          -1.6742    1.4260   -2.4652 C.ar    1  LIG1        0.1418
      4 C          -0.6249    1.7972   -3.3232 C.ar    1  LIG1        0.1012
      5 C          -0.1806    3.2119   -3.4639 C.2     1  LIG1        0.1740
      6 C          -0.8602    4.1912   -2.5522 C.3     1  LIG1        0.0520
      7 C          -1.2637    3.4392   -1.2796 C.3     1  LIG1        0.1323
      8 H          -1.8201    4.1406   -0.6452 H       1  LIG1        0.0789
      9 C          -0.0921    2.9559   -0.4099 C.ar    1  LIG1       -0.0033
     10 C           1.1277    3.6322   -0.3276 C.ar    1  LIG1       -0.0514
     11 C           2.1293    3.1797    0.5323 C.ar    1  LIG1       -0.0159
     12 C           1.9349    2.0695    1.3682 C.ar    1  LIG1        0.1624
     13 O           2.9984    1.9081    2.2201 O.3     1  LIG1       -0.4837
     14 C           3.0716    0.7360    3.0127 C.3     1  LIG1        0.1148
     15 C           4.0347    0.9292    4.1649 C.ar    1  LIG1       -0.0104
     16 C           3.7921    1.8862    5.1650 C.ar    1  LIG1       -0.0554
     17 C           4.6317    1.9721    6.2793 C.ar    1  LIG1       -0.0614
     18 C           5.7190    1.1079    6.4024 C.ar    1  LIG1       -0.0617
     19 C           5.9692    0.1591    5.4133 C.ar    1  LIG1       -0.0614
     20 C           5.1314    0.0702    4.3025 C.ar    1  LIG1       -0.0554
     21 C           0.7228    1.3576    1.2846 C.ar    1  LIG1        0.1619
     22 O           0.4890    0.2731    2.0902 O.3     1  LIG1       -0.4914
     23 C          -0.7705   -0.3970    1.9983 C.3     1  LIG1        0.0790
     24 C          -0.2555    1.8141    0.3884 C.ar    1  LIG1       -0.0096
     25 O          -2.2153    2.3847   -1.6207 O.3     1  LIG1       -0.4826
     26 O           0.6849    3.5629   -4.3017 O.2     1  LIG1       -0.2917
     27 C           0.0308    0.7951   -4.0011 C.ar    1  LIG1        0.1372
     28 O           1.1011    1.0859   -4.8165 O.3     1  LIG1       -0.5056
     29 C          -0.3367   -0.5733   -3.8306 C.ar    1  LIG1        0.0337
     30 C           0.5260   -1.5201   -4.6106 C.3     1  LIG1       -0.0327
     31 C          -1.4239   -0.9748   -2.9853 C.ar    1  LIG1        0.1337
     32 O          -1.5029   -2.3241   -2.6203 O.3     1  LIG1       -0.4866
     33 C          -2.7205   -3.1351   -2.6500 C.3     1  LIG1        0.1147
     34 C          -3.0150   -4.0431   -1.4103 C.ar    1  LIG1       -0.0104
     35 C          -3.8521   -5.1785   -1.4600 C.ar    1  LIG1       -0.0554
     36 C          -4.2404   -5.8647   -0.2772 C.ar    1  LIG1       -0.0614
     37 C          -3.9374   -5.3371    0.9721 C.ar    1  LIG1       -0.0617
     38 C          -3.0947   -4.2375    1.0348 C.ar    1  LIG1       -0.0614
     39 C          -2.5482   -3.7213   -0.1493 C.ar    1  LIG1       -0.0554
     40 H          -4.1559   -0.6404   -2.1612 H       1  LIG1        0.0280
     41 H          -3.7922    0.6351   -1.0293 H       1  LIG1        0.0280
     42 H          -3.1346   -0.9715   -0.7307 H       1  LIG1        0.0280
     43 H          -1.7284    4.5953   -3.0782 H       1  LIG1        0.0385
     44 H          -0.1679    4.9986   -2.3375 H       1  LIG1        0.0385
     45 H           1.3364    4.5297   -0.9043 H       1  LIG1        0.0623
     46 H           3.0755    3.7202    0.5756 H       1  LIG1        0.0655
     47 H           3.4083   -0.0877    2.3726 H       1  LIG1        0.0748
     48 H           2.1240    0.4854    3.4842 H       1  LIG1        0.0748
     49 H           2.9367    2.5551    5.0893 H       1  LIG1        0.0621
     50 H           4.4350    2.7069    7.0563 H       1  LIG1        0.0618
     51 H           6.3720    1.1715    7.2686 H       1  LIG1        0.0618
     52 H           6.8120   -0.5197    5.5068 H       1  LIG1        0.0618
     53 H           5.3277   -0.6876    3.5480 H       1  LIG1        0.0621
     54 H          -0.7695   -1.0799    1.1427 H       1  LIG1        0.0660
     55 H          -1.6275    0.2841    1.9518 H       1  LIG1        0.0660
     56 H          -0.9151   -0.9863    2.9083 H       1  LIG1        0.0660
     57 H          -1.1971    1.2882    0.2949 H       1  LIG1        0.0659
     58 H           1.2539    2.0601   -4.8227 H       1  LIG1        0.2922
     59 H           0.5574   -1.1823   -5.6556 H       1  LIG1        0.0280
     60 H           0.1459   -2.5419   -4.6059 H       1  LIG1        0.0280
     61 H           1.5467   -1.4962   -4.2137 H       1  LIG1        0.0280
     62 H          -2.6266   -3.8063   -3.5119 H       1  LIG1        0.0748
     63 H          -3.6066   -2.5227   -2.8349 H       1  LIG1        0.0748
     64 H          -4.2091   -5.5873   -2.4013 H       1  LIG1        0.0621
     65 H          -4.7845   -6.8101   -0.3241 H       1  LIG1        0.0618
     66 H          -4.2918   -5.8080    1.8881 H       1  LIG1        0.0618
     67 H          -2.8336   -3.8156    2.0029 H       1  LIG1        0.0618
     68 H          -1.6515   -3.0794   -0.0554 H       1  LIG1        0.0621
@<TRIPOS>BOND
     1     1     2    1
     2     2     3   ar
     3     3     4   ar
     4     4     5    1
     5     5     6    1
     6     6     7    1
     7     9    10   ar
     8    10    11   ar
     9    11    12   ar
    10    12    13    1
    11    13    14    1
    12    14    15    1
    13    15    16   ar
    14    16    17   ar
    15    17    18   ar
    16    18    19   ar
    17    19    20   ar
    18    15    20   ar
    19    12    21   ar
    20    21    22    1
    21    22    23    1
    22    21    24   ar
    23     9    24   ar
    24     7    25    1
    25     3    25    1
    26     5    26    2
    27     4    27   ar
    28    27    28    1
    29    27    29   ar
    30    29    30    1
    31    29    31   ar
    32     2    31   ar
    33    31    32    1
    34    32    33    1
    35    33    34    1
    36    34    35   ar
    37    35    36   ar
    38    36    37   ar
    39    37    38   ar
    40    38    39   ar
    41    34    39   ar
    42     7     9    1
    43     7     8    1
    44     1    40    1
    45     1    41    1
    46     1    42    1
    47     6    43    1
    48     6    44    1
    49    10    45    1
    50    11    46    1
    51    14    47    1
    52    14    48    1
    53    16    49    1
    54    17    50    1
    55    18    51    1
    56    19    52    1
    57    20    53    1
    58    23    54    1
    59    23    55    1
    60    23    56    1
    61    24    57    1
    62    28    58    1
    63    30    59    1
    64    30    60    1
    65    30    61    1
    66    33    62    1
    67    33    63    1
    68    35    64    1
    69    36    65    1
    70    37    66    1
    71    38    67    1
    72    39    68    1
