@<TRIPOS>MOLECULE
NuBBE_2160
 69 72 0 0 0
SMALL
GASTEIGER

@<TRIPOS>ATOM
      1 O           1.0393   -5.2901   -4.0020 O.3     1  LIG1       -0.3915
      2 C           1.2724   -5.7389   -2.6629 C.3     1  LIG1        0.0590
      3 H           1.5849   -6.7858   -2.7435 H       1  LIG1        0.0596
      4 C          -0.0340   -5.6633   -1.8543 C.3     1  LIG1       -0.0051
      5 C           2.4188   -4.9195   -2.0565 C.3     1  LIG1       -0.0258
      6 C           1.9947   -3.5060   -1.6150 C.3     1  LIG1       -0.0413
      7 C           0.7216   -3.4828   -0.7149 C.3     1  LIG1       -0.0078
      8 C           1.0385   -4.2266    0.6082 C.3     1  LIG1       -0.0556
      9 C          -0.3484   -4.2188   -1.5151 C.2     1  LIG1       -0.0648
     10 C          -1.4280   -3.6090   -2.0341 C.2     1  LIG1       -0.0839
     11 C          -1.6920   -2.1372   -1.9445 C.3     1  LIG1       -0.0311
     12 C          -0.4479   -1.3117   -1.5574 C.3     1  LIG1       -0.0307
     13 H           0.2071   -1.3146   -2.4406 H       1  LIG1        0.0309
     14 C           0.3273   -1.9849   -0.3957 C.3     1  LIG1       -0.0285
     15 H           1.2758   -1.4480   -0.2599 H       1  LIG1        0.0312
     16 C          -0.4640   -1.7797    0.9108 C.3     1  LIG1       -0.0486
     17 C          -0.6211   -0.2937    1.2259 C.3     1  LIG1       -0.0468
     18 C          -1.3619    0.5153    0.1425 C.3     1  LIG1       -0.0256
     19 C          -2.8804    0.2424    0.2023 C.3     1  LIG1       -0.0590
     20 C          -0.8032    0.1760   -1.2730 C.3     1  LIG1       -0.0320
     21 H          -1.5154    0.5174   -2.0382 H       1  LIG1        0.0309
     22 C           0.4355    1.0698   -1.3930 C.3     1  LIG1       -0.0492
     23 C           0.1148    2.3477   -0.6354 C.3     1  LIG1       -0.0489
     24 C          -1.1039    2.0652    0.2716 C.3     1  LIG1       -0.0294
     25 H          -1.9579    2.5855   -0.1896 H       1  LIG1        0.0312
     26 C          -0.9115    2.6674    1.7024 C.3     1  LIG1       -0.0224
     27 H          -0.0585    2.1697    2.1807 H       1  LIG1        0.0343
     28 C          -2.1240    2.4725    2.6206 C.3     1  LIG1       -0.0587
     29 C          -0.6076    4.1607    1.6473 C.2     1  LIG1       -0.0846
     30 C           0.5492    4.7096    2.0484 C.2     1  LIG1       -0.0851
     31 C           0.8477    6.1945    2.0370 C.3     1  LIG1       -0.0286
     32 C           1.1785    6.6763    3.4508 C.3     1  LIG1       -0.0592
     33 C           1.9965    6.5357    1.0859 C.3     1  LIG1       -0.0592
     34 H           0.6205   -4.4130   -3.9439 H       1  LIG1        0.2098
     35 H           0.0493   -6.2522   -0.9346 H       1  LIG1        0.0335
     36 H          -0.8482   -6.1086   -2.4391 H       1  LIG1        0.0335
     37 H           3.2309   -4.8220   -2.7875 H       1  LIG1        0.0290
     38 H           2.8360   -5.4590   -1.1991 H       1  LIG1        0.0290
     39 H           1.8310   -2.9022   -2.5168 H       1  LIG1        0.0274
     40 H           2.8357   -3.0396   -1.0857 H       1  LIG1        0.0274
     41 H           1.4670   -5.2212    0.4589 H       1  LIG1        0.0238
     42 H           0.1361   -4.3760    1.2118 H       1  LIG1        0.0238
     43 H           1.7680   -3.6641    1.2031 H       1  LIG1        0.0238
     44 H          -2.1485   -4.1831   -2.6143 H       1  LIG1        0.0572
     45 H          -2.5219   -1.9965   -1.2525 H       1  LIG1        0.0310
     46 H          -2.0459   -1.7898   -2.9235 H       1  LIG1        0.0310
     47 H           0.0701   -2.2135    1.7619 H       1  LIG1        0.0268
     48 H          -1.4382   -2.2776    0.8688 H       1  LIG1        0.0268
     49 H           0.3852    0.1178    1.3758 H       1  LIG1        0.0271
     50 H          -1.1319   -0.2115    2.1895 H       1  LIG1        0.0271
     51 H          -3.1131   -0.8163    0.3299 H       1  LIG1        0.0235
     52 H          -3.3817    0.5884   -0.7091 H       1  LIG1        0.0235
     53 H          -3.3613    0.7568    1.0362 H       1  LIG1        0.0235
     54 H           0.6800    1.2776   -2.4405 H       1  LIG1        0.0268
     55 H           1.3217    0.6063   -0.9481 H       1  LIG1        0.0268
     56 H          -0.1278    3.1547   -1.3373 H       1  LIG1        0.0268
     57 H           1.0007    2.6652   -0.0756 H       1  LIG1        0.0268
     58 H          -1.9764    2.9741    3.5841 H       1  LIG1        0.0235
     59 H          -2.2982    1.4197    2.8529 H       1  LIG1        0.0235
     60 H          -3.0386    2.8741    2.1706 H       1  LIG1        0.0235
     61 H          -1.4050    4.7999    1.2674 H       1  LIG1        0.0572
     62 H           1.3414    4.0635    2.4296 H       1  LIG1        0.0572
     63 H          -0.0405    6.7405    1.6938 H       1  LIG1        0.0338
     64 H           2.0563    6.1610    3.8588 H       1  LIG1        0.0235
     65 H           0.3387    6.5006    4.1316 H       1  LIG1        0.0235
     66 H           1.3919    7.7509    3.4545 H       1  LIG1        0.0235
     67 H           2.9427    6.0859    1.4079 H       1  LIG1        0.0235
     68 H           2.1450    7.6215    1.0440 H       1  LIG1        0.0235
     69 H           1.7859    6.1928    0.0674 H       1  LIG1        0.0235
@<TRIPOS>BOND
     1     2     4    1
     2     2     5    1
     3     5     6    1
     4     6     7    1
     5     7     8    1
     6     7     9    1
     7     4     9    1
     8     9    10    2
     9    10    11    1
    10    11    12    1
    11    12    13    1
    12    12    14    1
    13    14    15    1
    14     7    14    1
    15    14    16    1
    16    16    17    1
    17    17    18    1
    18    18    19    1
    19    18    20    1
    20    20    21    1
    21    12    20    1
    22    20    22    1
    23    22    23    1
    24    23    24    1
    25    24    25    1
    26    18    24    1
    27    26    28    1
    28    26    29    1
    29    29    30    2
    30    30    31    1
    31    31    32    1
    32    31    33    1
    33     2     3    1
    34     2     1    1
    35    26    27    1
    36    26    24    1
    37     1    34    1
    38     4    35    1
    39     4    36    1
    40     5    37    1
    41     5    38    1
    42     6    39    1
    43     6    40    1
    44     8    41    1
    45     8    42    1
    46     8    43    1
    47    10    44    1
    48    11    45    1
    49    11    46    1
    50    16    47    1
    51    16    48    1
    52    17    49    1
    53    17    50    1
    54    19    51    1
    55    19    52    1
    56    19    53    1
    57    22    54    1
    58    22    55    1
    59    23    56    1
    60    23    57    1
    61    28    58    1
    62    28    59    1
    63    28    60    1
    64    29    61    1
    65    30    62    1
    66    31    63    1
    67    32    64    1
    68    32    65    1
    69    32    66    1
    70    33    67    1
    71    33    68    1
    72    33    69    1
