REMARK  Name = NuBBE_2456
REMARK  13 active torsions:
REMARK  status: ('A' for Active; 'I' for Inactive)
REMARK    1  A    between atoms: C_1  and  O_2
REMARK    2  A    between atoms: O_2  and  C_3
REMARK    3  A    between atoms: C_5  and  C_6
REMARK    4  A    between atoms: C_6  and  C_7
REMARK    5  A    between atoms: C_9  and  C_11
REMARK    6  A    between atoms: C_11  and  O_12
REMARK    7  A    between atoms: C_13  and  C_15
REMARK    8  A    between atoms: C_18  and  O_19
REMARK    9  A    between atoms: O_19  and  C_20
REMARK   10  A    between atoms: C_21  and  O_22
REMARK   11  A    between atoms: O_22  and  C_23
REMARK   12  A    between atoms: C_29  and  O_30
REMARK   13  A    between atoms: O_30  and  C_31
REMARK                            x       y       z     vdW  Elec       q    Type
REMARK                         _______ _______ _______ _____ _____    ______ ____
ROOT
ATOM      1  C   LIG A   1       0.321  -1.507   0.201  0.00  0.00    +0.027 C 
ATOM      2  C   LIG A   1       1.578  -0.847  -0.357  0.00  0.00    +0.053 C 
ATOM      3  C   LIG A   1       1.170   0.615  -0.544  0.00  0.00    +0.154 C 
ATOM      4  O   LIG A   1      -0.276   0.634  -0.602  0.00  0.00    -0.371 OA
ATOM      5  C   LIG A   1      -0.740  -0.720  -0.561  0.00  0.00    +0.165 C 
ENDROOT
BRANCH   3   6
ATOM      6  C   LIG A   1       1.701   1.332  -1.763  0.00  0.00    -0.015 A 
ATOM      7  C   LIG A   1       2.505   0.724  -2.722  0.00  0.00    +0.010 A 
ATOM      8  C   LIG A   1       2.918   1.403  -3.866  0.00  0.00    +0.050 A 
ATOM      9  C   LIG A   1       2.572   2.739  -4.061  0.00  0.00    +0.162 A 
ATOM     10  C   LIG A   1       1.798   3.391  -3.095  0.00  0.00    +0.162 A 
ATOM     11  C   LIG A   1       1.357   2.679  -1.961  0.00  0.00    +0.055 A 
BRANCH   9  12
ATOM     12  O   LIG A   1       3.018   3.237  -5.254  0.00  0.00    -0.491 OA
ATOM     13  C   LIG A   1       3.315   4.625  -5.305  0.00  0.00    +0.277 C 
ENDBRANCH   9  12
BRANCH  10  14
ATOM     14  O   LIG A   1       1.394   4.684  -3.315  0.00  0.00    -0.491 OA
ATOM     15  C   LIG A   1       1.225   5.494  -2.155  0.00  0.00    +0.277 C 
ENDBRANCH  10  14
ENDBRANCH   3   6
BRANCH   1  16
ATOM     16  C   LIG A   1       0.205  -1.385   1.726  0.00  0.00    +0.041 C 
BRANCH  16  19
ATOM     17  C   LIG A   1      -3.405  -1.915   2.797  0.00  0.00    +0.162 A 
ATOM     18  C   LIG A   1      -2.220  -1.317   2.368  0.00  0.00    +0.053 A 
ATOM     19  C   LIG A   1      -1.037  -2.054   2.248  0.00  0.00    -0.043 A 
ATOM     20  C   LIG A   1      -1.038  -3.413   2.557  0.00  0.00    +0.007 A 
ATOM     21  C   LIG A   1      -2.213  -4.026   2.986  0.00  0.00    +0.050 A 
ATOM     22  C   LIG A   1      -3.396  -3.286   3.118  0.00  0.00    +0.162 A 
BRANCH  17  24
ATOM     23  C   LIG A   1      -4.606   0.147   2.619  0.00  0.00    +0.277 C 
ATOM     24  O   LIG A   1      -4.590  -1.239   2.948  0.00  0.00    -0.491 OA
ENDBRANCH  17  24
BRANCH  22  25
ATOM     25  O   LIG A   1      -4.591  -3.853   3.490  0.00  0.00    -0.491 OA
ATOM     26  C   LIG A   1      -4.496  -4.934   4.409  0.00  0.00    +0.277 C 
ENDBRANCH  22  25
ENDBRANCH  16  19
ENDBRANCH   1  16
BRANCH   2  27
ATOM     27  C   LIG A   1       2.869  -0.993   0.437  0.00  0.00    +0.162 C 
BRANCH  27  28
ATOM     28  O   LIG A   1       3.174  -2.374   0.566  0.00  0.00    -0.395 OA
ATOM     29  H   LIG A   1       3.989  -2.443   1.094  0.00  0.00    +0.209 HD
ENDBRANCH  27  28
ENDBRANCH   2  27
TORSDOF 9
