@<TRIPOS>MOLECULE
NuBBE_1768
 36 39 0 0 0
SMALL
GASTEIGER

@<TRIPOS>ATOM
      1 O          -2.9527   -1.8623    0.6172 O.3     1  LIG1       -0.3843
      2 C          -1.5264   -1.7907    0.6747 C.3     1  LIG1        0.1134
      3 H          -1.1374   -2.8147    0.6110 H       1  LIG1        0.0672
      4 C          -1.0012   -0.9888   -0.5169 C.3     1  LIG1        0.1299
      5 H          -1.0689   -1.6194   -1.4144 H       1  LIG1        0.0666
      6 C           0.4374   -0.5538   -0.2241 C.3     1  LIG1        0.1543
      7 H           1.0801   -1.4364   -0.1017 H       1  LIG1        0.0812
      8 C           0.9376    0.2659   -1.3946 C.ar    1  LIG1        0.0043
      9 C           0.0107    0.9356   -2.2241 C.ar    1  LIG1       -0.0115
     10 C          -1.4779    0.8355   -1.9630 C.3     1  LIG1        0.0738
     11 O          -1.8332    0.1718   -0.7426 O.3     1  LIG1       -0.3650
     12 C           0.4703    1.6515   -3.3434 C.ar    1  LIG1       -0.0108
     13 C           1.8332    1.6983   -3.6156 C.ar    1  LIG1        0.1586
     14 C           2.7419    1.0540   -2.7812 C.ar    1  LIG1        0.1586
     15 C           2.3108    0.3489   -1.6676 C.ar    1  LIG1       -0.0094
     16 O           4.0769    1.0973   -3.0653 O.3     1  LIG1       -0.5033
     17 O           2.3311    2.3578   -4.7056 O.3     1  LIG1       -0.5033
     18 O           0.5391    0.2603    0.9537 O.3     1  LIG1       -0.4810
     19 C          -0.0872   -0.2520    2.0590 C.ar    1  LIG1        0.1307
     20 C          -1.0851   -1.2297    1.9968 C.ar    1  LIG1        0.0254
     21 C          -1.6405   -1.7177    3.1921 C.ar    1  LIG1       -0.0491
     22 C          -1.2296   -1.2134    4.4254 C.ar    1  LIG1       -0.0196
     23 C          -0.2647   -0.2125    4.4636 C.ar    1  LIG1        0.1204
     24 C           0.3042    0.2739    3.2917 C.ar    1  LIG1        0.0219
     25 O           0.1575    0.3133    5.6491 O.3     1  LIG1       -0.5066
     26 H          -3.2344   -0.9452    0.4236 H       1  LIG1        0.2103
     27 H          -1.9514    0.2909   -2.7883 H       1  LIG1        0.0610
     28 H          -1.9133    1.8394   -1.9215 H       1  LIG1        0.0610
     29 H          -0.2422    2.1502   -3.9940 H       1  LIG1        0.0659
     30 H           3.0390   -0.1431   -1.0292 H       1  LIG1        0.0659
     31 H           4.1366    1.6328   -3.8811 H       1  LIG1        0.2923
     32 H           1.5879    2.7644   -5.1826 H       1  LIG1        0.2923
     33 H          -2.4018   -2.4953    3.1563 H       1  LIG1        0.0623
     34 H          -1.6739   -1.6077    5.3344 H       1  LIG1        0.0654
     35 H           1.0591    1.0531    3.3379 H       1  LIG1        0.0691
     36 H          -0.3318   -0.1123    6.3704 H       1  LIG1        0.2921
@<TRIPOS>BOND
     1     2     4    1
     2     4     6    1
     3     6     8    1
     4     8     9   ar
     5     9    10    1
     6    10    11    1
     7     4    11    1
     8     9    12   ar
     9    12    13   ar
    10    13    14   ar
    11    14    15   ar
    12     8    15   ar
    13     6    18    1
    14    18    19    1
    15    19    20   ar
    16     2    20    1
    17    20    21   ar
    18    21    22   ar
    19    22    23   ar
    20    23    24   ar
    21    19    24   ar
    22     1     2    1
    23     2     3    1
    24     4     5    1
    25     6     7    1
    26    13    17    1
    27    14    16    1
    28    23    25    1
    29     1    26    1
    30    10    27    1
    31    10    28    1
    32    12    29    1
    33    15    30    1
    34    16    31    1
    35    17    32    1
    36    21    33    1
    37    22    34    1
    38    24    35    1
    39    25    36    1
