REMARK  Name = NuBBE_2309
REMARK  10 active torsions:
REMARK  status: ('A' for Active; 'I' for Inactive)
REMARK    1  A    between atoms: C_5  and  C_6
REMARK    2  A    between atoms: C_8  and  C_26
REMARK    3  A    between atoms: C_10  and  C_23
REMARK    4  A    between atoms: C_12  and  O_13
REMARK    5  A    between atoms: O_13  and  C_14
REMARK    6  A    between atoms: C_15  and  O_22
REMARK    7  A    between atoms: C_17  and  O_20
REMARK    8  A    between atoms: C_18  and  O_19
REMARK    9  A    between atoms: O_20  and  C_21
REMARK   10  A    between atoms: C_23  and  C_24
REMARK                            x       y       z     vdW  Elec       q    Type
REMARK                         _______ _______ _______ _____ _____    ______ ____
ROOT
ATOM      1  C   LIG A   1      -1.031   0.412  -0.384  0.00  0.00    +0.060 C 
ATOM      2  C   LIG A   1      -0.619  -1.073  -0.727  0.00  0.00    +0.009 C 
ATOM      3  C   LIG A   1       0.534  -1.447   0.292  0.00  0.00    +0.028 C 
ATOM      4  C   LIG A   1      -0.039  -2.219   1.471  0.00  0.00    +0.027 C 
ATOM      5  C   LIG A   1      -0.842  -1.587   2.363  0.00  0.00    +0.125 C 
ATOM      6  C   LIG A   1      -1.160  -0.118   2.193  0.00  0.00    +0.214 C 
ATOM      7  C   LIG A   1      -0.392   0.642   1.048  0.00  0.00    +0.135 C 
ATOM      8  C   LIG A   1       0.982  -0.028   0.813  0.00  0.00    +0.160 C 
ATOM      9  C   LIG A   1      -1.871  -1.975  -0.727  0.00  0.00    +0.009 C 
ENDROOT
BRANCH   1  14
ATOM     10  C   LIG A   1      -0.742   1.858  -3.974  0.00  0.00    +0.050 A 
ATOM     11  C   LIG A   1       0.125   2.905  -3.767  0.00  0.00    +0.166 A 
ATOM     12  C   LIG A   1       0.592   3.197  -2.512  0.00  0.00    +0.167 A 
ATOM     13  C   LIG A   1       0.234   2.454  -1.403  0.00  0.00    +0.053 A 
ATOM     14  C   LIG A   1      -0.617   1.345  -1.554  0.00  0.00    -0.037 A 
ATOM     15  C   LIG A   1      -1.116   1.083  -2.862  0.00  0.00    +0.008 A 
ATOM     16  O   LIG A   1       1.445   4.258  -2.506  0.00  0.00    -0.453 OA
ATOM     17  C   LIG A   1       1.514   4.554  -3.915  0.00  0.00    +0.466 C 
ATOM     18  O   LIG A   1       0.628   3.741  -4.714  0.00  0.00    -0.453 OA
ENDBRANCH   1  14
BRANCH   5  19
ATOM     19  O   LIG A   1      -1.358  -2.301   3.429  0.00  0.00    -0.497 OA
ATOM     20  C   LIG A   1      -1.572  -1.531   4.616  0.00  0.00    +0.276 C 
ENDBRANCH   5  19
BRANCH   8  21
ATOM     21  O   LIG A   1       1.798  -0.069   1.983  0.00  0.00    -0.388 OA
ATOM     22  H   LIG A   1       2.664  -0.429   1.728  0.00  0.00    +0.210 HD
ENDBRANCH   8  21
BRANCH   7  23
ATOM     23  O   LIG A   1      -0.407   2.040   1.394  0.00  0.00    -0.370 OA
ATOM     24  C   LIG A   1       0.441   2.446   2.467  0.00  0.00    +0.195 C 
ENDBRANCH   7  23
BRANCH   6  25
ATOM     25  O   LIG A   1      -2.578   0.054   2.065  0.00  0.00    -0.381 OA
ATOM     26  H   LIG A   1      -2.748   0.998   2.234  0.00  0.00    +0.210 HD
ENDBRANCH   6  25
BRANCH   3  27
ATOM     27  C   LIG A   1       1.745  -2.177  -0.346  0.00  0.00    +0.040 C 
BRANCH  27  28
ATOM     28  C   LIG A   1       1.492  -3.500  -1.025  0.00  0.00    -0.034 C 
ATOM     29  C   LIG A   1       2.120  -4.652  -0.728  0.00  0.00    +0.004 C 
ENDBRANCH  27  28
ENDBRANCH   3  27
TORSDOF 7
