REMARK  Name = NuBBE_453
REMARK  16 active torsions:
REMARK  status: ('A' for Active; 'I' for Inactive)
REMARK    1  A    between atoms: O_1  and  C_2
REMARK    2  A    between atoms: C_4  and  C_6
REMARK    3  A    between atoms: C_9  and  C_11
REMARK    4  A    between atoms: C_11  and  C_12
REMARK    5  A    between atoms: C_12  and  C_13
REMARK    6  A    between atoms: C_13  and  C_14
REMARK    7  A    between atoms: C_14  and  C_15
REMARK    8  A    between atoms: C_15  and  C_16
REMARK    9  A    between atoms: C_16  and  C_17
REMARK   10  A    between atoms: C_17  and  C_18
REMARK   11  A    between atoms: C_18  and  C_19
REMARK   12  A    between atoms: C_19  and  C_20
REMARK   13  A    between atoms: C_20  and  C_21
REMARK   14  A    between atoms: C_21  and  O_22
REMARK   15  A    between atoms: C_21  and  C_23
REMARK   16  A    between atoms: C_23  and  O_24
REMARK                            x       y       z     vdW  Elec       q    Type
REMARK                         _______ _______ _______ _____ _____    ______ ____
ROOT
ATOM      1  C   LIG A   1      -2.624  -0.530   3.554  0.00  0.00    +0.000 C 
ENDROOT
BRANCH   1   2
ATOM      2  C   LIG A   1      -1.107  -0.390   3.848  0.00  0.00    +0.002 C 
BRANCH   2   3
ATOM      3  C   LIG A   1       0.047   0.187   2.946  0.00  0.00    +0.019 C 
BRANCH   3   9
ATOM      4  C   LIG A   1       0.514   2.686  -0.573  0.00  0.00    +0.131 C 
ATOM      5  C   LIG A   1       1.397   2.997   0.641  0.00  0.00    +0.079 C 
ATOM      6  C   LIG A   1       2.793   3.359   0.128  0.00  0.00    +0.026 C 
ATOM      7  N   LIG A   1       1.403   1.865   1.613  0.00  0.00    -0.308 NA
ATOM      8  H   LIG A   1       2.121   2.027   2.322  0.00  0.00    +0.122 HD
ATOM      9  C   LIG A   1       0.081   1.652   2.317  0.00  0.00    +0.054 C 
ATOM     10  C   LIG A   1      -1.088   2.155   1.421  0.00  0.00    +0.021 C 
ATOM     11  C   LIG A   1      -0.760   2.035  -0.069  0.00  0.00    +0.034 C 
BRANCH   4  12
ATOM     12  O   LIG A   1       1.211   1.880  -1.520  0.00  0.00    -0.390 OA
ATOM     13  H   LIG A   1       1.795   1.259  -1.019  0.00  0.00    +0.210 HD
ENDBRANCH   4  12
ENDBRANCH   3   9
ENDBRANCH   2   3
ENDBRANCH   1   2
BRANCH   1  14
ATOM     14  C   LIG A   1      -3.210  -1.506   2.507  0.00  0.00    -0.000 C 
BRANCH  14  15
ATOM     15  C   LIG A   1      -2.998  -1.181   1.024  0.00  0.00    -0.000 C 
BRANCH  15  16
ATOM     16  C   LIG A   1      -1.551  -1.303   0.586  0.00  0.00    -0.000 C 
BRANCH  16  17
ATOM     17  C   LIG A   1      -1.242  -0.980  -0.873  0.00  0.00    -0.000 C 
BRANCH  17  18
ATOM     18  C   LIG A   1       0.280  -0.763  -1.101  0.00  0.00    +0.000 C 
BRANCH  18  19
ATOM     19  C   LIG A   1       1.313  -1.857  -1.148  0.00  0.00    +0.003 C 
BRANCH  19  20
ATOM     20  C   LIG A   1       1.292  -2.741  -2.369  0.00  0.00    +0.034 C 
BRANCH  20  21
ATOM     21  C   LIG A   1       1.801  -2.184  -3.716  0.00  0.00    +0.140 C 
BRANCH  21  22
ATOM     22  O   LIG A   1       1.737  -3.267  -4.660  0.00  0.00    -0.390 OA
ATOM     23  H   LIG A   1       2.310  -3.984  -4.317  0.00  0.00    +0.210 HD
ENDBRANCH  21  22
BRANCH  21  24
ATOM     24  C   LIG A   1       1.052  -0.984  -4.330  0.00  0.00    +0.187 C 
BRANCH  24  25
ATOM     25  O   LIG A   1       1.532  -0.694  -5.667  0.00  0.00    -0.393 OA
ATOM     26  H   LIG A   1       2.238  -1.256  -5.854  0.00  0.00    +0.209 HD
ENDBRANCH  24  25
ENDBRANCH  21  24
ENDBRANCH  20  21
ENDBRANCH  19  20
ENDBRANCH  18  19
ENDBRANCH  17  18
ENDBRANCH  16  17
ENDBRANCH  15  16
ENDBRANCH  14  15
ENDBRANCH   1  14
TORSDOF 15
