REMARK  Name = NuBBE_982
REMARK  9 active torsions:
REMARK  status: ('A' for Active; 'I' for Inactive)
REMARK    1  A    between atoms: C_1  and  C_2
REMARK    2  A    between atoms: C_2  and  C_3
REMARK    3  A    between atoms: C_2  and  O_4
REMARK    4  A    between atoms: C_2  and  C_5
REMARK    5  A    between atoms: C_8  and  O_9
REMARK    6  A    between atoms: C_12  and  C_13
REMARK    7  A    between atoms: C_13  and  O_14
REMARK    8  A    between atoms: O_14  and  C_15
REMARK    9  A    between atoms: C_15  and  C_16
REMARK                            x       y       z     vdW  Elec       q    Type
REMARK                         _______ _______ _______ _____ _____    ______ ____
ROOT
ATOM      1  C   LIG A   1       1.676   0.610   1.339  0.00  0.00    +0.023 C 
ATOM      2  C   LIG A   1       1.827   2.055   0.756  0.00  0.00    +0.042 C 
ATOM      3  C   LIG A   1       0.608   2.994   0.556  0.00  0.00    +0.140 C 
ATOM      4  C   LIG A   1       1.153  -0.330   0.212  0.00  0.00    +0.007 C 
ATOM      5  C   LIG A   1       0.035  -1.331   0.494  0.00  0.00    +0.007 C 
ATOM      6  C   LIG A   1      -0.806  -1.756  -0.727  0.00  0.00    +0.027 C 
ATOM      7  C   LIG A   1      -2.010  -0.811  -0.985  0.00  0.00    +0.007 C 
ATOM      8  C   LIG A   1      -1.681   0.618  -1.432  0.00  0.00    +0.005 C 
ATOM      9  C   LIG A   1      -1.413   1.592  -0.267  0.00  0.00    +0.033 C 
ATOM     10  C   LIG A   1      -0.387   2.673  -0.564  0.00  0.00    -0.049 C 
ATOM     11  C   LIG A   1      -0.475   3.359  -1.723  0.00  0.00    +0.010 C 
ENDROOT
BRANCH   1  13
ATOM     12  C   LIG A   1       2.010   1.315   3.775  0.00  0.00    +0.041 C 
ATOM     13  C   LIG A   1       1.100   0.539   2.799  0.00  0.00    +0.063 C 
ATOM     14  C   LIG A   1       0.974  -0.891   3.353  0.00  0.00    +0.041 C 
BRANCH  13  15
ATOM     15  O   LIG A   1      -0.189   1.143   2.845  0.00  0.00    -0.389 OA
ATOM     16  H   LIG A   1      -0.480   1.173   3.774  0.00  0.00    +0.210 HD
ENDBRANCH  13  15
ENDBRANCH   1  13
BRANCH   3  17
ATOM     17  O   LIG A   1       1.173   4.295   0.292  0.00  0.00    -0.388 OA
ATOM     18  H   LIG A   1       1.758   4.192  -0.477  0.00  0.00    +0.210 HD
ENDBRANCH   3  17
BRANCH   6  19
ATOM     19  C   LIG A   1       0.037  -2.054  -1.981  0.00  0.00    +0.235 C 
BRANCH  19  20
ATOM     20  O   LIG A   1      -0.795  -2.488  -3.068  0.00  0.00    -0.465 OA
BRANCH  20  21
ATOM     21  C   LIG A   1      -1.155  -3.796  -3.048  0.00  0.00    +0.304 C 
ATOM     22  C   LIG A   1      -2.072  -4.118  -4.185  0.00  0.00    +0.136 C 
ATOM     23  O   LIG A   1      -0.786  -4.620  -2.220  0.00  0.00    -0.251 OA
ENDBRANCH  20  21
ENDBRANCH  19  20
ENDBRANCH   6  19
TORSDOF 6
