REMARK  Name = NuBBE_1630
REMARK  13 active torsions:
REMARK  status: ('A' for Active; 'I' for Inactive)
REMARK    1  A    between atoms: C_1  and  C_2
REMARK    2  A    between atoms: C_1  and  C_16
REMARK    3  A    between atoms: C_3  and  C_4
REMARK    4  A    between atoms: C_3  and  C_15
REMARK    5  A    between atoms: C_4  and  C_5
REMARK    6  A    between atoms: C_5  and  C_6
REMARK    7  A    between atoms: C_7  and  C_8
REMARK    8  A    between atoms: C_7  and  C_14
REMARK    9  A    between atoms: C_8  and  C_9
REMARK   10  A    between atoms: C_9  and  C_10
REMARK   11  A    between atoms: C_11  and  C_12
REMARK   12  A    between atoms: C_11  and  C_13
REMARK   13  A    between atoms: C_20  and  O_25
REMARK                            x       y       z     vdW  Elec       q    Type
REMARK                         _______ _______ _______ _____ _____    ______ ____
ROOT
ATOM      1  C   LIG A   1      -3.222  -0.385   1.050  0.00  0.00    +0.042 C 
ENDROOT
BRANCH   1   2
ATOM      2  C   LIG A   1      -2.762  -0.856   2.474  0.00  0.00    +0.046 C 
ATOM      3  C   LIG A   1      -3.986  -0.947   3.395  0.00  0.00    +0.062 C 
ATOM      4  C   LIG A   1      -3.527  -1.394   4.769  0.00  0.00    +0.206 C 
ATOM      5  C   LIG A   1      -2.596  -0.354   5.407  0.00  0.00    +0.162 C 
ATOM      6  C   LIG A   1      -1.378  -0.047   4.552  0.00  0.00    +0.110 C 
ATOM      7  C   LIG A   1      -1.757   0.142   3.102  0.00  0.00    +0.143 C 
ATOM      8  O   LIG A   1      -1.188   1.018   2.450  0.00  0.00    -0.297 OA
ATOM      9  O   LIG A   1      -2.833  -2.667   4.710  0.00  0.00    -0.459 OA
ATOM     10  C   LIG A   1      -1.960  -2.954   3.728  0.00  0.00    +0.308 C 
ATOM     11  O   LIG A   1      -1.097  -3.835   3.895  0.00  0.00    -0.251 OA
ATOM     12  C   LIG A   1      -2.122  -2.248   2.414  0.00  0.00    +0.135 C 
BRANCH   5  13
ATOM     13  O   LIG A   1      -2.159  -0.809   6.687  0.00  0.00    -0.388 OA
ATOM     14  H   LIG A   1      -1.875  -1.740   6.594  0.00  0.00    +0.210 HD
ENDBRANCH   5  13
ENDBRANCH   1   2
BRANCH   1  15
ATOM     15  C   LIG A   1      -2.133  -0.291   0.002  0.00  0.00    -0.027 C 
ATOM     16  C   LIG A   1      -2.220  -0.446  -1.335  0.00  0.00    -0.076 C 
ATOM     17  C   LIG A   1      -3.481  -0.703  -2.107  0.00  0.00    +0.038 C 
BRANCH  16  18
ATOM     18  C   LIG A   1      -0.963  -0.356  -2.185  0.00  0.00    +0.034 C 
BRANCH  18  19
ATOM     19  C   LIG A   1      -0.746   1.053  -2.745  0.00  0.00    +0.031 C 
BRANCH  19  20
ATOM     20  C   LIG A   1       0.479   1.136  -3.612  0.00  0.00    -0.027 C 
ATOM     21  C   LIG A   1       1.720   1.474  -3.209  0.00  0.00    -0.076 C 
ATOM     22  C   LIG A   1       2.034   1.758  -1.759  0.00  0.00    +0.038 C 
BRANCH  21  23
ATOM     23  C   LIG A   1       2.832   1.554  -4.257  0.00  0.00    +0.034 C 
BRANCH  23  24
ATOM     24  C   LIG A   1       4.106   2.330  -3.877  0.00  0.00    +0.031 C 
BRANCH  24  25
ATOM     25  C   LIG A   1       4.878   1.911  -2.643  0.00  0.00    -0.028 C 
ATOM     26  C   LIG A   1       5.015   0.699  -2.065  0.00  0.00    -0.080 C 
ATOM     27  C   LIG A   1       4.539  -0.624  -2.599  0.00  0.00    +0.038 C 
ATOM     28  C   LIG A   1       5.617   0.571  -0.689  0.00  0.00    +0.038 C 
ENDBRANCH  24  25
ENDBRANCH  23  24
ENDBRANCH  21  23
ENDBRANCH  19  20
ENDBRANCH  18  19
ENDBRANCH  16  18
ENDBRANCH   1  15
TORSDOF 9
