@<TRIPOS>MOLECULE
NuBBE_1342
 39 39 0 0 0
SMALL
GASTEIGER

@<TRIPOS>ATOM
      1 O          -1.0970   -1.4542   -2.2794 O.3     1  LIG1       -0.5065
      2 C          -0.3901   -1.7619   -1.1506 C.ar    1  LIG1        0.1203
      3 C          -0.3016   -0.8182   -0.1163 C.ar    1  LIG1       -0.0024
      4 C           0.4740   -1.1543    1.0114 C.ar    1  LIG1       -0.0519
      5 C           1.1169   -2.3987    1.1143 C.ar    1  LIG1       -0.0500
      6 C           1.9368   -2.7568    2.3194 C.3     1  LIG1       -0.0397
      7 C           0.9784   -3.3265    0.0781 C.ar    1  LIG1       -0.0554
      8 C           0.2344   -3.0072   -1.0556 C.ar    1  LIG1       -0.0196
      9 C          -1.0272    0.5315   -0.1991 C.3     1  LIG1       -0.0097
     10 C          -2.0516    0.7116    0.9791 C.3     1  LIG1       -0.0398
     11 C          -2.7950    2.0560    0.9313 C.3     1  LIG1       -0.0621
     12 C          -3.1139   -0.3998    1.0091 C.3     1  LIG1       -0.0621
     13 C          -0.0052    1.7000   -0.2774 C.3     1  LIG1       -0.0392
     14 C           0.9217    1.6305   -1.4956 C.3     1  LIG1        0.0061
     15 C           1.8876    2.8081   -1.5072 C.2     1  LIG1        0.1303
     16 C           3.3654    2.4908   -1.4979 C.3     1  LIG1       -0.0061
     17 O           1.4904    3.9677   -1.5693 O.2     1  LIG1       -0.2977
     18 H          -1.0587   -2.2115   -2.8864 H       1  LIG1        0.2921
     19 H           0.5747   -0.4398    1.8261 H       1  LIG1        0.0624
     20 H           2.0183   -1.9174    3.0168 H       1  LIG1        0.0278
     21 H           2.9509   -3.0360    2.0136 H       1  LIG1        0.0278
     22 H           1.4800   -3.5983    2.8504 H       1  LIG1        0.0278
     23 H           1.4541   -4.3025    0.1492 H       1  LIG1        0.0621
     24 H           0.1523   -3.7417   -1.8510 H       1  LIG1        0.0654
     25 H          -1.6143    0.5666   -1.1262 H       1  LIG1        0.0353
     26 H          -1.5123    0.6739    1.9339 H       1  LIG1        0.0301
     27 H          -3.1672    2.2720   -0.0758 H       1  LIG1        0.0233
     28 H          -2.1485    2.8796    1.2485 H       1  LIG1        0.0233
     29 H          -3.6574    2.0532    1.6089 H       1  LIG1        0.0233
     30 H          -3.7769   -0.3385    0.1394 H       1  LIG1        0.0233
     31 H          -3.7352   -0.3018    1.9077 H       1  LIG1        0.0233
     32 H          -2.6728   -1.3993    1.0376 H       1  LIG1        0.0233
     33 H           0.5982    1.7427    0.6382 H       1  LIG1        0.0275
     34 H          -0.5453    2.6527   -0.3264 H       1  LIG1        0.0275
     35 H           0.3505    1.6650   -2.4306 H       1  LIG1        0.0342
     36 H           1.5027    0.7056   -1.5019 H       1  LIG1        0.0342
     37 H           3.5588    1.5994   -0.8967 H       1  LIG1        0.0306
     38 H           3.9115    3.3251   -1.0486 H       1  LIG1        0.0306
     39 H           3.7127    2.3325   -2.5211 H       1  LIG1        0.0306
@<TRIPOS>BOND
     1     1     2    1
     2     2     3   ar
     3     3     4   ar
     4     4     5   ar
     5     5     6    1
     6     5     7   ar
     7     7     8   ar
     8     2     8   ar
     9     3     9    1
    10     9    10    1
    11    10    11    1
    12    10    12    1
    13     9    13    1
    14    13    14    1
    15    14    15    1
    16    15    16    1
    17    15    17    2
    18     1    18    1
    19     4    19    1
    20     6    20    1
    21     6    21    1
    22     6    22    1
    23     7    23    1
    24     8    24    1
    25     9    25    1
    26    10    26    1
    27    11    27    1
    28    11    28    1
    29    11    29    1
    30    12    30    1
    31    12    31    1
    32    12    32    1
    33    13    33    1
    34    13    34    1
    35    14    35    1
    36    14    36    1
    37    16    37    1
    38    16    38    1
    39    16    39    1
