@<TRIPOS>MOLECULE
NuBBE_542
 84 88 0 0 0
SMALL
GASTEIGER

@<TRIPOS>ATOM
      1 C          -4.6999   -1.1500    4.9482 C.3     1  LIG1       -0.0574
      2 C          -4.1151   -0.0410    4.0441 C.3     1  LIG1       -0.0083
      3 C          -5.2405    0.4533    3.1134 C.3     1  LIG1       -0.0445
      4 C          -4.7609    1.4431    2.0541 C.3     1  LIG1       -0.0360
      5 C          -3.6153    0.8914    1.1776 C.3     1  LIG1        0.0765
      6 C          -3.0631    2.0556    0.3278 C.3     1  LIG1       -0.0358
      7 C          -1.9722    1.5965   -0.6334 C.3     1  LIG1       -0.0424
      8 C          -0.8002    0.7766    0.0016 C.3     1  LIG1       -0.0050
      9 C          -0.1293   -0.1932   -1.1090 C.3     1  LIG1       -0.0194
     10 C           0.2324    0.5392   -2.4386 C.3     1  LIG1       -0.0463
     11 C           1.6821    0.9437   -2.6542 C.3     1  LIG1       -0.0485
     12 C           2.6212   -0.2404   -2.3901 C.3     1  LIG1       -0.0253
     13 H           2.1712   -1.1013   -2.9130 H       1  LIG1        0.0313
     14 C           4.0386   -0.1028   -3.0635 C.3     1  LIG1        0.0227
     15 C           4.7542    1.2213   -2.7018 C.3     1  LIG1        0.0523
     16 O           6.0220    1.3039   -3.3547 O.3     1  LIG1       -0.3944
     17 C           4.8789   -1.3656   -2.7098 C.3     1  LIG1        0.0888
     18 H           4.4452   -2.2375   -3.2184 H       1  LIG1        0.0625
     19 C           4.9164   -1.6772   -1.2104 C.3     1  LIG1        0.0822
     20 H           5.4811   -0.9093   -0.6742 H       1  LIG1        0.0619
     21 C           3.5086   -1.8551   -0.6413 C.3     1  LIG1       -0.0184
     22 C           2.5738   -0.6262   -0.8666 C.3     1  LIG1       -0.0225
     23 C           1.0700   -1.0614   -0.5413 C.3     1  LIG1       -0.0257
     24 H           1.0021   -1.9932   -1.1271 H       1  LIG1        0.0315
     25 C           0.8233   -1.5633    0.9046 C.3     1  LIG1       -0.0306
     26 C          -0.4315   -1.1061    1.5908 C.2     1  LIG1       -0.0836
     27 C          -1.2167   -0.0714    1.2245 C.2     1  LIG1       -0.0604
     28 C          -2.4398    0.3718    2.0578 C.3     1  LIG1        0.0229
     29 H          -2.0628    1.2613    2.5879 H       1  LIG1        0.0382
     30 C          -2.9024   -0.5775    3.2241 C.3     1  LIG1        0.0678
     31 H          -2.0629   -0.6776    3.9244 H       1  LIG1        0.0605
     32 O          -3.1650   -1.9099    2.7827 O.3     1  LIG1       -0.3906
     33 C           3.0827    0.4911    0.0717 C.3     1  LIG1       -0.0589
     34 O           5.6418   -2.8970   -1.0127 O.3     1  LIG1       -0.3892
     35 O           6.2355   -1.3101   -3.1757 O.3     1  LIG1       -0.3886
     36 C           3.8723   -0.1159   -4.6149 C.3     1  LIG1       -0.0547
     37 C          -1.2240   -1.2576   -1.5492 C.3     1  LIG1       -0.0585
     38 C           0.1696    1.8456    0.5551 C.3     1  LIG1       -0.0553
     39 C          -4.2214   -0.1944    0.2809 C.2     1  LIG1        0.3116
     40 O          -4.7394    0.2624   -0.8758 O.3     1  LIG1       -0.4802
     41 O          -4.3481   -1.3745    0.5570 O.2     1  LIG1       -0.2504
     42 C          -3.6538    1.1071    4.9688 C.3     1  LIG1       -0.0574
     43 H          -5.1299   -1.9690    4.3604 H       1  LIG1        0.0236
     44 H          -5.5008   -0.7578    5.5857 H       1  LIG1        0.0236
     45 H          -3.9296   -1.5741    5.6017 H       1  LIG1        0.0236
     46 H          -6.0318    0.9319    3.7053 H       1  LIG1        0.0272
     47 H          -5.7188   -0.4003    2.6176 H       1  LIG1        0.0272
     48 H          -4.4425    2.3705    2.5465 H       1  LIG1        0.0276
     49 H          -5.6179    1.7191    1.4254 H       1  LIG1        0.0276
     50 H          -2.6656    2.8438    0.9805 H       1  LIG1        0.0276
     51 H          -3.8639    2.5343   -0.2511 H       1  LIG1        0.0276
     52 H          -1.5738    2.4971   -1.1209 H       1  LIG1        0.0274
     53 H          -2.4525    1.0487   -1.4442 H       1  LIG1        0.0274
     54 H          -0.3944    1.4199   -2.6010 H       1  LIG1        0.0271
     55 H          -0.0155   -0.1196   -3.2840 H       1  LIG1        0.0271
     56 H           1.9321    1.8176   -2.0501 H       1  LIG1        0.0268
     57 H           1.7639    1.2811   -3.6923 H       1  LIG1        0.0268
     58 H           4.1632    2.0868   -3.0191 H       1  LIG1        0.0563
     59 H           4.9511    1.3167   -1.6371 H       1  LIG1        0.0563
     60 H           6.3588    2.2071   -3.2050 H       1  LIG1        0.2094
     61 H           3.5871   -2.0942    0.4271 H       1  LIG1        0.0296
     62 H           3.0680   -2.7523   -1.0981 H       1  LIG1        0.0296
     63 H           1.6611   -1.3362    1.5691 H       1  LIG1        0.0310
     64 H           0.7830   -2.6612    0.8706 H       1  LIG1        0.0310
     65 H          -0.6691   -1.6924    2.4761 H       1  LIG1        0.0572
     66 H          -3.6959   -1.8847    1.9611 H       1  LIG1        0.2098
     67 H           2.8309    0.2992    1.1171 H       1  LIG1        0.0235
     68 H           2.7047    1.4785   -0.1851 H       1  LIG1        0.0235
     69 H           4.1699    0.5784    0.0740 H       1  LIG1        0.0235
     70 H           6.3931   -2.8435   -1.6394 H       1  LIG1        0.2099
     71 H           6.4351   -0.3715   -3.3870 H       1  LIG1        0.2099
     72 H           3.2647   -0.9682   -4.9404 H       1  LIG1        0.0237
     73 H           4.8369   -0.1944   -5.1284 H       1  LIG1        0.0237
     74 H           3.3922    0.7954   -4.9847 H       1  LIG1        0.0237
     75 H          -2.0731   -0.8042   -2.0660 H       1  LIG1        0.0235
     76 H          -1.6179   -1.8408   -0.7124 H       1  LIG1        0.0235
     77 H          -0.8011   -1.9815   -2.2579 H       1  LIG1        0.0235
     78 H           0.6459    2.4135   -0.2482 H       1  LIG1        0.0238
     79 H           0.9394    1.4183    1.1986 H       1  LIG1        0.0238
     80 H          -0.3549    2.5760    1.1835 H       1  LIG1        0.0238
     81 H          -5.0835   -0.5418   -1.3192 H       1  LIG1        0.2951
     82 H          -3.2053    1.9379    4.4177 H       1  LIG1        0.0236
     83 H          -2.9071    0.7512    5.6882 H       1  LIG1        0.0236
     84 H          -4.4951    1.5107    5.5440 H       1  LIG1        0.0236
@<TRIPOS>BOND
     1     2     3    1
     2     3     4    1
     3     4     5    1
     4     5     6    1
     5     6     7    1
     6     7     8    1
     7     8     9    1
     8     9    10    1
     9    10    11    1
    10    11    12    1
    11    12    14    1
    12    15    16    1
    13    14    17    1
    14    17    19    1
    15    19    21    1
    16    21    22    1
    17    22    23    1
    18    23    25    1
    19    25    26    1
    20    26    27    2
    21    27    28    1
    22    28    30    1
    23    12    22    1
    24    23     9    1
    25    27     8    1
    26    28     5    1
    27    39    40    1
    28    39    41    2
    29    30     2    1
    30     1     2    1
    31     2    42    1
    32     5    39    1
    33     8    38    1
    34     9    37    1
    35    12    13    1
    36    17    18    1
    37    17    35    1
    38    22    33    1
    39    23    24    1
    40    28    29    1
    41    14    36    1
    42    14    15    1
    43    19    34    1
    44    19    20    1
    45    30    32    1
    46    30    31    1
    47     1    43    1
    48     1    44    1
    49     1    45    1
    50     3    46    1
    51     3    47    1
    52     4    48    1
    53     4    49    1
    54     6    50    1
    55     6    51    1
    56     7    52    1
    57     7    53    1
    58    10    54    1
    59    10    55    1
    60    11    56    1
    61    11    57    1
    62    15    58    1
    63    15    59    1
    64    16    60    1
    65    21    61    1
    66    21    62    1
    67    25    63    1
    68    25    64    1
    69    26    65    1
    70    32    66    1
    71    33    67    1
    72    33    68    1
    73    33    69    1
    74    34    70    1
    75    35    71    1
    76    36    72    1
    77    36    73    1
    78    36    74    1
    79    37    75    1
    80    37    76    1
    81    37    77    1
    82    38    78    1
    83    38    79    1
    84    38    80    1
    85    40    81    1
    86    42    82    1
    87    42    83    1
    88    42    84    1
