REMARK  Name = NuBBE_1989
REMARK  12 active torsions:
REMARK  status: ('A' for Active; 'I' for Inactive)
REMARK    1  A    between atoms: C_1  and  C_2
REMARK    2  A    between atoms: C_9  and  C_12
REMARK    3  A    between atoms: C_13  and  C_17
REMARK    4  A    between atoms: C_17  and  C_19
REMARK    5  A    between atoms: C_17  and  C_26
REMARK    6  A    between atoms: C_19  and  C_20
REMARK    7  A    between atoms: C_20  and  C_21
REMARK    8  A    between atoms: C_21  and  C_23
REMARK    9  A    between atoms: C_23  and  C_24
REMARK   10  A    between atoms: C_23  and  C_25
REMARK   11  A    between atoms: C_31  and  C_33
REMARK   12  A    between atoms: C_34  and  O_38
REMARK                            x       y       z     vdW  Elec       q    Type
REMARK                         _______ _______ _______ _____ _____    ______ ____
ROOT
ATOM      1  C   LIG A   1      -3.781  -2.348  -1.661  0.00  0.00    +0.012 C 
ATOM      2  C   LIG A   1      -2.237  -2.123  -1.807  0.00  0.00    -0.026 C 
ATOM      3  C   LIG A   1      -1.996  -0.564  -1.915  0.00  0.00    -0.001 C 
ATOM      4  C   LIG A   1      -2.456   0.185  -0.637  0.00  0.00    -0.004 C 
ATOM      5  C   LIG A   1      -2.231   1.732  -0.718  0.00  0.00    -0.001 C 
ATOM      6  C   LIG A   1      -0.882   2.238  -1.308  0.00  0.00    -0.026 C 
ATOM      7  C   LIG A   1      -0.457   1.366  -2.502  0.00  0.00    +0.007 C 
ATOM      8  C   LIG A   1      -0.564  -0.139  -2.288  0.00  0.00    +0.005 C 
ATOM      9  C   LIG A   1      -1.060   3.686  -1.839  0.00  0.00    +0.012 C 
ATOM     10  C   LIG A   1       0.052   2.212  -0.055  0.00  0.00    -0.002 C 
ATOM     11  C   LIG A   1      -0.885   2.681   1.091  0.00  0.00    +0.004 C 
ATOM     12  C   LIG A   1      -2.327   2.449   0.632  0.00  0.00    +0.004 C 
ATOM     13  C   LIG A   1      -2.050  -0.540   0.668  0.00  0.00    +0.004 C 
ATOM     14  C   LIG A   1      -1.105  -1.724   0.504  0.00  0.00    +0.005 C 
ATOM     15  C   LIG A   1      -1.550  -2.753  -0.549  0.00  0.00    +0.001 C 
ATOM     16  C   LIG A   1      -0.438  -3.803  -0.846  0.00  0.00    +0.018 C 
ATOM     17  C   LIG A   1       0.906  -3.238  -1.322  0.00  0.00    +0.010 C 
ATOM     18  C   LIG A   1      -0.945  -4.890  -1.815  0.00  0.00    +0.118 C 
ATOM     19  C   LIG A   1      -1.801  -4.382  -2.978  0.00  0.00    +0.032 C 
ATOM     20  C   LIG A   1      -1.831  -2.860  -3.115  0.00  0.00    +0.009 C 
ENDROOT
BRANCH  10  21
ATOM     21  C   LIG A   1       1.371   3.049  -0.050  0.00  0.00    -0.010 C 
ATOM     22  C   LIG A   1       2.297   2.774  -1.236  0.00  0.00    +0.008 C 
BRANCH  21  23
ATOM     23  C   LIG A   1       2.167   2.905   1.282  0.00  0.00    +0.008 C 
BRANCH  23  24
ATOM     24  C   LIG A   1       2.784   1.517   1.527  0.00  0.00    +0.030 C 
BRANCH  24  25
ATOM     25  C   LIG A   1       3.550   1.446   2.837  0.00  0.00    -0.074 C 
ATOM     26  C   LIG A   1       4.872   1.719   2.858  0.00  0.00    +0.008 C 
BRANCH  25  27
ATOM     27  C   LIG A   1       2.752   1.046   4.073  0.00  0.00    +0.008 C 
ATOM     28  C   LIG A   1       2.728  -0.476   4.254  0.00  0.00    +0.012 C 
ATOM     29  C   LIG A   1       3.233   1.707   5.370  0.00  0.00    +0.012 C 
ENDBRANCH  25  27
ENDBRANCH  24  25
ENDBRANCH  23  24
ENDBRANCH  21  23
ENDBRANCH  10  21
BRANCH  18  30
ATOM     30  O   LIG A   1      -1.737  -5.833  -1.084  0.00  0.00    -0.392 OA
ATOM     31  H   LIG A   1      -1.160  -6.243  -0.417  0.00  0.00    +0.210 HD
ENDBRANCH  18  30
TORSDOF 6
