@<TRIPOS>MOLECULE
NuBBE_945
 49 50 0 0 0
SMALL
GASTEIGER

@<TRIPOS>ATOM
      1 O          -3.7257   -2.4130    0.0774 O.2     1  LIG1       -0.2876
      2 C          -2.5182   -2.4959    0.2448 C.2     1  LIG1        0.1815
      3 C          -1.9267   -2.6893    1.5937 C.2     1  LIG1       -0.0159
      4 C          -1.0170   -1.8810    2.1696 C.2     1  LIG1       -0.0494
      5 C          -0.4874   -0.5265    1.7078 C.3     1  LIG1        0.0851
      6 C          -0.1379    0.2836    2.9675 C.3     1  LIG1       -0.0323
      7 O          -1.5383    0.1763    1.0619 O.3     1  LIG1       -0.3847
      8 C           0.7550   -0.6866    0.7873 C.3     1  LIG1        0.0173
      9 C           1.0328    0.2969   -0.3888 C.3     1  LIG1        0.1166
     10 H           2.0855    0.5936   -0.2705 H       1  LIG1        0.0742
     11 O           0.2574    1.5101   -0.3864 O.3     1  LIG1       -0.4603
     12 C           0.7591    2.5336    0.3632 C.2     1  LIG1        0.3099
     13 C           0.0013    3.8203    0.0911 C.3     1  LIG1        0.0508
     14 C          -1.2305    3.9336    0.9779 C.3     1  LIG1       -0.0525
     15 C           0.9360    5.0127    0.2917 C.3     1  LIG1       -0.0525
     16 O           1.7209    2.4376    1.1140 O.2     1  LIG1       -0.2505
     17 C           0.9967   -0.2934   -1.8273 C.3     1  LIG1        0.0681
     18 H           1.2900    0.5346   -2.4945 H       1  LIG1        0.0427
     19 C           1.9444   -1.4077   -2.1364 C.2     1  LIG1        0.0400
     20 C           3.1620   -1.6603   -1.6512 C.2     1  LIG1       -0.0882
     21 C          -0.3176   -0.8327   -2.4232 C.3     1  LIG1        0.1325
     22 H          -0.7779   -0.0386   -3.0250 H       1  LIG1        0.0787
     23 O           0.0459   -1.8613   -3.3503 O.3     1  LIG1       -0.4531
     24 C           1.3285   -2.2741   -3.1658 C.2     1  LIG1        0.3357
     25 O           1.8632   -3.1974   -3.7368 O.2     1  LIG1       -0.2453
     26 C          -1.3684   -1.3079   -1.4697 C.2     1  LIG1       -0.0367
     27 C          -1.5306   -2.5015   -0.8713 C.2     1  LIG1       -0.0043
     28 C          -0.7741   -3.7753   -1.0707 C.3     1  LIG1       -0.0363
     29 H          -2.2859   -3.5757    2.1071 H       1  LIG1        0.0653
     30 H          -0.6360   -2.2165    3.1350 H       1  LIG1        0.0601
     31 H           0.6004   -0.2302    3.5936 H       1  LIG1        0.0260
     32 H          -1.0319    0.4656    3.5768 H       1  LIG1        0.0260
     33 H           0.2590    1.2692    2.7189 H       1  LIG1        0.0260
     34 H          -2.3365    0.1105    1.6170 H       1  LIG1        0.2106
     35 H           0.8038   -1.7090    0.3987 H       1  LIG1        0.0332
     36 H           1.6447   -0.6574    1.4357 H       1  LIG1        0.0332
     37 H          -0.3063    3.8179   -0.9618 H       1  LIG1        0.0408
     38 H          -0.9642    3.9261    2.0405 H       1  LIG1        0.0237
     39 H          -1.9198    3.1012    0.8033 H       1  LIG1        0.0237
     40 H          -1.7702    4.8647    0.7705 H       1  LIG1        0.0237
     41 H           1.2449    5.1058    1.3391 H       1  LIG1        0.0237
     42 H           0.4491    5.9475   -0.0031 H       1  LIG1        0.0237
     43 H           1.8449    4.8986   -0.3102 H       1  LIG1        0.0237
     44 H           3.6405   -1.0215   -0.9141 H       1  LIG1        0.0540
     45 H           3.7358   -2.5197   -1.9963 H       1  LIG1        0.0540
     46 H          -2.0453   -0.5024   -1.1754 H       1  LIG1        0.0612
     47 H          -0.5826   -3.9771   -2.1264 H       1  LIG1        0.0279
     48 H          -1.3491   -4.6312   -0.6989 H       1  LIG1        0.0279
     49 H           0.1768   -3.7568   -0.5298 H       1  LIG1        0.0279
@<TRIPOS>BOND
     1     2     3    1
     2     3     4    2
     3     4     5    1
     4     5     8    1
     5     8     9    1
     6    11    12    1
     7    12    13    1
     8    13    14    1
     9    13    15    1
    10    12    16    2
    11     9    17    1
    12    17    19    1
    13    17    21    1
    14    21    23    1
    15    23    24    1
    16    19    24    1
    17    21    26    1
    18    26    27    2
    19     2    27    1
    20     1     2    2
    21     9    10    1
    22     9    11    1
    23    17    18    1
    24    19    20    2
    25    21    22    1
    26    24    25    2
    27    27    28    1
    28     5     7    1
    29     5     6    1
    30     3    29    1
    31     4    30    1
    32     6    31    1
    33     6    32    1
    34     6    33    1
    35     7    34    1
    36     8    35    1
    37     8    36    1
    38    13    37    1
    39    14    38    1
    40    14    39    1
    41    14    40    1
    42    15    41    1
    43    15    42    1
    44    15    43    1
    45    20    44    1
    46    20    45    1
    47    26    46    1
    48    28    47    1
    49    28    48    1
    50    28    49    1
