REMARK  Name = NuBBE_2368
REMARK  5 active torsions:
REMARK  status: ('A' for Active; 'I' for Inactive)
REMARK    1  A    between atoms: C_16  and  C_26
REMARK    2  A    between atoms: C_21  and  C_22
REMARK    3  A    between atoms: N_24  and  C_25
REMARK    4  A    between atoms: C_26  and  O_28
REMARK    5  A    between atoms: O_28  and  C_29
REMARK                            x       y       z     vdW  Elec       q    Type
REMARK                         _______ _______ _______ _____ _____    ______ ____
ROOT
ATOM      1  O   LIG A   1      -0.627  -3.243   1.498  0.00  0.00    -0.290 OA
ATOM      2  C   LIG A   1      -0.319  -2.089   1.168  0.00  0.00    +0.180 C 
ATOM      3  C   LIG A   1       0.193  -1.870  -0.214  0.00  0.00    +0.086 A 
ATOM      4  C   LIG A   1       0.751  -0.856  -1.038  0.00  0.00    -0.010 A 
ATOM      5  C   LIG A   1       1.008  -1.472  -2.333  0.00  0.00    +0.004 A 
ATOM      6  C   LIG A   1       0.616  -2.800  -2.269  0.00  0.00    +0.047 A 
ATOM      7  N   LIG A   1       0.125  -3.002  -1.016  0.00  0.00    -0.352 N 
ATOM      8  H   LIG A   1      -0.233  -3.883  -0.669  0.00  0.00    +0.166 HD
ATOM      9  C   LIG A   1       0.750  -3.699  -3.334  0.00  0.00    +0.026 A 
ATOM     10  C   LIG A   1       1.313  -3.221  -4.518  0.00  0.00    +0.002 A 
ATOM     11  C   LIG A   1       1.715  -1.895  -4.628  0.00  0.00    +0.001 A 
ATOM     12  C   LIG A   1       1.567  -1.014  -3.548  0.00  0.00    +0.010 A 
ATOM     13  C   LIG A   1       1.183   0.604  -0.789  0.00  0.00    +0.057 C 
ATOM     14  C   LIG A   1       0.155   1.657  -0.235  0.00  0.00    +0.075 C 
ATOM     15  C   LIG A   1      -0.893   1.020   0.683  0.00  0.00    +0.123 C 
ATOM     16  C   LIG A   1      -0.040   0.333   1.773  0.00  0.00    +0.039 C 
ATOM     17  C   LIG A   1      -0.532  -1.008   2.231  0.00  0.00    +0.090 C 
ATOM     18  C   LIG A   1       0.482   1.452   2.653  0.00  0.00    -0.055 C 
ATOM     19  C   LIG A   1       0.290   1.644   3.971  0.00  0.00    -0.030 C 
ATOM     20  C   LIG A   1      -0.544   0.834   4.907  0.00  0.00    +0.035 C 
ATOM     21  C   LIG A   1       1.391   2.377   1.832  0.00  0.00    +0.115 C 
ATOM     22  N   LIG A   1       0.868   2.762   0.497  0.00  0.00    -0.297 NA
ATOM     23  C   LIG A   1       0.047   3.973   0.606  0.00  0.00    +0.105 C 
ENDROOT
BRANCH  15  24
ATOM     24  C   LIG A   1      -1.983   0.235  -0.056  0.00  0.00    +0.312 C 
ATOM     25  O   LIG A   1      -2.839  -0.422   0.517  0.00  0.00    -0.251 OA
BRANCH  24  26
ATOM     26  O   LIG A   1      -1.916   0.399  -1.403  0.00  0.00    -0.468 OA
ATOM     27  C   LIG A   1      -2.769  -0.424  -2.206  0.00  0.00    +0.280 C 
ENDBRANCH  24  26
ENDBRANCH  15  24
TORSDOF 2
