@<TRIPOS>MOLECULE
NuBBE_1272
 22 23 0 0 0
SMALL
GASTEIGER

@<TRIPOS>ATOM
      1 O          -4.3423    1.1749   -0.2282 O.2     1  LIG1       -0.2452
      2 C          -3.1221    1.2082   -0.1208 C.ar    1  LIG1        0.3372
      3 C          -2.4199    2.4870    0.0866 C.ar    1  LIG1        0.0236
      4 C          -1.0913    2.5656    0.2089 C.ar    1  LIG1       -0.0442
      5 O          -2.3377    0.0650   -0.1865 O.2     1  LIG1       -0.4220
      6 C          -0.9346    0.1319   -0.0596 C.ar    1  LIG1        0.1428
      7 C          -0.2926    1.3528    0.1367 C.ar    1  LIG1        0.0213
      8 C           1.0966    1.3713    0.2576 C.ar    1  LIG1       -0.0059
      9 C           1.8096    0.1705    0.1788 C.ar    1  LIG1        0.1592
     10 O           3.1750    0.1853    0.2970 O.3     1  LIG1       -0.5033
     11 C           1.1581   -1.0593   -0.0205 C.ar    1  LIG1        0.1648
     12 O           1.9619   -2.1668   -0.0810 O.3     1  LIG1       -0.4913
     13 C           1.3328   -3.4215   -0.3007 C.3     1  LIG1        0.0790
     14 C          -0.2318   -1.0714   -0.1397 C.ar    1  LIG1        0.0267
     15 H          -3.0510    3.3662    0.1344 H       1  LIG1        0.0689
     16 H          -0.5981    3.5193    0.3609 H       1  LIG1        0.0627
     17 H           1.6176    2.3110    0.4112 H       1  LIG1        0.0662
     18 H           3.4810    1.0952    0.4312 H       1  LIG1        0.2923
     19 H           2.1141   -4.1871   -0.3300 H       1  LIG1        0.0660
     20 H           0.8131   -3.4397   -1.2643 H       1  LIG1        0.0660
     21 H           0.6530   -3.6714    0.5206 H       1  LIG1        0.0660
     22 H          -0.7914   -1.9869   -0.2928 H       1  LIG1        0.0692
@<TRIPOS>BOND
     1     1     2    2
     2     2     3   ar
     3     3     4   ar
     4     2     5   ar
     5     5     6   ar
     6     6     7   ar
     7     4     7   ar
     8     7     8   ar
     9     8     9   ar
    10     9    10    1
    11     9    11   ar
    12    11    12    1
    13    12    13    1
    14    11    14   ar
    15     6    14   ar
    16     3    15    1
    17     4    16    1
    18     8    17    1
    19    10    18    1
    20    13    19    1
    21    13    20    1
    22    13    21    1
    23    14    22    1
