@<TRIPOS>MOLECULE
NuBBE_2334
 42 43 0 0 0
SMALL
GASTEIGER

@<TRIPOS>ATOM
      1 C           0.5232   -1.0617   -1.9127 C.3     1  LIG1       -0.0592
      2 C           0.9738   -0.9494   -0.4375 C.3     1  LIG1       -0.0266
      3 C           1.5161   -2.3246    0.0237 C.3     1  LIG1       -0.0472
      4 C           0.4165   -3.3679    0.2305 C.3     1  LIG1       -0.0500
      5 C          -0.6492   -2.8805    1.2052 C.3     1  LIG1       -0.0240
      6 C          -1.2652   -1.5197    0.8280 C.3     1  LIG1        0.0666
      7 C          -2.3182   -1.6626   -0.2747 C.3     1  LIG1       -0.0358
      8 O          -1.9776   -1.0542    1.9910 O.3     1  LIG1       -0.3886
      9 C          -0.1393   -0.4851    0.5511 C.3     1  LIG1       -0.0065
     10 H           0.3606   -0.3692    1.5287 H       1  LIG1        0.0334
     11 C          -0.6524    0.9349    0.2246 C.3     1  LIG1       -0.0406
     12 C           0.4975    1.9654    0.2328 C.3     1  LIG1       -0.0200
     13 H           0.9195    1.9823    1.2488 H       1  LIG1        0.0346
     14 C          -0.0327    3.3729   -0.0382 C.2     1  LIG1       -0.0766
     15 C          -0.6899    4.0517    1.1387 C.3     1  LIG1       -0.0438
     16 C           0.0703    4.0198   -1.2121 C.2     1  LIG1       -0.0994
     17 C           1.6499    1.5165   -0.6885 C.3     1  LIG1       -0.0460
     18 C           2.1228    0.0944   -0.3684 C.3     1  LIG1       -0.0467
     19 H          -0.0983   -1.9365   -2.1046 H       1  LIG1        0.0235
     20 H           1.3938   -1.1665   -2.5719 H       1  LIG1        0.0235
     21 H          -0.0335   -0.1857   -2.2546 H       1  LIG1        0.0235
     22 H           2.0579   -2.2066    0.9718 H       1  LIG1        0.0271
     23 H           2.2466   -2.7075   -0.7000 H       1  LIG1        0.0271
     24 H           0.8671   -4.2873    0.6231 H       1  LIG1        0.0266
     25 H          -0.0442   -3.6400   -0.7246 H       1  LIG1        0.0266
     26 H          -0.2020   -2.8056    2.2063 H       1  LIG1        0.0293
     27 H          -1.4361   -3.6393    1.3029 H       1  LIG1        0.0293
     28 H          -3.1393   -2.3071    0.0635 H       1  LIG1        0.0257
     29 H          -1.9304   -2.0991   -1.1937 H       1  LIG1        0.0257
     30 H          -2.7815   -0.6994   -0.5120 H       1  LIG1        0.0257
     31 H          -2.6431   -1.7239    2.2250 H       1  LIG1        0.2102
     32 H          -1.4033    1.2254    0.9689 H       1  LIG1        0.0275
     33 H          -1.1616    0.9526   -0.7455 H       1  LIG1        0.0275
     34 H          -1.0106    5.0717    0.9007 H       1  LIG1        0.0274
     35 H           0.0096    4.1155    1.9787 H       1  LIG1        0.0274
     36 H          -1.5752    3.4968    1.4628 H       1  LIG1        0.0274
     37 H          -0.3207    5.0256   -1.3384 H       1  LIG1        0.0534
     38 H           0.5322    3.5775   -2.0872 H       1  LIG1        0.0534
     39 H           2.4980    2.2039   -0.5775 H       1  LIG1        0.0271
     40 H           1.3511    1.5604   -1.7413 H       1  LIG1        0.0271
     41 H           2.5677    0.0925    0.6357 H       1  LIG1        0.0271
     42 H           2.9301   -0.1804   -1.0590 H       1  LIG1        0.0271
@<TRIPOS>BOND
     1     1     2    1
     2     2     3    1
     3     3     4    1
     4     4     5    1
     5     5     6    1
     6     6     7    1
     7     6     8    1
     8     6     9    1
     9     2     9    1
    10     9    10    1
    11     9    11    1
    12    11    12    1
    13    14    15    1
    14    14    16    2
    15    12    17    1
    16    17    18    1
    17     2    18    1
    18    12    14    1
    19    12    13    1
    20     1    19    1
    21     1    20    1
    22     1    21    1
    23     3    22    1
    24     3    23    1
    25     4    24    1
    26     4    25    1
    27     5    26    1
    28     5    27    1
    29     7    28    1
    30     7    29    1
    31     7    30    1
    32     8    31    1
    33    11    32    1
    34    11    33    1
    35    15    34    1
    36    15    35    1
    37    15    36    1
    38    16    37    1
    39    16    38    1
    40    17    39    1
    41    17    40    1
    42    18    41    1
    43    18    42    1
