@<TRIPOS>MOLECULE
NuBBE_334
 53 55 0 0 0
SMALL
GASTEIGER

@<TRIPOS>ATOM
      1 O           0.7803    0.9180   -4.8731 O.2     1  LIG1       -0.2452
      2 C           0.2253    0.1089   -4.1614 C.2     1  LIG1        0.3381
      3 C           0.5809   -0.1610   -2.7392 C.2     1  LIG1        0.0744
      4 C           1.2889    0.7770   -2.0926 C.2     1  LIG1        0.0981
      5 O           1.6190    0.7506   -0.7565 O.2     1  LIG1       -0.4702
      6 C           0.8844   -0.1991    0.0305 C.3     1  LIG1        0.2071
      7 H           1.4201   -0.3334    0.9767 H       1  LIG1        0.1059
      8 C           0.7896   -1.5640   -0.6684 C.3     1  LIG1        0.0338
      9 C           0.1211   -1.4205   -2.0487 C.3     1  LIG1        0.0050
     10 C           0.5014   -2.7381   -2.7540 C.3     1  LIG1       -0.0190
     11 C           1.7719   -3.2637   -2.0746 C.3     1  LIG1        0.0588
     12 H           2.5849   -3.3758   -2.8003 H       1  LIG1        0.0596
     13 C           2.1424   -2.2307   -1.0005 C.3     1  LIG1       -0.0087
     14 H           2.8171   -1.5002   -1.4658 H       1  LIG1        0.0328
     15 C           2.8523   -2.8041    0.2178 C.3     1  LIG1       -0.0596
     16 O           1.5239   -4.5519   -1.5250 O.3     1  LIG1       -0.3915
     17 H          -0.9689   -1.3610   -1.9354 H       1  LIG1        0.0358
     18 H           0.1803   -2.2458   -0.0582 H       1  LIG1        0.0370
     19 O          -0.4499    0.2457    0.3103 O.3     1  LIG1       -0.3096
     20 C          -0.5069    1.3984    1.1661 C.3     1  LIG1        0.1918
     21 H           0.0822    2.2090    0.7184 H       1  LIG1        0.0939
     22 O           0.0391    1.0439    2.4437 O.3     1  LIG1       -0.3404
     23 C          -0.1113    2.0805    3.4266 C.3     1  LIG1        0.1130
     24 H           0.3190    3.0155    3.0434 H       1  LIG1        0.0647
     25 C          -1.6043    2.2407    3.7289 C.3     1  LIG1        0.1119
     26 H          -2.0567    1.2832    4.0184 H       1  LIG1        0.0647
     27 C          -2.2839    2.7431    2.4579 C.3     1  LIG1        0.1141
     28 H          -1.9722    3.7722    2.2379 H       1  LIG1        0.0648
     29 C          -2.0008    1.8219    1.2670 C.3     1  LIG1        0.1342
     30 H          -2.6269    0.9250    1.3434 H       1  LIG1        0.0671
     31 O          -2.4307    2.4942    0.0683 O.3     1  LIG1       -0.3841
     32 O          -3.7062    2.8165    2.6744 O.3     1  LIG1       -0.3864
     33 O          -1.8639    3.1831    4.7722 O.3     1  LIG1       -0.3865
     34 C           0.6915    1.6774    4.6669 C.3     1  LIG1        0.0730
     35 O           0.2002    0.4523    5.2081 O.3     1  LIG1       -0.3924
     36 O          -0.8158   -0.6940   -4.5170 O.3     1  LIG1       -0.4646
     37 C          -1.2320   -0.5602   -5.8753 C.3     1  LIG1        0.0820
     38 H           1.6903    1.6746   -2.5505 H       1  LIG1        0.1029
     39 H           0.6691   -2.6195   -3.8289 H       1  LIG1        0.0296
     40 H          -0.3210   -3.4561   -2.6420 H       1  LIG1        0.0296
     41 H           2.2077   -3.4874    0.7793 H       1  LIG1        0.0233
     42 H           3.1617   -2.0035    0.8969 H       1  LIG1        0.0233
     43 H           3.7525   -3.3518   -0.0816 H       1  LIG1        0.0233
     44 H           0.7396   -4.5023   -0.9532 H       1  LIG1        0.2098
     45 H          -3.3837    2.6692    0.1978 H       1  LIG1        0.2101
     46 H          -3.8139    3.3209    3.5060 H       1  LIG1        0.2100
     47 H          -2.0453    2.6620    5.5789 H       1  LIG1        0.2100
     48 H           0.6335    2.4450    5.4443 H       1  LIG1        0.0584
     49 H           1.7458    1.5262    4.4106 H       1  LIG1        0.0584
     50 H           0.2461   -0.1964    4.4796 H       1  LIG1        0.2095
     51 H          -1.6675    0.4275   -6.0448 H       1  LIG1        0.0661
     52 H          -2.0020   -1.3166   -6.0636 H       1  LIG1        0.0661
     53 H          -0.3985   -0.7454   -6.5597 H       1  LIG1        0.0661
@<TRIPOS>BOND
     1     1     2    2
     2     3     4    2
     3     4     5    1
     4     5     6    1
     5     6     8    1
     6     8     9    1
     7     9    10    1
     8    10    11    1
     9    11    13    1
    10     3     9    1
    11    13     8    1
    12    20    22    1
    13    22    23    1
    14    23    24    1
    15    23    25    1
    16    25    27    1
    17    27    28    1
    18    27    29    1
    19    20    29    1
    20    27    32    1
    21    23    34    1
    22    34    35    1
    23     2    36    1
    24    36    37    1
    25     2     3    1
    26     6     7    1
    27     6    19    1
    28     8    18    1
    29     9    17    1
    30    11    16    1
    31    11    12    1
    32    13    15    1
    33    13    14    1
    34    20    21    1
    35    20    19    1
    36    25    33    1
    37    25    26    1
    38    29    31    1
    39    29    30    1
    40     4    38    1
    41    10    39    1
    42    10    40    1
    43    15    41    1
    44    15    42    1
    45    15    43    1
    46    16    44    1
    47    31    45    1
    48    32    46    1
    49    33    47    1
    50    34    48    1
    51    34    49    1
    52    35    50    1
    53    37    51    1
    54    37    52    1
    55    37    53    1
