REMARK  Name = NuBBE_1778
REMARK  11 active torsions:
REMARK  status: ('A' for Active; 'I' for Inactive)
REMARK    1  A    between atoms: O_1  and  C_2
REMARK    2  A    between atoms: C_4  and  C_10
REMARK    3  A    between atoms: C_6  and  C_7
REMARK    4  A    between atoms: C_15  and  O_16
REMARK    5  A    between atoms: C_18  and  O_19
REMARK    6  A    between atoms: O_19  and  C_20
REMARK    7  A    between atoms: C_22  and  O_24
REMARK    8  A    between atoms: C_25  and  O_27
REMARK    9  A    between atoms: C_28  and  O_30
REMARK   10  A    between atoms: C_31  and  C_33
REMARK   11  A    between atoms: C_33  and  O_34
REMARK                            x       y       z     vdW  Elec       q    Type
REMARK                         _______ _______ _______ _____ _____    ______ ____
ROOT
ATOM      1  C   LIG A   1       0.109   1.135   0.870  0.00  0.00    +0.134 A 
ATOM      2  C   LIG A   1       0.843   2.334   0.908  0.00  0.00    +0.034 A 
ATOM      3  C   LIG A   1       0.188   3.672   0.654  0.00  0.00    +0.150 C 
ATOM      4  O   LIG A   1       0.970   4.753   1.186  0.00  0.00    -0.361 OA
ATOM      5  C   LIG A   1       2.324   4.760   0.753  0.00  0.00    +0.187 C 
ATOM      6  C   LIG A   1       3.003   5.961   1.395  0.00  0.00    +0.046 C 
ATOM      7  C   LIG A   1       3.047   3.471   1.131  0.00  0.00    +0.192 C 
ATOM      8  O   LIG A   1       4.258   3.394   1.301  0.00  0.00    -0.289 OA
ATOM      9  C   LIG A   1      -0.146   3.922  -0.816  0.00  0.00    +0.043 C 
ATOM     10  C   LIG A   1       2.206   2.252   1.191  0.00  0.00    +0.030 A 
ATOM     11  C   LIG A   1       2.801   1.025   1.506  0.00  0.00    +0.021 A 
ATOM     12  C   LIG A   1       2.053  -0.161   1.519  0.00  0.00    -0.007 A 
ATOM     13  C   LIG A   1       2.681  -1.364   1.875  0.00  0.00    +0.054 A 
ATOM     14  C   LIG A   1       1.963  -2.550   1.889  0.00  0.00    +0.121 A 
ATOM     15  C   LIG A   1       0.629  -2.576   1.520  0.00  0.00    +0.091 A 
ATOM     16  C   LIG A   1      -0.010  -1.398   1.127  0.00  0.00    +0.139 A 
ATOM     17  C   LIG A   1       0.681  -0.143   1.163  0.00  0.00    +0.066 A 
ENDROOT
BRANCH   1  18
ATOM     18  O   LIG A   1      -1.222   1.254   0.540  0.00  0.00    -0.506 OA
ATOM     19  H   LIG A   1      -1.554   0.353   0.358  0.00  0.00    +0.292 HD
ENDBRANCH   1  18
BRANCH  14  20
ATOM     20  O   LIG A   1       2.542  -3.733   2.240  0.00  0.00    -0.507 OA
ATOM     21  H   LIG A   1       3.463  -3.572   2.503  0.00  0.00    +0.292 HD
ENDBRANCH  14  20
BRANCH  16  22
ATOM     22  O   LIG A   1      -1.290  -1.367   0.623  0.00  0.00    -0.460 OA
BRANCH  22  23
ATOM     23  C   LIG A   1      -2.030  -2.591   0.477  0.00  0.00    +0.339 C 
ATOM     24  C   LIG A   1      -3.437  -2.255  -0.066  0.00  0.00    +0.214 C 
ATOM     25  C   LIG A   1      -3.360  -1.840  -1.545  0.00  0.00    +0.180 C 
ATOM     26  C   LIG A   1      -2.616  -2.903  -2.369  0.00  0.00    +0.177 C 
ATOM     27  C   LIG A   1      -1.281  -3.328  -1.730  0.00  0.00    +0.179 C 
ATOM     28  O   LIG A   1      -1.399  -3.595  -0.328  0.00  0.00    -0.331 OA
BRANCH  24  29
ATOM     29  O   LIG A   1      -4.325  -3.371   0.093  0.00  0.00    -0.383 OA
ATOM     30  H   LIG A   1      -4.103  -4.013  -0.618  0.00  0.00    +0.210 HD
ENDBRANCH  24  29
BRANCH  25  31
ATOM     31  O   LIG A   1      -2.740  -0.560  -1.686  0.00  0.00    -0.386 OA
ATOM     32  H   LIG A   1      -3.430   0.111  -1.528  0.00  0.00    +0.210 HD
ENDBRANCH  25  31
BRANCH  26  33
ATOM     33  O   LIG A   1      -3.473  -4.064  -2.440  0.00  0.00    -0.387 OA
ATOM     34  H   LIG A   1      -3.085  -4.652  -3.116  0.00  0.00    +0.210 HD
ENDBRANCH  26  33
BRANCH  27  35
ATOM     35  C   LIG A   1      -0.107  -2.402  -2.067  0.00  0.00    +0.190 C 
BRANCH  35  36
ATOM     36  O   LIG A   1       0.138  -2.414  -3.472  0.00  0.00    -0.392 OA
ATOM     37  H   LIG A   1       0.910  -1.841  -3.625  0.00  0.00    +0.209 HD
ENDBRANCH  35  36
ENDBRANCH  27  35
ENDBRANCH  22  23
ENDBRANCH  16  22
TORSDOF 9
