REMARK  Name = NuBBE_1336
REMARK  1 active torsions:
REMARK  status: ('A' for Active; 'I' for Inactive)
REMARK    1  A    between atoms: N_5  and  C_20
REMARK                            x       y       z     vdW  Elec       q    Type
REMARK                         _______ _______ _______ _____ _____    ______ ____
ROOT
ATOM      1  O   LIG A   1      -0.531   0.382   1.978  0.00  0.00    -0.270 OA
ATOM      2  C   LIG A   1       0.033   0.735   0.968  0.00  0.00    +0.250 C 
ATOM      3  C   LIG A   1       1.508   0.530   0.773  0.00  0.00    +0.058 A 
ATOM      4  C   LIG A   1       2.039   1.448  -0.129  0.00  0.00    +0.043 A 
ATOM      5  N   LIG A   1       1.343   1.685  -1.344  0.00  0.00    -0.309 N 
ATOM      6  C   LIG A   1      -0.007   1.070  -1.383  0.00  0.00    +0.212 C 
ATOM      7  N   LIG A   1      -0.562   1.456  -0.100  0.00  0.00    -0.273 N 
ATOM      8  C   LIG A   1      -1.987   1.728  -0.125  0.00  0.00    +0.115 C 
ATOM      9  C   LIG A   1      -2.793   0.526  -0.647  0.00  0.00    +0.056 C 
ATOM     10  C   LIG A   1      -1.868  -0.601  -1.036  0.00  0.00    -0.014 A 
ATOM     11  C   LIG A   1      -0.540  -0.373  -1.445  0.00  0.00    +0.059 A 
ATOM     12  N   LIG A   1       0.100  -1.596  -1.382  0.00  0.00    -0.355 N 
ATOM     13  H   LIG A   1       1.085  -1.750  -1.546  0.00  0.00    +0.166 HD
ATOM     14  C   LIG A   1      -0.713  -2.507  -0.694  0.00  0.00    +0.047 A 
ATOM     15  C   LIG A   1      -1.963  -1.913  -0.524  0.00  0.00    +0.003 A 
ATOM     16  C   LIG A   1      -2.951  -2.539   0.266  0.00  0.00    +0.010 A 
ATOM     17  C   LIG A   1      -2.658  -3.734   0.913  0.00  0.00    +0.001 A 
ATOM     18  C   LIG A   1      -1.419  -4.335   0.721  0.00  0.00    +0.002 A 
ATOM     19  C   LIG A   1      -0.435  -3.755  -0.107  0.00  0.00    +0.026 A 
ATOM     20  C   LIG A   1       1.248   3.132  -1.672  0.00  0.00    +0.131 C 
ATOM     21  C   LIG A   1       3.201   2.097   0.298  0.00  0.00    +0.024 A 
ATOM     22  C   LIG A   1       3.905   1.631   1.419  0.00  0.00    +0.002 A 
ATOM     23  C   LIG A   1       3.526   0.440   2.037  0.00  0.00    +0.001 A 
ATOM     24  C   LIG A   1       2.291  -0.116   1.726  0.00  0.00    +0.015 A 
ENDROOT
TORSDOF 0
