REMARK  Name = NuBBE_1917
REMARK  5 active torsions:
REMARK  status: ('A' for Active; 'I' for Inactive)
REMARK    1  A    between atoms: C_1  and  C_2
REMARK    2  A    between atoms: C_7  and  C_10
REMARK    3  A    between atoms: C_7  and  C_12
REMARK    4  A    between atoms: C_17  and  C_18
REMARK    5  A    between atoms: C_17  and  C_19
REMARK                            x       y       z     vdW  Elec       q    Type
REMARK                         _______ _______ _______ _____ _____    ______ ____
ROOT
ATOM      1  C   LIG A   1      -1.619   0.858   1.331  0.00  0.00    +0.012 C 
ATOM      2  C   LIG A   1      -0.286   1.051   0.540  0.00  0.00    -0.022 C 
ATOM      3  C   LIG A   1      -0.168  -0.051  -0.582  0.00  0.00    +0.021 C 
ATOM      4  C   LIG A   1      -0.006  -1.438   0.019  0.00  0.00    -0.069 C 
ATOM      5  C   LIG A   1      -0.733  -2.503  -0.372  0.00  0.00    -0.017 C 
ATOM      6  C   LIG A   1      -1.745  -2.496  -1.504  0.00  0.00    +0.004 C 
ATOM      7  C   LIG A   1      -1.455  -1.283  -2.423  0.00  0.00    +0.015 C 
ATOM      8  C   LIG A   1      -1.302   0.018  -1.635  0.00  0.00    +0.009 C 
ATOM      9  C   LIG A   1      -1.553  -3.776  -2.345  0.00  0.00    +0.020 C 
ATOM     10  C   LIG A   1       1.072  -1.584   1.059  0.00  0.00    +0.031 C 
ATOM     11  C   LIG A   1       1.053  -0.484   2.118  0.00  0.00    +0.009 C 
ATOM     12  C   LIG A   1       0.909   0.957   1.572  0.00  0.00    +0.001 C 
ATOM     13  C   LIG A   1       2.271   1.652   1.165  0.00  0.00    -0.032 C 
ATOM     14  C   LIG A   1       3.104   1.933   2.446  0.00  0.00    +0.011 C 
ATOM     15  C   LIG A   1       3.183   0.823   0.241  0.00  0.00    +0.011 C 
ATOM     16  C   LIG A   1       2.004   3.027   0.506  0.00  0.00    +0.007 C 
ATOM     17  C   LIG A   1       0.974   2.971  -0.609  0.00  0.00    +0.001 C 
ATOM     18  C   LIG A   1      -0.354   2.479  -0.060  0.00  0.00    +0.007 C 
ENDROOT
BRANCH   6  19
ATOM     19  C   LIG A   1      -3.146  -2.558  -0.905  0.00  0.00    -0.024 C 
ATOM     20  C   LIG A   1      -4.215  -1.806  -1.207  0.00  0.00    +0.005 C 
ENDBRANCH   6  19
TORSDOF 1
