@<TRIPOS>MOLECULE
NuBBE_89
 74 77 0 0 0
SMALL
GASTEIGER

@<TRIPOS>ATOM
      1 O           2.4860   -3.1089    2.1405 O.2     1  LIG1       -0.2448
      2 C           2.4951   -2.0759    1.5455 C.2     1  LIG1        0.3443
      3 O           3.6256   -1.4693    1.1367 O.3     1  LIG1       -0.4418
      4 C           3.3291   -0.1159    0.8342 C.3     1  LIG1        0.2000
      5 C           1.8531   -0.0689    0.8005 C.2     1  LIG1        0.0312
      6 C           1.3433    1.2808    0.7197 C.2     1  LIG1        0.0269
      7 C           0.5624    1.8087   -0.2419 C.2     1  LIG1        0.1006
      8 O           0.0866    3.1231   -0.2059 O.2     1  LIG1       -0.4629
      9 C           0.2049    3.8282    1.0039 C.2     1  LIG1        0.1279
     10 C          -0.5918    5.0358    1.0897 C.2     1  LIG1       -0.0230
     11 C          -0.7135    5.8150    2.1816 C.2     1  LIG1       -0.0777
     12 C          -1.4736    7.1174    2.2033 C.3     1  LIG1       -0.0256
     13 H          -1.4679    7.5391    1.1905 H       1  LIG1        0.0340
     14 C          -2.9271    6.8659    2.6082 C.3     1  LIG1       -0.0590
     15 C          -0.8345    8.1533    3.1541 C.3     1  LIG1       -0.0499
     16 C           0.6031    8.5213    2.8054 C.3     1  LIG1       -0.0648
     17 C           1.0374    3.4116    1.9737 C.2     1  LIG1       -0.0100
     18 C           1.8366    2.2308    1.7303 C.2     1  LIG1        0.0108
     19 C           2.9923    1.9724    2.3785 C.2     1  LIG1        0.0956
     20 CL          3.6140    2.9581    3.6588 Cl      1  LIG1       -0.0791
     21 C           1.3244   -1.2349    1.1969 C.2     1  LIG1        0.1097
     22 C          -0.0893   -1.5756    1.5102 C.2     1  LIG1        0.1767
     23 C          -0.5470   -3.0437    1.5520 C.3     1  LIG1        0.0563
     24 H          -1.6274   -3.0068    1.3570 H       1  LIG1        0.0414
     25 C          -0.3520   -3.5821    2.9830 C.3     1  LIG1       -0.0519
     26 C           0.0957   -3.9780    0.4990 C.3     1  LIG1        0.1099
     27 H           1.1685   -4.0038    0.6539 H       1  LIG1        0.0738
     28 O           0.0195   -3.5487   -0.8828 O.3     1  LIG1       -0.4589
     29 C          -1.1786   -3.6440   -1.5354 C.2     1  LIG1        0.3411
     30 C          -1.0158   -4.5182   -2.7925 C.3     1  LIG1        0.1795
     31 O          -1.8411   -5.6804   -2.5667 O.3     1  LIG1       -0.3639
     32 C          -1.4752   -6.8189   -3.3345 C.3     1  LIG1        0.0380
     33 H           0.0291   -4.8550   -2.8355 H       1  LIG1        0.0764
     34 C          -1.3587   -3.8152   -4.0951 C.ar    1  LIG1       -0.0082
     35 C          -0.3787   -3.1113   -4.8169 C.ar    1  LIG1       -0.0556
     36 C          -0.6574   -2.6189   -6.0970 C.ar    1  LIG1       -0.0614
     37 C          -1.9066   -2.8383   -6.6749 C.ar    1  LIG1       -0.0617
     38 C          -2.9019   -3.4835   -5.9470 C.ar    1  LIG1       -0.0614
     39 C          -2.6403   -3.9332   -4.6532 C.ar    1  LIG1       -0.0556
     40 O          -2.2196   -3.1819   -1.0916 O.2     1  LIG1       -0.2475
     41 C          -0.3146   -5.4454    0.6527 C.3     1  LIG1       -0.0270
     42 O          -0.8691   -0.6715    1.8069 O.2     1  LIG1       -0.2914
     43 C           3.9422    0.1892   -0.5245 C.3     1  LIG1       -0.0130
     44 C           3.8361    0.7863    1.9851 C.2     1  LIG1        0.2224
     45 O           4.8871    0.5368    2.5794 O.2     1  LIG1       -0.2864
     46 H           0.2116    1.3107   -1.1362 H       1  LIG1        0.1036
     47 H          -1.1192    5.3125    0.1786 H       1  LIG1        0.0651
     48 H          -0.2296    5.5462    3.1175 H       1  LIG1        0.0576
     49 H          -3.3787    6.0720    2.0029 H       1  LIG1        0.0235
     50 H          -3.5224    7.7731    2.4603 H       1  LIG1        0.0235
     51 H          -3.0110    6.5749    3.6615 H       1  LIG1        0.0235
     52 H          -0.8596    7.7852    4.1883 H       1  LIG1        0.0268
     53 H          -1.4365    9.0704    3.1360 H       1  LIG1        0.0268
     54 H           1.2634    7.6490    2.8199 H       1  LIG1        0.0230
     55 H           0.9918    9.2387    3.5365 H       1  LIG1        0.0230
     56 H           0.6604    8.9844    1.8159 H       1  LIG1        0.0230
     57 H           1.1370    3.9298    2.9171 H       1  LIG1        0.0661
     58 H          -0.4041   -2.7976    3.7441 H       1  LIG1        0.0238
     59 H           0.6168   -4.0775    3.1019 H       1  LIG1        0.0238
     60 H          -1.1076   -4.3379    3.2218 H       1  LIG1        0.0238
     61 H          -0.3915   -6.9615   -3.3570 H       1  LIG1        0.0524
     62 H          -1.8686   -6.7475   -4.3530 H       1  LIG1        0.0524
     63 H          -1.9278   -7.6952   -2.8611 H       1  LIG1        0.0524
     64 H           0.6198   -2.9651   -4.4097 H       1  LIG1        0.0621
     65 H           0.1064   -2.0846   -6.6577 H       1  LIG1        0.0618
     66 H          -2.1082   -2.5048   -7.6898 H       1  LIG1        0.0618
     67 H          -3.8800   -3.6561   -6.3883 H       1  LIG1        0.0618
     68 H          -3.4336   -4.4258   -4.0934 H       1  LIG1        0.0621
     69 H           0.3038   -6.0731    0.0024 H       1  LIG1        0.0265
     70 H          -1.3587   -5.6027    0.3753 H       1  LIG1        0.0265
     71 H          -0.1700   -5.8081    1.6753 H       1  LIG1        0.0265
     72 H           3.4790   -0.4392   -1.2984 H       1  LIG1        0.0276
     73 H           5.0093   -0.0513   -0.5301 H       1  LIG1        0.0276
     74 H           3.8174    1.2358   -0.8163 H       1  LIG1        0.0276
@<TRIPOS>BOND
     1     1     2    2
     2     2     3    1
     3     3     4    1
     4     4     5    1
     5     5     6    1
     6     6     7    2
     7     7     8    1
     8     8     9    1
     9     9    10    1
    10    10    11    2
    11    11    12    1
    12    12    13    1
    13    12    14    1
    14    12    15    1
    15    15    16    1
    16     9    17    2
    17    17    18    1
    18     6    18    1
    19    18    19    2
    20    19    20    1
    21     5    21    2
    22     2    21    1
    23    21    22    1
    24    23    25    1
    25    26    28    1
    26    28    29    1
    27    31    32    1
    28    30    33    1
    29    30    34    1
    30    34    35   ar
    31    35    36   ar
    32    36    37   ar
    33    37    38   ar
    34    38    39   ar
    35    34    39   ar
    36    29    40    2
    37    26    41    1
    38    22    42    2
    39     4    43    1
    40     4    44    1
    41    19    44    1
    42    44    45    2
    43    23    24    1
    44    23    22    1
    45    26    27    1
    46    26    23    1
    47    30    31    1
    48    30    29    1
    49     7    46    1
    50    10    47    1
    51    11    48    1
    52    14    49    1
    53    14    50    1
    54    14    51    1
    55    15    52    1
    56    15    53    1
    57    16    54    1
    58    16    55    1
    59    16    56    1
    60    17    57    1
    61    25    58    1
    62    25    59    1
    63    25    60    1
    64    32    61    1
    65    32    62    1
    66    32    63    1
    67    35    64    1
    68    36    65    1
    69    37    66    1
    70    38    67    1
    71    39    68    1
    72    41    69    1
    73    41    70    1
    74    41    71    1
    75    43    72    1
    76    43    73    1
    77    43    74    1
