@<TRIPOS>MOLECULE
NuBBE_1036
 89 93 0 0 0
SMALL
GASTEIGER

@<TRIPOS>ATOM
      1 C          -0.3913   -1.8769   -0.8227 C.3     1  LIG1       -0.0590
      2 C          -0.1424   -1.0971   -2.1299 C.3     1  LIG1       -0.0249
      3 C           0.6821   -2.0301   -3.0733 C.3     1  LIG1       -0.0437
      4 C          -0.0646   -3.2089   -3.7042 C.3     1  LIG1       -0.0146
      5 C          -1.5613   -3.3370   -3.4078 C.3     1  LIG1        0.1084
      6 O          -1.7980   -4.0959   -2.1972 O.3     1  LIG1       -0.4610
      7 C          -1.7146   -5.4484   -2.3322 C.2     1  LIG1        0.3042
      8 C          -2.2869   -6.1666   -1.1517 C.3     1  LIG1        0.0332
      9 O          -1.2493   -6.0387   -3.3107 O.2     1  LIG1       -0.2512
     10 C          -2.3257   -1.9718   -3.3919 C.3     1  LIG1        0.0055
     11 C          -2.7385   -1.6851   -4.8657 C.3     1  LIG1       -0.0562
     12 C          -3.6465   -2.1066   -2.5956 C.3     1  LIG1       -0.0562
     13 C          -1.4346   -0.7461   -2.9317 C.3     1  LIG1       -0.0268
     14 H          -1.0456   -0.3134   -3.8685 H       1  LIG1        0.0312
     15 C          -2.2353    0.4113   -2.3137 C.3     1  LIG1       -0.0486
     16 C          -1.4028    1.6813   -2.1328 C.3     1  LIG1       -0.0463
     17 C          -0.0545    1.5289   -1.3741 C.3     1  LIG1       -0.0194
     18 C           0.6931    0.2442   -1.9120 C.3     1  LIG1       -0.0257
     19 C           2.0330    0.0599   -1.1829 C.3     1  LIG1       -0.0306
     20 C           1.9668    0.2486    0.2935 C.2     1  LIG1       -0.0836
     21 C           1.0082    0.9044    0.9745 C.2     1  LIG1       -0.0626
     22 C          -0.1931    1.5859    0.2534 C.3     1  LIG1       -0.0051
     23 C          -0.2654    3.0658    0.7694 C.3     1  LIG1       -0.0424
     24 C          -0.2476    3.2193    2.3008 C.3     1  LIG1       -0.0359
     25 C           0.9103    2.4529    3.0197 C.3     1  LIG1        0.0745
     26 C           1.0052    0.9980    2.5138 C.3     1  LIG1       -0.0008
     27 C           1.9651    0.0945    3.3644 C.3     1  LIG1       -0.0337
     28 H           1.8387   -0.9353    2.9978 H       1  LIG1        0.0307
     29 C           1.5508    0.1084    4.8674 C.3     1  LIG1       -0.0407
     30 C           0.2663   -0.6899    5.1339 C.3     1  LIG1       -0.0622
     31 C           1.4267    1.5435    5.4030 C.3     1  LIG1       -0.0492
     32 C           0.5300    2.4364    4.5427 C.3     1  LIG1       -0.0364
     33 H           2.3369   -0.3941    5.4479 H       1  LIG1        0.0301
     34 C           3.4704    0.3996    3.2777 C.3     1  LIG1       -0.0616
     35 H           0.0367    0.5436    2.7558 H       1  LIG1        0.0359
     36 C           2.1980    3.3257    2.8626 C.2     1  LIG1        0.3136
     37 O           2.5509    3.3672    1.5390 O.3     1  LIG1       -0.4675
     38 C           3.3564    4.4855    1.1669 C.3     1  LIG1        0.0817
     39 O           2.7195    3.9784    3.7471 O.2     1  LIG1       -0.2502
     40 C          -1.5310    0.9476    0.7256 C.3     1  LIG1       -0.0553
     41 H           0.9871    0.5086   -2.9414 H       1  LIG1        0.0315
     42 C           0.8058    2.7533   -1.8652 C.3     1  LIG1       -0.0585
     43 H          -1.4506   -2.0565   -0.6356 H       1  LIG1        0.0235
     44 H          -0.0029   -1.3780    0.0610 H       1  LIG1        0.0235
     45 H           0.1089   -2.8525   -0.8224 H       1  LIG1        0.0235
     46 H           1.5629   -2.4272   -2.5547 H       1  LIG1        0.0272
     47 H           1.0918   -1.4358   -3.9022 H       1  LIG1        0.0272
     48 H           0.4610   -4.1282   -3.4207 H       1  LIG1        0.0301
     49 H           0.0547   -3.1241   -4.7920 H       1  LIG1        0.0301
     50 H          -2.0017   -3.9361   -4.2174 H       1  LIG1        0.0739
     51 H          -2.9287   -5.5040   -0.5652 H       1  LIG1        0.0342
     52 H          -1.4857   -6.5599   -0.5225 H       1  LIG1        0.0342
     53 H          -2.9117   -6.9890   -1.5176 H       1  LIG1        0.0342
     54 H          -1.8630   -1.6734   -5.5253 H       1  LIG1        0.0236
     55 H          -3.2426   -0.7177   -4.9616 H       1  LIG1        0.0236
     56 H          -3.4239   -2.4531   -5.2422 H       1  LIG1        0.0236
     57 H          -3.4786   -2.1457   -1.5155 H       1  LIG1        0.0236
     58 H          -4.1839   -3.0196   -2.8786 H       1  LIG1        0.0236
     59 H          -4.3285   -1.2721   -2.7961 H       1  LIG1        0.0236
     60 H          -2.7019    0.1035   -1.3786 H       1  LIG1        0.0268
     61 H          -3.0659    0.6734   -2.9814 H       1  LIG1        0.0268
     62 H          -2.0161    2.4651   -1.6721 H       1  LIG1        0.0271
     63 H          -1.1947    2.0516   -3.1477 H       1  LIG1        0.0271
     64 H           2.7706    0.7715   -1.5779 H       1  LIG1        0.0310
     65 H           2.4595   -0.9259   -1.3857 H       1  LIG1        0.0310
     66 H           2.7843   -0.2403    0.8077 H       1  LIG1        0.0572
     67 H          -1.1740    3.5499    0.3827 H       1  LIG1        0.0274
     68 H           0.5560    3.6689    0.3804 H       1  LIG1        0.0274
     69 H          -1.2191    2.8864    2.6890 H       1  LIG1        0.0276
     70 H          -0.1918    4.2892    2.5412 H       1  LIG1        0.0276
     71 H          -0.6119   -0.2652    4.6404 H       1  LIG1        0.0233
     72 H           0.0526   -0.7189    6.2084 H       1  LIG1        0.0233
     73 H           0.3778   -1.7243    4.7927 H       1  LIG1        0.0233
     74 H           2.4220    1.9931    5.4840 H       1  LIG1        0.0268
     75 H           1.0331    1.5262    6.4273 H       1  LIG1        0.0268
     76 H           0.5531    3.4575    4.9490 H       1  LIG1        0.0276
     77 H          -0.4991    2.0925    4.6591 H       1  LIG1        0.0276
     78 H           3.7855    1.1908    3.9615 H       1  LIG1        0.0233
     79 H           3.8103    0.6862    2.2834 H       1  LIG1        0.0233
     80 H           4.0294   -0.5011    3.5644 H       1  LIG1        0.0233
     81 H           4.2573    4.5463    1.7913 H       1  LIG1        0.0661
     82 H           2.7698    5.4070    1.2451 H       1  LIG1        0.0661
     83 H           3.6565    4.3614    0.1270 H       1  LIG1        0.0661
     84 H          -1.6659    0.9474    1.8095 H       1  LIG1        0.0238
     85 H          -1.6355   -0.0892    0.4265 H       1  LIG1        0.0238
     86 H          -2.3925    1.5070    0.3453 H       1  LIG1        0.0238
     87 H           1.0483    2.6743   -2.9322 H       1  LIG1        0.0235
     88 H           1.7551    2.8392   -1.3275 H       1  LIG1        0.0235
     89 H           0.2607    3.6982   -1.7562 H       1  LIG1        0.0235
@<TRIPOS>BOND
     1     2     3    1
     2     3     4    1
     3     4     5    1
     4     6     7    1
     5     7     8    1
     6     7     9    2
     7     5    10    1
     8    10    13    1
     9     2    13    1
    10    13    15    1
    11    15    16    1
    12    16    17    1
    13    17    18    1
    14    18    19    1
    15    19    20    1
    16    20    21    2
    17    21    22    1
    18    22    23    1
    19    23    24    1
    20    24    25    1
    21    25    26    1
    22    26    27    1
    23    27    29    1
    24    29    31    1
    25    31    32    1
    26    21    26    1
    27    32    25    1
    28    36    37    1
    29    37    38    1
    30    36    39    2
    31     2    18    1
    32    22    17    1
    33     1     2    1
    34     5     6    1
    35    10    11    1
    36    10    12    1
    37    13    14    1
    38    17    42    1
    39    18    41    1
    40    22    40    1
    41    25    36    1
    42    26    35    1
    43    27    28    1
    44    27    34    1
    45    29    30    1
    46    29    33    1
    47     1    43    1
    48     1    44    1
    49     1    45    1
    50     3    46    1
    51     3    47    1
    52     4    48    1
    53     4    49    1
    54     5    50    1
    55     8    51    1
    56     8    52    1
    57     8    53    1
    58    11    54    1
    59    11    55    1
    60    11    56    1
    61    12    57    1
    62    12    58    1
    63    12    59    1
    64    15    60    1
    65    15    61    1
    66    16    62    1
    67    16    63    1
    68    19    64    1
    69    19    65    1
    70    20    66    1
    71    23    67    1
    72    23    68    1
    73    24    69    1
    74    24    70    1
    75    30    71    1
    76    30    72    1
    77    30    73    1
    78    31    74    1
    79    31    75    1
    80    32    76    1
    81    32    77    1
    82    34    78    1
    83    34    79    1
    84    34    80    1
    85    38    81    1
    86    38    82    1
    87    38    83    1
    88    40    84    1
    89    40    85    1
    90    40    86    1
    91    42    87    1
    92    42    88    1
    93    42    89    1
