REMARK  Name = NuBBE_997
REMARK  13 active torsions:
REMARK  status: ('A' for Active; 'I' for Inactive)
REMARK    1  A    between atoms: C_1  and  C_2
REMARK    2  A    between atoms: C_6  and  C_8
REMARK    3  A    between atoms: C_8  and  C_9
REMARK    4  A    between atoms: C_15  and  O_17
REMARK    5  A    between atoms: O_17  and  C_18
REMARK    6  A    between atoms: C_18  and  C_19
REMARK    7  A    between atoms: C_21  and  O_23
REMARK    8  A    between atoms: O_23  and  C_24
REMARK    9  A    between atoms: C_24  and  C_25
REMARK   10  A    between atoms: C_27  and  O_29
REMARK   11  A    between atoms: O_29  and  C_30
REMARK   12  A    between atoms: C_30  and  C_31
REMARK   13  A    between atoms: C_34  and  C_35
REMARK                            x       y       z     vdW  Elec       q    Type
REMARK                         _______ _______ _______ _____ _____    ______ ____
ROOT
ATOM      1  C   LIG A   1      -2.675   4.311   0.042  0.00  0.00    +0.012 C 
ATOM      2  C   LIG A   1      -1.456   3.641  -0.631  0.00  0.00    -0.019 C 
ATOM      3  C   LIG A   1      -0.464   3.209   0.495  0.00  0.00    +0.006 C 
ATOM      4  C   LIG A   1       0.346   4.476   0.802  0.00  0.00    +0.079 C 
ATOM      5  C   LIG A   1       0.370   5.194  -0.516  0.00  0.00    +0.137 C 
ATOM      6  C   LIG A   1      -0.615   4.614  -1.519  0.00  0.00    +0.061 C 
ATOM      7  O   LIG A   1       1.110   6.144  -0.743  0.00  0.00    -0.297 OA
ATOM      8  C   LIG A   1       0.395   1.967   0.127  0.00  0.00    -0.003 C 
ATOM      9  C   LIG A   1       1.435   1.683   1.256  0.00  0.00    +0.004 C 
ATOM     10  C   LIG A   1       1.934   0.249   1.444  0.00  0.00    +0.008 C 
ATOM     11  C   LIG A   1       1.236  -0.721   0.513  0.00  0.00    +0.040 C 
ATOM     12  C   LIG A   1       1.746  -2.166   0.636  0.00  0.00    +0.224 C 
ATOM     13  C   LIG A   1       0.798  -3.017   1.462  0.00  0.00    +0.257 C 
ATOM     14  C   LIG A   1      -0.622  -3.091   0.812  0.00  0.00    +0.221 C 
ATOM     15  C   LIG A   1      -0.982  -1.802   0.005  0.00  0.00    +0.055 C 
ATOM     16  C   LIG A   1      -0.316  -0.520   0.568  0.00  0.00    -0.019 C 
ATOM     17  C   LIG A   1      -0.941  -0.265   1.967  0.00  0.00    +0.012 C 
ATOM     18  C   LIG A   1      -0.509   0.750  -0.322  0.00  0.00    -0.001 C 
ATOM     19  C   LIG A   1      -1.959   1.151  -0.622  0.00  0.00    +0.005 C 
ATOM     20  C   LIG A   1      -1.956   2.432  -1.453  0.00  0.00    +0.008 C 
ENDROOT
BRANCH   6  21
ATOM     21  C   LIG A   1      -1.340   5.736  -2.271  0.00  0.00    +0.008 C 
ATOM     22  C   LIG A   1      -2.340   5.273  -3.318  0.00  0.00    +0.004 C 
ENDBRANCH   6  21
BRANCH  12  23
ATOM     23  O   LIG A   1       1.785  -2.750  -0.693  0.00  0.00    -0.457 OA
BRANCH  23  24
ATOM     24  C   LIG A   1       2.881  -2.489  -1.445  0.00  0.00    +0.304 C 
ATOM     25  C   LIG A   1       2.667  -2.971  -2.839  0.00  0.00    +0.136 C 
ATOM     26  O   LIG A   1       3.877  -1.863  -1.068  0.00  0.00    -0.251 OA
ENDBRANCH  23  24
ENDBRANCH  12  23
BRANCH  13  27
ATOM     27  O   LIG A   1       1.342  -4.341   1.643  0.00  0.00    -0.454 OA
BRANCH  27  28
ATOM     28  C   LIG A   1       2.228  -4.516   2.643  0.00  0.00    +0.304 C 
ATOM     29  C   LIG A   1       2.091  -5.887   3.226  0.00  0.00    +0.136 C 
ATOM     30  O   LIG A   1       2.982  -3.646   3.072  0.00  0.00    -0.251 OA
ENDBRANCH  27  28
ENDBRANCH  13  27
BRANCH  14  31
ATOM     31  O   LIG A   1      -0.755  -4.200  -0.116  0.00  0.00    -0.458 OA
BRANCH  31  32
ATOM     32  C   LIG A   1      -0.728  -5.463   0.396  0.00  0.00    +0.304 C 
ATOM     33  C   LIG A   1      -0.758  -6.465  -0.708  0.00  0.00    +0.136 C 
ATOM     34  O   LIG A   1      -0.697  -5.770   1.582  0.00  0.00    -0.251 OA
ENDBRANCH  31  32
ENDBRANCH  14  31
TORSDOF 7
