REMARK  Name = NuBBE_1146
REMARK  16 active torsions:
REMARK  status: ('A' for Active; 'I' for Inactive)
REMARK    1  A    between atoms: C_1  and  C_2
REMARK    2  A    between atoms: C_6  and  C_29
REMARK    3  A    between atoms: C_7  and  C_8
REMARK    4  A    between atoms: C_9  and  C_11
REMARK    5  A    between atoms: C_11  and  C_13
REMARK    6  A    between atoms: C_11  and  C_14
REMARK    7  A    between atoms: C_14  and  C_15
REMARK    8  A    between atoms: C_15  and  O_17
REMARK    9  A    between atoms: C_15  and  C_18
REMARK   10  A    between atoms: C_18  and  O_20
REMARK   11  A    between atoms: C_18  and  C_21
REMARK   12  A    between atoms: C_21  and  O_22
REMARK   13  A    between atoms: C_21  and  C_23
REMARK   14  A    between atoms: C_21  and  C_24
REMARK   15  A    between atoms: C_34  and  C_35
REMARK   16  A    between atoms: C_34  and  C_40
REMARK                            x       y       z     vdW  Elec       q    Type
REMARK                         _______ _______ _______ _____ _____    ______ ____
ROOT
ATOM      1  C   LIG A   1       2.187   2.248  -4.228  0.00  0.00    +0.012 C 
ATOM      2  C   LIG A   1       1.722   0.753  -4.108  0.00  0.00    -0.021 C 
ATOM      3  C   LIG A   1       1.009   0.634  -2.707  0.00  0.00    +0.021 C 
ATOM      4  C   LIG A   1       1.961   0.453  -1.531  0.00  0.00    -0.063 C 
ATOM      5  C   LIG A   1       1.330   0.674  -0.130  0.00  0.00    -0.005 C 
ATOM      6  C   LIG A   1      -0.208   0.251  -0.059  0.00  0.00    -0.020 C 
ATOM      7  C   LIG A   1      -1.204   1.401  -0.264  0.00  0.00    +0.012 C 
ATOM      8  C   LIG A   1      -0.405  -0.516   1.307  0.00  0.00    -0.001 C 
ATOM      9  C   LIG A   1       0.973  -1.160   1.522  0.00  0.00    +0.005 C 
ATOM     10  C   LIG A   1       2.003  -0.169   0.995  0.00  0.00    +0.012 C 
ATOM     11  C   LIG A   1      -0.484  -0.804  -1.185  0.00  0.00    +0.008 C 
ATOM     12  C   LIG A   1      -0.179  -0.332  -2.606  0.00  0.00    +0.009 C 
ATOM     13  C   LIG A   1       1.591   2.175   0.150  0.00  0.00    +0.016 C 
ATOM     14  C   LIG A   1       3.282   0.248  -1.723  0.00  0.00    -0.026 C 
ATOM     15  C   LIG A   1       3.952   0.123  -3.059  0.00  0.00    +0.032 C 
ATOM     16  C   LIG A   1       2.979  -0.167  -4.220  0.00  0.00    +0.012 C 
ATOM     17  C   LIG A   1       2.705  -1.698  -4.446  0.00  0.00    +0.027 C 
ATOM     18  C   LIG A   1       2.820  -2.577  -3.180  0.00  0.00    +0.019 C 
ATOM     19  C   LIG A   1       1.325  -1.967  -5.059  0.00  0.00    +0.139 C 
ATOM     20  C   LIG A   1       0.659  -0.882  -5.863  0.00  0.00    +0.075 C 
ATOM     21  C   LIG A   1       0.787   0.532  -5.320  0.00  0.00    +0.015 C 
ATOM     22  O   LIG A   1       0.808  -3.079  -5.018  0.00  0.00    -0.297 OA
ATOM     23  C   LIG A   1       3.730  -2.234  -5.470  0.00  0.00    +0.019 C 
ENDROOT
BRANCH   8  24
ATOM     24  C   LIG A   1      -0.953   0.140   2.626  0.00  0.00    -0.008 C 
ATOM     25  C   LIG A   1      -0.115   1.282   3.188  0.00  0.00    +0.008 C 
BRANCH  24  26
ATOM     26  C   LIG A   1      -2.455   0.515   2.553  0.00  0.00    +0.037 C 
BRANCH  26  27
ATOM     27  C   LIG A   1      -3.154   0.895   3.883  0.00  0.00    +0.146 C 
BRANCH  27  28
ATOM     28  O   LIG A   1      -4.504   1.227   3.518  0.00  0.00    -0.389 OA
ATOM     29  H   LIG A   1      -4.979   0.376   3.453  0.00  0.00    +0.210 HD
ENDBRANCH  27  28
BRANCH  27  30
ATOM     30  C   LIG A   1      -3.159  -0.237   4.941  0.00  0.00    +0.174 C 
BRANCH  30  31
ATOM     31  C   LIG A   1      -3.768   0.139   6.326  0.00  0.00    +0.089 C 
ATOM     32  C   LIG A   1      -5.264   0.472   6.287  0.00  0.00    +0.044 C 
ATOM     33  C   LIG A   1      -3.556  -1.027   7.306  0.00  0.00    +0.044 C 
BRANCH  31  34
ATOM     34  O   LIG A   1      -3.055   1.264   6.856  0.00  0.00    -0.387 OA
ATOM     35  H   LIG A   1      -3.508   1.542   7.672  0.00  0.00    +0.210 HD
ENDBRANCH  31  34
ENDBRANCH  30  31
BRANCH  30  36
ATOM     36  O   LIG A   1      -3.857  -1.371   4.398  0.00  0.00    -0.386 OA
ATOM     37  H   LIG A   1      -3.231  -1.839   3.817  0.00  0.00    +0.210 HD
ENDBRANCH  30  36
ENDBRANCH  27  30
ENDBRANCH  26  27
ENDBRANCH  24  26
ENDBRANCH   8  24
TORSDOF 8
