@<TRIPOS>MOLECULE
NuBBE_1131
 83 87 0 0 0
SMALL
GASTEIGER

@<TRIPOS>ATOM
      1 C          -3.4608    1.0979   -0.8338 C.3     1  LIG1       -0.0588
      2 C          -2.0420    0.4778   -0.6616 C.3     1  LIG1       -0.0233
      3 C          -1.1717    1.6085    0.0935 C.3     1  LIG1       -0.0325
      4 H          -1.8380    2.4701    0.2349 H       1  LIG1        0.0309
      5 C          -0.1323    2.0733   -0.9483 C.3     1  LIG1       -0.0489
      6 C          -0.6907    1.6621   -2.3016 C.3     1  LIG1       -0.0466
      7 C          -1.3256    0.2709   -2.0700 C.3     1  LIG1       -0.0231
      8 C          -0.1883   -0.8192   -1.9790 C.3     1  LIG1       -0.0289
      9 C           0.4664   -1.1857   -3.3215 C.3     1  LIG1       -0.0489
     10 C           1.6903   -2.0686   -3.0742 C.3     1  LIG1       -0.0485
     11 C           1.2728   -3.4541   -2.5574 C.3     1  LIG1       -0.0230
     12 C           2.4576   -4.3973   -2.1808 C.3     1  LIG1        0.0267
     13 C           3.3527   -4.6384   -3.4103 C.3     1  LIG1       -0.0528
     14 C           1.8667   -5.7417   -1.7171 C.2     1  LIG1        0.1392
     15 C           0.6992   -5.7366   -0.7536 C.3     1  LIG1        0.0069
     16 C          -0.3831   -4.7694   -1.2091 C.3     1  LIG1       -0.0399
     17 C           0.2214   -3.3995   -1.4416 C.3     1  LIG1       -0.0187
     18 C           0.4477   -2.5597   -0.2120 C.3     1  LIG1       -0.0401
     19 C          -0.5864   -2.0975   -1.2265 C.3     1  LIG1       -0.0194
     20 C          -2.0174   -2.1159   -0.7498 C.3     1  LIG1       -0.0460
     21 C          -2.2539   -0.8638    0.0867 C.3     1  LIG1       -0.0463
     22 O           2.4008   -6.8288   -2.0190 O.2     1  LIG1       -0.2968
     23 C           3.3533   -3.8694   -1.0438 C.3     1  LIG1       -0.0528
     24 C          -2.2746   -0.0042   -3.2632 C.3     1  LIG1       -0.0588
     25 C          -0.5332    1.3676    1.5046 C.3     1  LIG1       -0.0402
     26 H           0.1589    0.5176    1.4221 H       1  LIG1        0.0301
     27 C          -1.5809    1.0249    2.5802 C.3     1  LIG1       -0.0621
     28 C           0.3353    2.5686    2.0367 C.3     1  LIG1       -0.0465
     29 C          -0.4112    3.9050    2.2465 C.3     1  LIG1       -0.0314
     30 C           0.4305    5.0465    2.8168 C.2     1  LIG1       -0.0716
     31 C           0.5056    5.2784    4.3318 C.3     1  LIG1        0.0002
     32 C          -0.8643    5.5334    4.9770 C.3     1  LIG1       -0.0566
     33 C           1.2461    4.1550    5.0705 C.3     1  LIG1        0.0504
     34 O           1.3252    4.4417    6.4649 O.3     1  LIG1       -0.3944
     35 C           1.0420    5.9152    1.9881 C.2     1  LIG1       -0.0991
     36 H          -3.9020    1.3295    0.1436 H       1  LIG1        0.0235
     37 H          -4.1458    0.4102   -1.3410 H       1  LIG1        0.0235
     38 H          -3.4336    2.0331   -1.4037 H       1  LIG1        0.0235
     39 H           0.8454    1.6096   -0.7793 H       1  LIG1        0.0268
     40 H           0.0210    3.1568   -0.9126 H       1  LIG1        0.0268
     41 H           0.0863    1.6576   -3.0717 H       1  LIG1        0.0271
     42 H          -1.4470    2.3899   -2.6208 H       1  LIG1        0.0271
     43 H           0.6102   -0.3702   -1.3790 H       1  LIG1        0.0312
     44 H           0.7902   -0.2851   -3.8524 H       1  LIG1        0.0268
     45 H          -0.2358   -1.7178   -3.9748 H       1  LIG1        0.0268
     46 H           2.3641   -1.5645   -2.3734 H       1  LIG1        0.0268
     47 H           2.2354   -2.1722   -4.0189 H       1  LIG1        0.0268
     48 H           0.7559   -3.9288   -3.4069 H       1  LIG1        0.0316
     49 H           2.7692   -5.0299   -4.2516 H       1  LIG1        0.0239
     50 H           4.1418   -5.3696   -3.1960 H       1  LIG1        0.0239
     51 H           3.8512   -3.7208   -3.7353 H       1  LIG1        0.0239
     52 H           1.0829   -5.4582    0.2348 H       1  LIG1        0.0342
     53 H           0.2854   -6.7446   -0.6832 H       1  LIG1        0.0342
     54 H          -1.1710   -4.7583   -0.4503 H       1  LIG1        0.0275
     55 H          -0.8437   -5.1245   -2.1388 H       1  LIG1        0.0275
     56 H           1.3664   -1.9919   -0.1105 H       1  LIG1        0.0276
     57 H           0.1014   -2.9346    0.7473 H       1  LIG1        0.0276
     58 H          -2.2192   -2.9792   -0.1066 H       1  LIG1        0.0271
     59 H          -2.7220   -2.2019   -1.5790 H       1  LIG1        0.0271
     60 H          -1.5535   -0.9568    0.9122 H       1  LIG1        0.0271
     61 H          -3.2611   -0.9215    0.5195 H       1  LIG1        0.0271
     62 H           3.7878   -2.8951   -1.2866 H       1  LIG1        0.0239
     63 H           4.1870   -4.5572   -0.8558 H       1  LIG1        0.0239
     64 H           2.8205   -3.7795   -0.0939 H       1  LIG1        0.0239
     65 H          -1.7309    0.0018   -4.2143 H       1  LIG1        0.0235
     66 H          -3.0425    0.7695   -3.3677 H       1  LIG1        0.0235
     67 H          -2.7898   -0.9634   -3.1924 H       1  LIG1        0.0235
     68 H          -2.4723    1.6497    2.4804 H       1  LIG1        0.0233
     69 H          -1.1744    1.1545    3.5889 H       1  LIG1        0.0233
     70 H          -1.9059   -0.0154    2.5453 H       1  LIG1        0.0233
     71 H           1.1914    2.7290    1.3707 H       1  LIG1        0.0271
     72 H           0.7745    2.2534    2.9911 H       1  LIG1        0.0271
     73 H          -1.2857    3.7544    2.8862 H       1  LIG1        0.0310
     74 H          -0.8125    4.2303    1.2785 H       1  LIG1        0.0310
     75 H           1.0775    6.2014    4.5157 H       1  LIG1        0.0365
     76 H          -1.4643    4.6191    5.0221 H       1  LIG1        0.0236
     77 H          -1.4306    6.2980    4.4361 H       1  LIG1        0.0236
     78 H          -0.7416    5.8912    6.0070 H       1  LIG1        0.0236
     79 H           2.2671    4.0468    4.6897 H       1  LIG1        0.0563
     80 H           0.7195    3.2041    4.9587 H       1  LIG1        0.0563
     81 H           1.5371    3.6062    6.9148 H       1  LIG1        0.2094
     82 H           0.9876    5.8178    0.9081 H       1  LIG1        0.0534
     83 H           1.6101    6.7625    2.3658 H       1  LIG1        0.0534
@<TRIPOS>BOND
     1     2     3    1
     2     3     5    1
     3     5     6    1
     4     6     7    1
     5     7     8    1
     6     8     9    1
     7     9    10    1
     8    10    11    1
     9    11    12    1
    10    12    14    1
    11    14    15    1
    12    15    16    1
    13    16    17    1
    14    11    17    1
    15    17    18    1
    16    18    19    1
    17    17    19    1
    18     8    19    1
    19    19    20    1
    20    20    21    1
    21     2    21    1
    22     2     7    1
    23    25    28    1
    24    28    29    1
    25    29    30    1
    26    30    31    1
    27    31    32    1
    28    31    33    1
    29    33    34    1
    30    30    35    2
    31     1     2    1
    32     7    24    1
    33    12    13    1
    34    12    23    1
    35    14    22    2
    36     3    25    1
    37     3     4    1
    38    25    27    1
    39    25    26    1
    40     1    36    1
    41     1    37    1
    42     1    38    1
    43     5    39    1
    44     5    40    1
    45     6    41    1
    46     6    42    1
    47     8    43    1
    48     9    44    1
    49     9    45    1
    50    10    46    1
    51    10    47    1
    52    11    48    1
    53    13    49    1
    54    13    50    1
    55    13    51    1
    56    15    52    1
    57    15    53    1
    58    16    54    1
    59    16    55    1
    60    18    56    1
    61    18    57    1
    62    20    58    1
    63    20    59    1
    64    21    60    1
    65    21    61    1
    66    23    62    1
    67    23    63    1
    68    23    64    1
    69    24    65    1
    70    24    66    1
    71    24    67    1
    72    27    68    1
    73    27    69    1
    74    27    70    1
    75    28    71    1
    76    28    72    1
    77    29    73    1
    78    29    74    1
    79    31    75    1
    80    32    76    1
    81    32    77    1
    82    32    78    1
    83    33    79    1
    84    33    80    1
    85    34    81    1
    86    35    82    1
    87    35    83    1
