REMARK  Name = NuBBE_2463
REMARK  13 active torsions:
REMARK  status: ('A' for Active; 'I' for Inactive)
REMARK    1  A    between atoms: C_1  and  O_2
REMARK    2  A    between atoms: O_2  and  C_3
REMARK    3  A    between atoms: C_4  and  O_5
REMARK    4  A    between atoms: O_5  and  C_6
REMARK    5  A    between atoms: C_9  and  C_11
REMARK    6  A    between atoms: C_14  and  O_15
REMARK    7  A    between atoms: O_15  and  C_16
REMARK    8  A    between atoms: C_17  and  O_18
REMARK    9  A    between atoms: O_18  and  C_19
REMARK   10  A    between atoms: C_21  and  C_23
REMARK   11  A    between atoms: C_23  and  O_24
REMARK   12  A    between atoms: C_25  and  C_27
REMARK   13  A    between atoms: C_27  and  O_28
REMARK                            x       y       z     vdW  Elec       q    Type
REMARK                         _______ _______ _______ _____ _____    ______ ____
ROOT
ATOM      1  C   LIG A   1      -1.502  -3.022  -1.470  0.00  0.00    +0.162 A 
ATOM      2  C   LIG A   1      -0.111  -2.997  -1.310  0.00  0.00    +0.162 A 
ATOM      3  C   LIG A   1       0.542  -1.765  -1.189  0.00  0.00    +0.053 A 
ATOM      4  C   LIG A   1      -0.174  -0.540  -1.202  0.00  0.00    -0.033 A 
ATOM      5  C   LIG A   1       0.568   0.783  -1.085  0.00  0.00    +0.055 C 
ATOM      6  C   LIG A   1      -0.293   2.026  -1.503  0.00  0.00    +0.032 C 
ATOM      7  C   LIG A   1      -1.780   1.934  -1.054  0.00  0.00    +0.025 C 
ATOM      8  C   LIG A   1      -2.435   0.639  -1.518  0.00  0.00    +0.041 C 
ATOM      9  C   LIG A   1      -1.573  -0.583  -1.347  0.00  0.00    -0.040 A 
ATOM     10  C   LIG A   1      -2.213  -1.816  -1.461  0.00  0.00    +0.053 A 
ENDROOT
BRANCH   5  11
ATOM     11  C   LIG A   1       1.298   1.004   0.255  0.00  0.00    -0.036 A 
ATOM     12  C   LIG A   1       2.448   1.809   0.284  0.00  0.00    +0.008 A 
ATOM     13  C   LIG A   1       3.140   2.048   1.482  0.00  0.00    +0.050 A 
ATOM     14  C   LIG A   1       2.690   1.519   2.694  0.00  0.00    +0.162 A 
ATOM     15  C   LIG A   1       1.540   0.713   2.688  0.00  0.00    +0.162 A 
ATOM     16  C   LIG A   1       0.886   0.436   1.471  0.00  0.00    +0.053 A 
BRANCH  14  17
ATOM     17  O   LIG A   1       3.322   1.720   3.892  0.00  0.00    -0.491 OA
ATOM     18  C   LIG A   1       4.495   2.519   3.926  0.00  0.00    +0.277 C 
ENDBRANCH  14  17
BRANCH  15  19
ATOM     19  O   LIG A   1       0.967   0.093   3.771  0.00  0.00    -0.491 OA
ATOM     20  C   LIG A   1       1.078   0.762   5.024  0.00  0.00    +0.277 C 
ENDBRANCH  15  19
ENDBRANCH   5  11
BRANCH   1  22
ATOM     21  C   LIG A   1      -3.345  -4.210  -2.413  0.00  0.00    +0.277 C 
ATOM     22  O   LIG A   1      -2.169  -4.205  -1.606  0.00  0.00    -0.491 OA
ENDBRANCH   1  22
BRANCH   2  23
ATOM     23  O   LIG A   1       0.711  -4.090  -1.256  0.00  0.00    -0.491 OA
ATOM     24  C   LIG A   1       0.090  -5.373  -1.351  0.00  0.00    +0.277 C 
ENDBRANCH   2  23
BRANCH   6  25
ATOM     25  C   LIG A   1      -0.186   2.268  -3.033  0.00  0.00    +0.160 C 
BRANCH  25  26
ATOM     26  O   LIG A   1      -0.606   1.153  -3.800  0.00  0.00    -0.395 OA
ATOM     27  H   LIG A   1      -0.570   1.398  -4.740  0.00  0.00    +0.209 HD
ENDBRANCH  25  26
ENDBRANCH   6  25
BRANCH   7  28
ATOM     28  C   LIG A   1      -1.962   2.122   0.460  0.00  0.00    +0.160 C 
BRANCH  28  29
ATOM     29  O   LIG A   1      -3.347   2.092   0.799  0.00  0.00    -0.395 OA
ATOM     30  H   LIG A   1      -3.398   1.808   1.730  0.00  0.00    +0.209 HD
ENDBRANCH  28  29
ENDBRANCH   7  28
TORSDOF 9
