@<TRIPOS>MOLECULE
NuBBE_47
 82 84 0 0 0
SMALL
GASTEIGER

@<TRIPOS>ATOM
      1 C          -2.1847    1.3673    3.8574 C.3     1  LIG1       -0.0618
      2 C          -1.6141    0.8330    2.5431 C.3     1  LIG1       -0.0355
      3 H          -2.4870    0.4308    2.0036 H       1  LIG1        0.0304
      4 C          -0.7482   -0.4124    2.8308 C.3     1  LIG1       -0.0227
      5 C           0.7304   -0.2723    2.4889 C.3     1  LIG1        0.0710
      6 H           1.1883   -1.2477    2.6939 H       1  LIG1        0.0604
      7 O           1.3661    0.5938    3.4154 O.3     1  LIG1       -0.3907
      8 C           0.9487    0.1436    0.9887 C.3     1  LIG1        0.0892
      9 C           1.0390   -1.1713    0.2435 C.2     1  LIG1        0.0124
     10 C           2.4361   -1.7244    0.4171 C.3     1  LIG1        0.2315
     11 H           2.5020   -2.4356    1.2493 H       1  LIG1        0.1111
     12 O           2.8764   -2.2864   -0.8219 O.3     1  LIG1       -0.4309
     13 C           2.7092   -3.6331   -0.9424 C.2     1  LIG1        0.3095
     14 C           2.6290   -3.9927   -2.4197 C.3     1  LIG1        0.0448
     15 C           2.2827   -5.4632   -2.6644 C.3     1  LIG1       -0.0458
     16 C           2.1786   -5.7936   -4.1484 C.3     1  LIG1       -0.0648
     17 O           2.5680   -4.4250   -0.0180 O.2     1  LIG1       -0.2508
     18 O           3.2337   -0.5866    0.8058 O.3     1  LIG1       -0.2971
     19 C           2.4167    0.6065    0.7186 C.3     1  LIG1        0.2204
     20 H           2.7432    1.3162    1.4846 H       1  LIG1        0.1068
     21 O           2.6432    1.1544   -0.5932 O.3     1  LIG1       -0.4341
     22 C           3.6995    2.0252   -0.6317 C.2     1  LIG1        0.3061
     23 C           4.7060    1.6364   -1.6883 C.3     1  LIG1        0.0333
     24 O           3.8382    2.9802    0.1030 O.2     1  LIG1       -0.2511
     25 C           0.0560   -1.6979   -0.4968 C.2     1  LIG1       -0.0381
     26 C          -1.2414   -1.0127   -0.7378 C.3     1  LIG1        0.1220
     27 H          -1.9959   -1.3743   -0.0292 H       1  LIG1        0.0779
     28 O          -1.7431   -1.2676   -2.0743 O.3     1  LIG1       -0.4571
     29 C          -2.1375   -2.5419   -2.3560 C.2     1  LIG1        0.3076
     30 C          -3.6269   -2.5835   -2.5794 C.3     1  LIG1        0.0447
     31 C          -4.1289   -3.9697   -2.9810 C.3     1  LIG1       -0.0458
     32 C          -5.6412   -3.9630   -3.1367 C.3     1  LIG1       -0.0648
     33 O          -1.3894   -3.5096   -2.4052 O.2     1  LIG1       -0.2508
     34 C          -1.1145    0.5157   -0.6169 C.3     1  LIG1       -0.0075
     35 C          -0.1691    1.1397    0.4661 C.3     1  LIG1       -0.0138
     36 H           0.3516    1.9298   -0.0849 H       1  LIG1        0.0319
     37 C          -0.9724    1.9250    1.6019 C.3     1  LIG1       -0.0219
     38 C          -2.1496    2.7709    1.0057 C.3     1  LIG1       -0.0587
     39 C          -0.0753    3.0106    2.3469 C.3     1  LIG1       -0.0283
     40 C           0.5455    4.1062    1.4930 C.2     1  LIG1       -0.0806
     41 C           0.4049    5.4483    1.5273 C.2     1  LIG1       -0.0549
     42 C          -0.4523    6.2059    2.4191 C.2     1  LIG1       -0.0662
     43 C          -0.3791    6.2283    3.7554 C.2     1  LIG1       -0.0985
     44 C           1.1322    6.3185    0.5229 C.3     1  LIG1       -0.0400
     45 H          -1.3837    1.6525    4.5450 H       1  LIG1        0.0233
     46 H          -2.7829    0.5902    4.3501 H       1  LIG1        0.0233
     47 H          -2.8420    2.2251    3.6966 H       1  LIG1        0.0233
     48 H          -1.1567   -1.2569    2.2596 H       1  LIG1        0.0293
     49 H          -0.8514   -0.7111    3.8824 H       1  LIG1        0.0293
     50 H           1.1641    0.2866    4.3174 H       1  LIG1        0.2098
     51 H           3.5753   -3.7349   -2.9046 H       1  LIG1        0.0377
     52 H           1.8300   -3.3745   -2.8480 H       1  LIG1        0.0377
     53 H           1.3255   -5.6981   -2.1830 H       1  LIG1        0.0268
     54 H           3.0349   -6.1140   -2.2037 H       1  LIG1        0.0268
     55 H           1.5832   -5.0499   -4.6879 H       1  LIG1        0.0230
     56 H           1.7013   -6.7699   -4.2867 H       1  LIG1        0.0230
     57 H           3.1704   -5.8401   -4.6098 H       1  LIG1        0.0230
     58 H           4.4215    0.7050   -2.1833 H       1  LIG1        0.0342
     59 H           5.6755    1.4810   -1.2059 H       1  LIG1        0.0342
     60 H           4.7881    2.4287   -2.4353 H       1  LIG1        0.0342
     61 H           0.1923   -2.6791   -0.9376 H       1  LIG1        0.0610
     62 H          -3.8902   -1.8532   -3.3519 H       1  LIG1        0.0377
     63 H          -4.0969   -2.2917   -1.6334 H       1  LIG1        0.0377
     64 H          -3.8450   -4.7103   -2.2233 H       1  LIG1        0.0268
     65 H          -3.6667   -4.2904   -3.9227 H       1  LIG1        0.0268
     66 H          -6.1263   -3.6038   -2.2232 H       1  LIG1        0.0230
     67 H          -6.0128   -4.9704   -3.3464 H       1  LIG1        0.0230
     68 H          -5.9397   -3.3096   -3.9627 H       1  LIG1        0.0230
     69 H          -2.1378    0.8884   -0.5340 H       1  LIG1        0.0307
     70 H          -0.7884    0.9255   -1.5844 H       1  LIG1        0.0307
     71 H          -3.0282    2.1663    0.7557 H       1  LIG1        0.0235
     72 H          -1.8386    3.3021    0.0998 H       1  LIG1        0.0235
     73 H          -2.5114    3.5199    1.7206 H       1  LIG1        0.0235
     74 H          -0.6591    3.4609    3.1565 H       1  LIG1        0.0313
     75 H           0.7726    2.5445    2.8342 H       1  LIG1        0.0313
     76 H           1.2519    3.7253    0.7560 H       1  LIG1        0.0575
     77 H          -1.1591    6.8741    1.9294 H       1  LIG1        0.0614
     78 H           0.3508    5.6480    4.3093 H       1  LIG1        0.0535
     79 H          -1.0524    6.8624    4.3259 H       1  LIG1        0.0535
     80 H           1.9088    5.7692   -0.0211 H       1  LIG1        0.0277
     81 H           1.6245    7.1689    1.0100 H       1  LIG1        0.0277
     82 H           0.4243    6.7114   -0.2157 H       1  LIG1        0.0277
@<TRIPOS>BOND
     1     2     4    1
     2     4     5    1
     3     5     8    1
     4     8     9    1
     5     9    10    1
     6    12    13    1
     7    13    14    1
     8    14    15    1
     9    15    16    1
    10    13    17    2
    11    10    18    1
    12    18    19    1
    13     8    19    1
    14    21    22    1
    15    22    23    1
    16    22    24    2
    17     9    25    2
    18    25    26    1
    19    28    29    1
    20    29    30    1
    21    30    31    1
    22    31    32    1
    23    29    33    2
    24    26    34    1
    25    34    35    1
    26     8    35    1
    27    35    37    1
    28     2    37    1
    29    39    40    1
    30    40    41    2
    31    41    42    1
    32    42    43    2
    33    41    44    1
    34     5     6    1
    35     5     7    1
    36    10    11    1
    37    10    12    1
    38    19    20    1
    39    19    21    1
    40    35    36    1
    41    37    38    1
    42    37    39    1
    43     2     3    1
    44     2     1    1
    45    26    28    1
    46    26    27    1
    47     1    45    1
    48     1    46    1
    49     1    47    1
    50     4    48    1
    51     4    49    1
    52     7    50    1
    53    14    51    1
    54    14    52    1
    55    15    53    1
    56    15    54    1
    57    16    55    1
    58    16    56    1
    59    16    57    1
    60    23    58    1
    61    23    59    1
    62    23    60    1
    63    25    61    1
    64    30    62    1
    65    30    63    1
    66    31    64    1
    67    31    65    1
    68    32    66    1
    69    32    67    1
    70    32    68    1
    71    34    69    1
    72    34    70    1
    73    38    71    1
    74    38    72    1
    75    38    73    1
    76    39    74    1
    77    39    75    1
    78    40    76    1
    79    42    77    1
    80    43    78    1
    81    43    79    1
    82    44    80    1
    83    44    81    1
    84    44    82    1
