@<TRIPOS>MOLECULE
NuBBE_363
 29 31 0 0 0
SMALL
GASTEIGER

@<TRIPOS>ATOM
      1 O          -3.4887    0.2865    0.1877 O.2     1  LIG1       -0.2869
      2 C          -2.2685    0.3435    0.1201 C.ar    1  LIG1        0.1966
      3 C          -1.5004   -0.9144    0.0917 C.ar    1  LIG1        0.0288
      4 C          -0.1645   -0.8777    0.0111 C.ar    1  LIG1        0.1392
      5 C           0.6460   -2.1107   -0.0126 C.ar    1  LIG1        0.0174
      6 C           1.8227   -2.1914    0.7476 C.ar    1  LIG1       -0.0511
      7 C           2.6080   -3.3470    0.7295 C.ar    1  LIG1       -0.0611
      8 C           2.2304   -4.4345   -0.0543 C.ar    1  LIG1       -0.0617
      9 C           1.0705   -4.3669   -0.8226 C.ar    1  LIG1       -0.0611
     10 C           0.2843   -3.2116   -0.8045 C.ar    1  LIG1       -0.0511
     11 O           0.5759    0.2893   -0.0308 O.2     1  LIG1       -0.4544
     12 C          -1.4833    1.5982    0.0610 C.ar    1  LIG1        0.1055
     13 C          -0.0907    1.4903   -0.0123 C.ar    1  LIG1        0.1462
     14 C           0.7148    2.6315   -0.0711 C.ar    1  LIG1        0.0231
     15 C           0.1172    3.8851   -0.0559 C.ar    1  LIG1        0.1239
     16 O           0.8584    5.0278   -0.1116 O.3     1  LIG1       -0.5065
     17 C          -1.2652    4.0158    0.0171 C.ar    1  LIG1        0.0223
     18 C          -2.0664    2.8725    0.0753 C.ar    1  LIG1        0.1347
     19 O          -3.4213    3.0250    0.1457 O.3     1  LIG1       -0.5058
     20 H          -2.0775   -1.8285    0.1489 H       1  LIG1        0.0693
     21 H           2.1341   -1.3547    1.3694 H       1  LIG1        0.0625
     22 H           3.5140   -3.3966    1.3282 H       1  LIG1        0.0618
     23 H           2.8415   -5.3335   -0.0690 H       1  LIG1        0.0618
     24 H           0.7780   -5.2123   -1.4403 H       1  LIG1        0.0618
     25 H          -0.6076   -3.1795   -1.4265 H       1  LIG1        0.0625
     26 H           1.7932    2.5212   -0.1286 H       1  LIG1        0.0691
     27 H           1.8006    4.7949   -0.1666 H       1  LIG1        0.2921
     28 H          -1.7001    5.0109    0.0271 H       1  LIG1        0.0691
     29 H          -3.6553    3.9667    0.1464 H       1  LIG1        0.2922
@<TRIPOS>BOND
     1     1     2    2
     2     2     3   ar
     3     3     4   ar
     4     4     5    1
     5     5     6   ar
     6     6     7   ar
     7     7     8   ar
     8     8     9   ar
     9     9    10   ar
    10     5    10   ar
    11     4    11   ar
    12     2    12   ar
    13    12    13   ar
    14    11    13   ar
    15    13    14   ar
    16    14    15   ar
    17    15    16    1
    18    15    17   ar
    19    17    18   ar
    20    12    18   ar
    21    18    19    1
    22     3    20    1
    23     6    21    1
    24     7    22    1
    25     8    23    1
    26     9    24    1
    27    10    25    1
    28    14    26    1
    29    16    27    1
    30    17    28    1
    31    19    29    1
