@<TRIPOS>MOLECULE
NuBBE_674
 72 75 0 0 0
SMALL
GASTEIGER

@<TRIPOS>ATOM
      1 O           2.4116   -0.8501    0.0037 O.2     1  LIG1       -0.2880
      2 C           1.3977   -0.1835   -0.1639 C.2     1  LIG1        0.2061
      3 C           0.8332    0.6729    0.8908 C.2     1  LIG1        0.0455
      4 C           1.1581    0.4877    2.3283 C.3     1  LIG1        0.0115
      5 C           2.3698    1.2937    2.7350 C.ar    1  LIG1        0.0408
      6 C           3.6705    0.7707    2.6542 C.ar    1  LIG1        0.1267
      7 C           4.7913    1.5507    2.9650 C.ar    1  LIG1       -0.0079
      8 C           6.1951    1.0220    2.8550 C.3     1  LIG1       -0.0362
      9 C           4.6044    2.8805    3.3776 C.ar    1  LIG1       -0.0414
     10 C           3.3198    3.4249    3.4948 C.ar    1  LIG1        0.0592
     11 C           3.1127    4.8337    3.9495 C.2     1  LIG1        0.1636
     12 C           4.2970    5.6999    4.2874 C.3     1  LIG1       -0.0013
     13 O           1.9639    5.2756    4.0161 O.2     1  LIG1       -0.2922
     14 C           2.2116    2.6246    3.1631 C.ar    1  LIG1        0.1343
     15 O           0.9242    3.1043    3.2344 O.3     1  LIG1       -0.5057
     16 O           3.8884   -0.5274    2.2794 O.3     1  LIG1       -0.5061
     17 C          -0.1986    1.1930    0.2241 C.2     1  LIG1        0.1340
     18 O          -0.2236    0.9940   -1.1528 O.2     1  LIG1       -0.4773
     19 C           0.4450   -0.2479   -1.3479 C.3     1  LIG1        0.1727
     20 C          -0.5512   -1.4302   -1.1877 C.3     1  LIG1        0.0321
     21 C          -2.0670   -1.2376   -1.5931 C.3     1  LIG1        0.1181
     22 H          -2.2548   -0.3112   -2.1459 H       1  LIG1        0.0743
     23 C          -3.0584   -1.3831   -0.3836 C.3     1  LIG1        0.0682
     24 H          -2.6410   -2.1883    0.2438 H       1  LIG1        0.0427
     25 C          -3.3632   -0.1531    0.4853 C.3     1  LIG1        0.1326
     26 H          -3.8749    0.6367   -0.0818 H       1  LIG1        0.0787
     27 C          -2.1499    0.3739    1.1805 C.2     1  LIG1       -0.0344
     28 C          -1.5306    1.4824    0.7136 C.2     1  LIG1        0.0194
     29 C          -2.2458    2.6607    0.0839 C.3     1  LIG1        0.0725
     30 O          -2.4253    2.4666   -1.3150 O.3     1  LIG1       -0.3903
     31 O          -4.3047   -0.6425    1.4588 O.3     1  LIG1       -0.4531
     32 C          -5.0994   -1.5568    0.8256 C.2     1  LIG1        0.3357
     33 O          -6.0723   -2.1325    1.3080 O.2     1  LIG1       -0.2453
     34 C          -4.5055   -1.7561   -0.5244 C.2     1  LIG1        0.0400
     35 C          -5.2892   -2.0611   -1.5708 C.2     1  LIG1       -0.0882
     36 O          -2.2965   -2.4031   -2.4386 O.3     1  LIG1       -0.4572
     37 C          -2.0157   -2.2694   -3.7562 C.2     1  LIG1        0.3348
     38 C          -1.6003   -3.5782   -4.3534 C.2     1  LIG1        0.0293
     39 C          -0.7269   -3.4193   -5.5701 C.3     1  LIG1       -0.0333
     40 C          -1.8780   -4.8001   -3.8526 C.2     1  LIG1       -0.0774
     41 C          -2.7296   -5.1419   -2.6714 C.3     1  LIG1       -0.0461
     42 O          -1.9273   -1.2056   -4.3510 O.2     1  LIG1       -0.2453
     43 C           1.1677   -0.2038   -2.6817 C.3     1  LIG1       -0.0174
     44 H           1.3238   -0.5755    2.5446 H       1  LIG1        0.0366
     45 H           0.3032    0.7552    2.9607 H       1  LIG1        0.0366
     46 H           6.2373    0.0131    2.4350 H       1  LIG1        0.0279
     47 H           6.6641    0.9959    3.8437 H       1  LIG1        0.0279
     48 H           6.7839    1.6706    2.1971 H       1  LIG1        0.0279
     49 H           5.4888    3.4723    3.5963 H       1  LIG1        0.0629
     50 H           5.0117    5.1693    4.9201 H       1  LIG1        0.0309
     51 H           3.9501    6.5683    4.8564 H       1  LIG1        0.0309
     52 H           4.7730    6.0477    3.3672 H       1  LIG1        0.0309
     53 H           0.9578    4.0288    3.5721 H       1  LIG1        0.2922
     54 H           3.3352   -0.7359    1.4961 H       1  LIG1        0.2922
     55 H          -0.5248   -1.7804   -0.1478 H       1  LIG1        0.0344
     56 H          -0.1203   -2.2807   -1.7363 H       1  LIG1        0.0344
     57 H          -1.5756   -0.4261    1.6455 H       1  LIG1        0.0613
     58 H          -1.6838    3.5835    0.2683 H       1  LIG1        0.0608
     59 H          -3.2440    2.7896    0.5146 H       1  LIG1        0.0608
     60 H          -2.4101    3.3472   -1.7301 H       1  LIG1        0.2098
     61 H          -4.9198   -2.0985   -2.5847 H       1  LIG1        0.0540
     62 H          -6.3530   -2.2394   -1.4193 H       1  LIG1        0.0540
     63 H          -1.3113   -3.0378   -6.4132 H       1  LIG1        0.0280
     64 H          -0.2682   -4.3650   -5.8794 H       1  LIG1        0.0280
     65 H           0.0921   -2.7194   -5.3675 H       1  LIG1        0.0280
     66 H          -1.4550   -5.6704   -4.3542 H       1  LIG1        0.0574
     67 H          -3.5911   -4.4765   -2.5785 H       1  LIG1        0.0272
     68 H          -2.1377   -5.1147   -1.7514 H       1  LIG1        0.0272
     69 H          -3.1283   -6.1553   -2.7847 H       1  LIG1        0.0272
     70 H           1.8774    0.6321   -2.7103 H       1  LIG1        0.0272
     71 H           0.4639   -0.0394   -3.5042 H       1  LIG1        0.0272
     72 H           1.7281   -1.1241   -2.8724 H       1  LIG1        0.0272
@<TRIPOS>BOND
     1     1     2    2
     2     2     3    1
     3     3     4    1
     4     4     5    1
     5     5     6   ar
     6     6     7   ar
     7     7     8    1
     8     7     9   ar
     9     9    10   ar
    10    10    11    1
    11    11    12    1
    12    11    13    2
    13    10    14   ar
    14     5    14   ar
    15    14    15    1
    16     6    16    1
    17     3    17    2
    18    17    18    1
    19    18    19    1
    20     2    19    1
    21    19    20    1
    22    20    21    1
    23    21    23    1
    24    23    24    1
    25    23    25    1
    26    25    26    1
    27    25    27    1
    28    27    28    2
    29    17    28    1
    30    28    29    1
    31    29    30    1
    32    25    31    1
    33    31    32    1
    34    32    33    2
    35    23    34    1
    36    32    34    1
    37    34    35    2
    38    36    37    1
    39    37    38    1
    40    38    39    1
    41    38    40    2
    42    40    41    1
    43    37    42    2
    44    19    43    1
    45    21    36    1
    46    21    22    1
    47     4    44    1
    48     4    45    1
    49     8    46    1
    50     8    47    1
    51     8    48    1
    52     9    49    1
    53    12    50    1
    54    12    51    1
    55    12    52    1
    56    15    53    1
    57    16    54    1
    58    20    55    1
    59    20    56    1
    60    27    57    1
    61    29    58    1
    62    29    59    1
    63    30    60    1
    64    35    61    1
    65    35    62    1
    66    39    63    1
    67    39    64    1
    68    39    65    1
    69    40    66    1
    70    41    67    1
    71    41    68    1
    72    41    69    1
    73    43    70    1
    74    43    71    1
    75    43    72    1
