REMARK  Name = NuBBE_1443
REMARK  13 active torsions:
REMARK  status: ('A' for Active; 'I' for Inactive)
REMARK    1  A    between atoms: C_3  and  O_4
REMARK    2  A    between atoms: O_4  and  C_5
REMARK    3  A    between atoms: C_6  and  C_20
REMARK    4  A    between atoms: C_10  and  O_11
REMARK    5  A    between atoms: O_11  and  C_12
REMARK    6  A    between atoms: C_14  and  O_15
REMARK    7  A    between atoms: O_15  and  C_16
REMARK    8  A    between atoms: C_17  and  O_18
REMARK    9  A    between atoms: O_18  and  C_19
REMARK   10  A    between atoms: C_23  and  O_28
REMARK   11  A    between atoms: C_24  and  O_25
REMARK   12  A    between atoms: O_25  and  C_26
REMARK   13  A    between atoms: O_28  and  C_29
REMARK                            x       y       z     vdW  Elec       q    Type
REMARK                         _______ _______ _______ _____ _____    ______ ____
ROOT
ATOM      1  O   LIG A   1      -0.774   0.679   4.030  0.00  0.00    -0.283 OA
ATOM      2  C   LIG A   1      -0.763   0.799   2.745  0.00  0.00    +0.238 A 
ATOM      3  C   LIG A   1      -0.924  -0.377   1.887  0.00  0.00    +0.211 A 
ATOM      4  C   LIG A   1      -0.004  -0.303   0.834  0.00  0.00    +0.181 A 
ATOM      5  O   LIG A   1       0.830   0.805   0.653  0.00  0.00    -0.447 OA
ATOM      6  C   LIG A   1       0.357   2.048   1.000  0.00  0.00    +0.188 A 
ATOM      7  C   LIG A   1      -0.572   2.091   2.100  0.00  0.00    +0.113 A 
ATOM      8  C   LIG A   1      -1.152   3.284   2.462  0.00  0.00    +0.138 A 
ATOM      9  C   LIG A   1      -0.733   4.436   1.821  0.00  0.00    +0.096 A 
ATOM     10  C   LIG A   1       0.221   4.417   0.766  0.00  0.00    +0.169 A 
ATOM     11  C   LIG A   1       0.785   3.208   0.282  0.00  0.00    +0.205 A 
ENDROOT
BRANCH   4  12
ATOM     12  C   LIG A   1       0.278  -1.300  -0.202  0.00  0.00    +0.025 A 
ATOM     13  C   LIG A   1       0.534  -0.907  -1.516  0.00  0.00    +0.015 A 
ATOM     14  C   LIG A   1       0.767  -1.863  -2.498  0.00  0.00    +0.050 A 
ATOM     15  C   LIG A   1       0.716  -3.255  -2.232  0.00  0.00    +0.162 A 
ATOM     16  C   LIG A   1       0.521  -3.663  -0.904  0.00  0.00    +0.162 A 
ATOM     17  C   LIG A   1       0.459  -2.655   0.073  0.00  0.00    +0.061 A 
BRANCH  16  18
ATOM     18  O   LIG A   1       0.319  -4.858  -0.257  0.00  0.00    -0.491 OA
ATOM     19  C   LIG A   1       0.404  -6.083  -0.928  0.00  0.00    +0.277 C 
ENDBRANCH  16  18
BRANCH  15  20
ATOM     20  O   LIG A   1       0.886  -3.962  -3.397  0.00  0.00    -0.491 OA
ATOM     21  C   LIG A   1       1.541  -5.203  -3.297  0.00  0.00    +0.277 C 
ENDBRANCH  15  20
ENDBRANCH   4  12
BRANCH   3  22
ATOM     22  O   LIG A   1      -1.808  -1.340   2.314  0.00  0.00    -0.488 OA
ATOM     23  C   LIG A   1      -2.208  -2.412   1.420  0.00  0.00    +0.277 C 
ENDBRANCH   3  22
BRANCH   8  24
ATOM     24  O   LIG A   1      -2.123   3.519   3.406  0.00  0.00    -0.494 OA
ATOM     25  C   LIG A   1      -3.115   2.514   3.550  0.00  0.00    +0.277 C 
ENDBRANCH   8  24
BRANCH  10  26
ATOM     26  O   LIG A   1       0.399   5.746   0.402  0.00  0.00    -0.491 OA
ATOM     27  C   LIG A   1       1.074   5.768  -0.795  0.00  0.00    +0.277 C 
ENDBRANCH  10  26
BRANCH  11  28
ATOM     28  O   LIG A   1       1.774   2.980  -0.685  0.00  0.00    -0.488 OA
ATOM     29  C   LIG A   1       1.985   3.619  -1.977  0.00  0.00    +0.277 C 
ENDBRANCH  11  28
TORSDOF 7
