REMARK  Name = NuBBE_24
REMARK  6 active torsions:
REMARK  status: ('A' for Active; 'I' for Inactive)
REMARK    1  A    between atoms: C_2  and  C_9
REMARK    2  A    between atoms: N_3  and  C_5
REMARK    3  A    between atoms: C_5  and  C_6
REMARK    4  A    between atoms: C_6  and  C_7
REMARK    5  A    between atoms: C_6  and  C_8
REMARK    6  A    between atoms: C_10  and  C_11
REMARK                            x       y       z     vdW  Elec       q    Type
REMARK                         _______ _______ _______ _____ _____    ______ ____
ROOT
ATOM      1  C   LIG A   1       0.557   0.490   0.370  0.00  0.00    +0.068 C 
ATOM      2  C   LIG A   1       1.701   0.021  -0.150  0.00  0.00    +0.013 C 
ENDROOT
BRANCH   2   3
ATOM      3  C   LIG A   1       2.281  -1.249   0.292  0.00  0.00    -0.021 A 
ATOM      4  C   LIG A   1       1.939  -2.442  -0.361  0.00  0.00    +0.057 A 
ATOM      5  C   LIG A   1       2.513  -3.612   0.093  0.00  0.00    +0.167 A 
ATOM      6  O   LIG A   1       2.299  -4.854  -0.420  0.00  0.00    -0.453 OA
ATOM      7  C   LIG A   1       3.142  -5.653   0.437  0.00  0.00    +0.466 C 
ATOM      8  O   LIG A   1       3.843  -4.880   1.432  0.00  0.00    -0.453 OA
ATOM      9  C   LIG A   1       3.392  -3.628   1.149  0.00  0.00    +0.166 A 
ATOM     10  C   LIG A   1       3.746  -2.475   1.815  0.00  0.00    +0.050 A 
ATOM     11  C   LIG A   1       3.179  -1.272   1.380  0.00  0.00    +0.012 A 
ENDBRANCH   2   3
BRANCH   1  13
ATOM     12  O   LIG A   1       0.513   2.448  -0.987  0.00  0.00    -0.271 OA
ATOM     13  C   LIG A   1      -0.022   1.768  -0.124  0.00  0.00    +0.237 C 
ATOM     14  N   LIG A   1      -1.218   2.072   0.481  0.00  0.00    -0.312 N 
ATOM     15  H   LIG A   1      -1.610   1.434   1.159  0.00  0.00    +0.149 HD
BRANCH  14  16
ATOM     16  C   LIG A   1      -2.041   3.197   0.067  0.00  0.00    +0.107 C 
BRANCH  16  17
ATOM     17  C   LIG A   1      -3.022   2.818  -1.056  0.00  0.00    +0.000 C 
ATOM     18  C   LIG A   1      -4.006   1.731  -0.616  0.00  0.00    +0.009 C 
ATOM     19  C   LIG A   1      -3.798   4.048  -1.536  0.00  0.00    +0.009 C 
ENDBRANCH  16  17
ENDBRANCH  14  16
ENDBRANCH   1  13
TORSDOF 4
