@<TRIPOS>MOLECULE
NuBBE_869
 34 35 0 0 0
SMALL
GASTEIGER

@<TRIPOS>ATOM
      1 O          -1.9376   -1.1602   -1.4837 O.2     2  LEU2       -0.2735
      2 C          -1.3212   -0.7574   -0.5004 C.2     2  LEU2        0.2366
      3 N          -0.6402   -1.5971    0.3544 N.am    1  HYP1       -0.2859
      4 CA         -0.3734   -1.2163    1.7253 C.3     1  HYP1        0.1047
      5 HA         -1.3230   -1.2824    2.2744 H       1  HYP1        0.0597
      6 CB          0.5915   -2.2939    2.1946 C.3     1  HYP1        0.0018
      7 CG          0.0084   -3.5461    1.5326 C.3     1  HYP1        0.0731
      8 HG          0.7473   -4.3381    1.3800 H       1  HYP1        0.0610
      9 CD         -0.5803   -3.0402    0.2030 C.3     1  HYP1        0.0416
     10 OD         -1.0326   -4.0654    2.3602 O.3     1  HYP1       -0.3902
     11 CA         -0.9451    0.7394   -0.3147 C.3     2  LEU2        0.0999
     12 HA         -1.8380    1.3258   -0.5539 H       2  LEU2        0.0595
     13 N          -0.5695    1.1036    1.0553 N.am    2  LEU2       -0.3025
     14 C           0.1174    0.2197    1.8629 C.2     1  HYP1        0.2342
     15 O           0.8393    0.6199    2.7688 O.2     1  HYP1       -0.2738
     16 CB          0.2020    1.0380   -1.3025 C.3     2  LEU2       -0.0236
     17 CG          0.6848    2.5016   -1.3509 C.3     2  LEU2       -0.0446
     18 CD1         1.8169    2.6326   -2.3747 C.3     2  LEU2       -0.0626
     19 CD2        -0.4380    3.4800   -1.6943 C.3     2  LEU2       -0.0626
     20 HB1         0.6316   -2.3561    3.2863 H       1  HYP1        0.0313
     21 HB2         1.6013   -2.0983    1.8139 H       1  HYP1        0.0313
     22 HD1        -1.5788   -3.4375   -0.0053 H       1  HYP1        0.0490
     23 HD2         0.0835   -3.2488   -0.6417 H       1  HYP1        0.0490
     24 HD         -0.6183   -4.4200    3.1665 H       1  HYP1        0.2098
     25 H          -0.3279    2.0715    1.2279 H       2  LEU2        0.1495
     26 HB1         1.0612    0.3980   -1.0569 H       2  LEU2        0.0290
     27 HB2        -0.1144    0.7368   -2.3106 H       2  LEU2        0.0290
     28 HG          1.0961    2.7769   -0.3726 H       2  LEU2        0.0296
     29 HD11        1.4704    2.3872   -3.3848 H       2  LEU2        0.0232
     30 HD12        2.6454    1.9596   -2.1282 H       2  LEU2        0.0232
     31 HD13        2.2113    3.6542   -2.3909 H       2  LEU2        0.0232
     32 HD21       -0.9294    3.2071   -2.6332 H       2  LEU2        0.0232
     33 HD22       -0.0453    4.4975   -1.8012 H       2  LEU2        0.0232
     34 HD23       -1.1954    3.5084   -0.9056 H       2  LEU2        0.0232
@<TRIPOS>BOND
     1     2     3   am
     2     3     4    1
     3     4     6    1
     4     6     7    1
     5     7     9    1
     6     3     9    1
     7     2    11    1
     8    11    13    1
     9    13    14   am
    10     4    14    1
    11    16    17    1
    12    17    18    1
    13    17    19    1
    14     1     2    2
    15     4     5    1
    16    11    12    1
    17    11    16    1
    18    14    15    2
    19     7    10    1
    20     7     8    1
    21     6    20    1
    22     6    21    1
    23     9    22    1
    24     9    23    1
    25    10    24    1
    26    13    25    1
    27    16    26    1
    28    16    27    1
    29    17    28    1
    30    18    29    1
    31    18    30    1
    32    18    31    1
    33    19    32    1
    34    19    33    1
    35    19    34    1
