@<TRIPOS>MOLECULE
NuBBE_2392
 57 58 0 0 0
SMALL
GASTEIGER

@<TRIPOS>ATOM
      1 C          -0.7520    1.0639   -0.9204 C.3     1  LIG1       -0.0589
      2 C           0.0944    0.8983    0.3522 C.3     1  LIG1       -0.0233
      3 C          -0.6255    1.4365    1.6470 C.3     1  LIG1       -0.0300
      4 H           0.0986    1.2568    2.4606 H       1  LIG1        0.0311
      5 C          -1.8411    0.5684    1.9878 C.3     1  LIG1       -0.0466
      6 C          -1.3468   -0.8098    2.4057 C.3     1  LIG1       -0.0237
      7 C          -0.5947   -1.5329    1.2790 C.3     1  LIG1        0.0666
      8 C           0.4819   -0.6488    0.5466 C.3     1  LIG1       -0.0064
      9 H           1.3200   -0.6059    1.2615 H       1  LIG1        0.0334
     10 C           1.1131   -1.3462   -0.7253 C.3     1  LIG1       -0.0434
     11 C           0.1963   -1.9038   -1.8376 C.3     1  LIG1       -0.0311
     12 C           0.9665   -2.4962   -3.0125 C.2     1  LIG1       -0.0659
     13 C           1.2003   -3.8242   -3.0711 C.2     1  LIG1        0.0213
     14 C           1.8416   -4.5151   -4.2093 C.2     1  LIG1        0.3295
     15 O           1.9244   -4.0802   -5.3574 O.2     1  LIG1       -0.2458
     16 O           2.3268   -5.7147   -3.8429 O.3     1  LIG1       -0.4775
     17 C           1.3606   -1.5358   -4.1050 C.3     1  LIG1       -0.0433
     18 C           0.0655   -2.7858    1.8894 C.3     1  LIG1       -0.0358
     19 O          -1.5923   -1.9629    0.3544 O.3     1  LIG1       -0.3886
     20 C          -0.8864    2.9872    1.7338 C.3     1  LIG1       -0.0315
     21 C          -1.9814    3.5281    0.7918 C.3     1  LIG1       -0.0595
     22 C          -1.3392    3.3661    3.1707 C.3     1  LIG1       -0.0595
     23 C           0.4518    3.7200    1.4723 C.3     1  LIG1       -0.0476
     24 C           1.1764    3.2528    0.2128 C.3     1  LIG1       -0.0521
     25 C           1.3996    1.7390    0.1887 C.3     1  LIG1       -0.0470
     26 H          -1.6188    0.3989   -0.9280 H       1  LIG1        0.0235
     27 H          -0.1508    0.8686   -1.8135 H       1  LIG1        0.0235
     28 H          -1.1227    2.0721   -1.0694 H       1  LIG1        0.0235
     29 H          -2.5359    0.4939    1.1451 H       1  LIG1        0.0269
     30 H          -2.4131    0.9793    2.8236 H       1  LIG1        0.0269
     31 H          -2.2183   -1.4013    2.7165 H       1  LIG1        0.0293
     32 H          -0.7061   -0.7079    3.2914 H       1  LIG1        0.0293
     33 H           1.7117   -2.1928   -0.3614 H       1  LIG1        0.0272
     34 H           1.8437   -0.6668   -1.1771 H       1  LIG1        0.0272
     35 H          -0.4879   -1.1499   -2.2321 H       1  LIG1        0.0310
     36 H          -0.4449   -2.6963   -1.4419 H       1  LIG1        0.0310
     37 H           0.8808   -4.4503   -2.2455 H       1  LIG1        0.0688
     38 H           2.2708   -5.9266   -2.9074 H       1  LIG1        0.2954
     39 H           1.0403   -0.5136   -3.8806 H       1  LIG1        0.0274
     40 H           0.8931   -1.8084   -5.0576 H       1  LIG1        0.0274
     41 H           2.4483   -1.5203   -4.2252 H       1  LIG1        0.0274
     42 H           0.8677   -2.5140    2.5859 H       1  LIG1        0.0257
     43 H           0.4776   -3.4456    1.1206 H       1  LIG1        0.0257
     44 H          -0.6671   -3.3839    2.4445 H       1  LIG1        0.0257
     45 H          -2.1367   -2.6427    0.7889 H       1  LIG1        0.2102
     46 H          -2.8128    2.8256    0.6838 H       1  LIG1        0.0235
     47 H          -1.6032    3.7789   -0.2014 H       1  LIG1        0.0235
     48 H          -2.4024    4.4662    1.1743 H       1  LIG1        0.0235
     49 H          -2.3659    3.0422    3.3728 H       1  LIG1        0.0235
     50 H          -1.3198    4.4532    3.3148 H       1  LIG1        0.0235
     51 H          -0.6869    2.9224    3.9301 H       1  LIG1        0.0235
     52 H           1.1230    3.5642    2.3284 H       1  LIG1        0.0271
     53 H           0.2856    4.8033    1.4118 H       1  LIG1        0.0271
     54 H           2.1509    3.7547    0.1641 H       1  LIG1        0.0266
     55 H           0.6295    3.5689   -0.6810 H       1  LIG1        0.0266
     56 H           2.0992    1.4892    0.9982 H       1  LIG1        0.0271
     57 H           1.9123    1.4841   -0.7455 H       1  LIG1        0.0271
@<TRIPOS>BOND
     1     1     2    1
     2     2     3    1
     3     3     4    1
     4     3     5    1
     5     5     6    1
     6     6     7    1
     7     7     8    1
     8     8     9    1
     9     2     8    1
    10     8    10    1
    11    10    11    1
    12    11    12    1
    13    12    13    2
    14    13    14    1
    15    14    15    2
    16    14    16    1
    17    12    17    1
    18     7    18    1
    19     7    19    1
    20     3    20    1
    21    20    21    1
    22    20    22    1
    23    20    23    1
    24    23    24    1
    25    24    25    1
    26     2    25    1
    27     1    26    1
    28     1    27    1
    29     1    28    1
    30     5    29    1
    31     5    30    1
    32     6    31    1
    33     6    32    1
    34    10    33    1
    35    10    34    1
    36    11    35    1
    37    11    36    1
    38    13    37    1
    39    16    38    1
    40    17    39    1
    41    17    40    1
    42    17    41    1
    43    18    42    1
    44    18    43    1
    45    18    44    1
    46    19    45    1
    47    21    46    1
    48    21    47    1
    49    21    48    1
    50    22    49    1
    51    22    50    1
    52    22    51    1
    53    23    52    1
    54    23    53    1
    55    24    54    1
    56    24    55    1
    57    25    56    1
    58    25    57    1
