REMARK  Name = NuBBE_2451
REMARK  3 active torsions:
REMARK  status: ('A' for Active; 'I' for Inactive)
REMARK    1  A    between atoms: C_6  and  C_9
REMARK    2  A    between atoms: C_7  and  O_8
REMARK    3  A    between atoms: C_16  and  O_19
REMARK                            x       y       z     vdW  Elec       q    Type
REMARK                         _______ _______ _______ _____ _____    ______ ____
ROOT
ATOM      1  O   LIG A   1      -3.457  -0.761  -0.436  0.00  0.00    -0.283 OA
ATOM      2  C   LIG A   1      -2.244  -0.694  -0.265  0.00  0.00    +0.234 A 
ATOM      3  C   LIG A   1      -1.395  -1.872  -0.063  0.00  0.00    +0.068 A 
ATOM      4  C   LIG A   1      -0.027  -1.682   0.112  0.00  0.00    +0.143 A 
ATOM      5  O   LIG A   1       0.561  -0.443   0.101  0.00  0.00    -0.451 OA
ATOM      6  C   LIG A   1      -0.241   0.679  -0.074  0.00  0.00    +0.181 A 
ATOM      7  C   LIG A   1      -1.573   0.629  -0.258  0.00  0.00    +0.208 A 
ATOM      8  C   LIG A   1       0.812  -2.780   0.308  0.00  0.00    +0.092 A 
ATOM      9  C   LIG A   1       0.262  -4.059   0.325  0.00  0.00    +0.120 A 
ATOM     10  C   LIG A   1      -1.105  -4.256   0.149  0.00  0.00    +0.046 A 
ATOM     11  C   LIG A   1      -1.943  -3.157  -0.046  0.00  0.00    +0.019 A 
ENDROOT
BRANCH   6  12
ATOM     12  C   LIG A   1       0.529   1.942  -0.061  0.00  0.00    +0.021 A 
ATOM     13  C   LIG A   1       1.719   2.041  -0.798  0.00  0.00    +0.012 A 
ATOM     14  C   LIG A   1       2.476   3.216  -0.780  0.00  0.00    +0.001 A 
ATOM     15  C   LIG A   1       2.057   4.304  -0.018  0.00  0.00    +0.000 A 
ATOM     16  C   LIG A   1       0.882   4.218   0.726  0.00  0.00    +0.001 A 
ATOM     17  C   LIG A   1       0.125   3.043   0.707  0.00  0.00    +0.012 A 
ENDBRANCH   6  12
BRANCH   7  18
ATOM     18  O   LIG A   1      -2.377   1.736  -0.461  0.00  0.00    -0.501 OA
ATOM     19  H   LIG A   1      -3.279   1.373  -0.588  0.00  0.00    +0.292 HD
ENDBRANCH   7  18
BRANCH   9  20
ATOM     20  O   LIG A   1       1.039  -5.164   0.513  0.00  0.00    -0.507 OA
ATOM     21  H   LIG A   1       1.963  -4.887   0.629  0.00  0.00    +0.292 HD
ENDBRANCH   9  20
TORSDOF 3
