REMARK  Name = NuBBE_934
REMARK  3 active torsions:
REMARK  status: ('A' for Active; 'I' for Inactive)
REMARK    1  A    between atoms: C_1  and  N_2
REMARK    2  A    between atoms: C_5  and  O_9
REMARK    3  A    between atoms: O_9  and  C_10
REMARK                            x       y       z     vdW  Elec       q    Type
REMARK                         _______ _______ _______ _____ _____    ______ ____
ROOT
ATOM      1  C   LIG A   1      -3.059   0.708  -0.185  0.00  0.00    +0.152 C 
ATOM      2  N   LIG A   1      -1.609   0.681  -0.074  0.00  0.00    -0.311 N 
ATOM      3  C   LIG A   1      -0.911  -0.565  -0.117  0.00  0.00    +0.055 A 
ATOM      4  C   LIG A   1       0.492  -0.574  -0.009  0.00  0.00    +0.040 A 
ATOM      5  C   LIG A   1       1.224   0.698   0.149  0.00  0.00    +0.134 A 
ATOM      6  C   LIG A   1       0.532   1.844   0.184  0.00  0.00    +0.116 A 
ATOM      7  C   LIG A   1      -0.942   1.887   0.071  0.00  0.00    +0.255 A 
ATOM      8  O   LIG A   1      -1.489   2.988   0.113  0.00  0.00    -0.268 OA
ATOM      9  C   LIG A   1       1.178  -1.802  -0.052  0.00  0.00    +0.013 A 
ATOM     10  C   LIG A   1       0.488  -3.005  -0.200  0.00  0.00    +0.001 A 
ATOM     11  C   LIG A   1      -0.896  -2.996  -0.307  0.00  0.00    +0.002 A 
ATOM     12  C   LIG A   1      -1.592  -1.786  -0.266  0.00  0.00    +0.026 A 
ENDROOT
BRANCH   5  13
ATOM     13  O   LIG A   1       2.594   0.572   0.248  0.00  0.00    -0.494 OA
ATOM     14  C   LIG A   1       3.363   1.758   0.409  0.00  0.00    +0.277 C 
ENDBRANCH   5  13
TORSDOF 1
