@<TRIPOS>MOLECULE
NuBBE_2458
 68 70 0 0 0
SMALL
GASTEIGER

@<TRIPOS>ATOM
      1 C          -1.6945   -2.5302   -4.9138 C.3     1  LIG1        0.0790
      2 O          -0.6575   -3.1224   -4.1211 O.3     1  LIG1       -0.4914
      3 C          -0.1018   -2.3160   -3.1563 C.ar    1  LIG1        0.1618
      4 C           0.4186   -2.8831   -1.9796 C.ar    1  LIG1        0.1618
      5 O           0.3630   -4.2481   -1.8036 O.3     1  LIG1       -0.4914
      6 C           0.3207   -4.6702   -0.4349 C.3     1  LIG1        0.0790
      7 C           0.9966   -2.0421   -1.0119 C.ar    1  LIG1       -0.0123
      8 C           1.0030   -0.6445   -1.1383 C.ar    1  LIG1       -0.0327
      9 C           1.5896    0.2262   -0.0254 C.3     1  LIG1        0.0160
     10 H           2.6593   -0.0327   -0.0660 H       1  LIG1        0.0401
     11 C           1.1807   -0.1283    1.4094 C.ar    1  LIG1       -0.0359
     12 C           2.0592    0.1197    2.4790 C.ar    1  LIG1       -0.0543
     13 C           1.7175   -0.2449    3.7857 C.ar    1  LIG1       -0.0153
     14 C           0.4994   -0.8832    4.0294 C.ar    1  LIG1        0.1730
     15 O           0.1905   -1.1410    5.3784 O.3     1  LIG1       -0.4223
     16 C          -0.5446   -2.2967    5.6161 C.2     1  LIG1        0.3093
     17 C          -1.7480   -1.9412    6.4415 C.3     1  LIG1        0.0336
     18 O          -0.2516   -3.4249    5.2444 O.2     1  LIG1       -0.2507
     19 C          -0.4139   -1.0998    2.9866 C.ar    1  LIG1        0.1625
     20 O          -1.6204   -1.6696    3.2940 O.3     1  LIG1       -0.4914
     21 C          -2.4577   -2.0357    2.2029 C.3     1  LIG1        0.0790
     22 C          -0.0661   -0.6976    1.6953 C.ar    1  LIG1       -0.0125
     23 C           1.4415    1.7641   -0.2612 C.3     1  LIG1        0.0103
     24 H           1.1894    2.2735    0.6795 H       1  LIG1        0.0346
     25 C           2.8268    2.3028   -0.6756 C.3     1  LIG1        0.0965
     26 O           2.7523    3.7162   -0.9046 O.3     1  LIG1       -0.4645
     27 C           3.5356    4.5028   -0.1240 C.2     1  LIG1        0.3040
     28 C           3.3495    5.9443   -0.4846 C.3     1  LIG1        0.0332
     29 O           4.2776    4.1141    0.7685 O.2     1  LIG1       -0.2512
     30 C           0.3387    2.1612   -1.2863 C.3     1  LIG1        0.0041
     31 H           0.4463    3.2200   -1.5536 H       1  LIG1        0.0341
     32 C          -1.0803    2.0252   -0.6941 C.3     1  LIG1        0.0959
     33 O          -2.0938    2.3698   -1.6573 O.3     1  LIG1       -0.4645
     34 C          -3.0424    1.4379   -1.9090 C.2     1  LIG1        0.3040
     35 C          -4.1202    1.9640   -2.7961 C.3     1  LIG1        0.0332
     36 O          -3.0387    0.2788   -1.4595 O.2     1  LIG1       -0.2512
     37 C           0.5255    1.3769   -2.5816 C.3     1  LIG1       -0.0210
     38 C           0.5067   -0.0988   -2.3232 C.ar    1  LIG1       -0.0395
     39 C          -0.0010   -0.9334   -3.3251 C.ar    1  LIG1       -0.0128
     40 H          -1.8885   -3.1781   -5.7742 H       1  LIG1        0.0660
     41 H          -1.4365   -1.5583   -5.3449 H       1  LIG1        0.0660
     42 H          -2.6163   -2.4413   -4.3294 H       1  LIG1        0.0660
     43 H           0.1621   -5.7515   -0.4001 H       1  LIG1        0.0660
     44 H          -0.5117   -4.1871    0.0897 H       1  LIG1        0.0660
     45 H           1.2669   -4.4804    0.0858 H       1  LIG1        0.0660
     46 H           1.4387   -2.4610   -0.1136 H       1  LIG1        0.0658
     47 H           3.0182    0.6047    2.3035 H       1  LIG1        0.0622
     48 H           2.3994   -0.0282    4.6046 H       1  LIG1        0.0656
     49 H          -1.4803   -1.8798    7.4969 H       1  LIG1        0.0342
     50 H          -2.5258   -2.6949    6.2905 H       1  LIG1        0.0342
     51 H          -2.1561   -0.9839    6.0996 H       1  LIG1        0.0342
     52 H          -3.1877   -2.7651    2.5624 H       1  LIG1        0.0660
     53 H          -1.9058   -2.5194    1.3897 H       1  LIG1        0.0660
     54 H          -2.9922   -1.1500    1.8472 H       1  LIG1        0.0660
     55 H          -0.7632   -0.8364    0.8767 H       1  LIG1        0.0658
     56 H           3.5649    2.0460    0.0931 H       1  LIG1        0.0700
     57 H           3.1703    1.8391   -1.6060 H       1  LIG1        0.0700
     58 H           2.8056    6.0419   -1.4290 H       1  LIG1        0.0342
     59 H           4.3295    6.4111   -0.6110 H       1  LIG1        0.0342
     60 H           2.7840    6.4440    0.3050 H       1  LIG1        0.0342
     61 H          -1.2500    1.0340   -0.2702 H       1  LIG1        0.0700
     62 H          -1.1847    2.7369    0.1323 H       1  LIG1        0.0700
     63 H          -4.5349    2.8790   -2.3767 H       1  LIG1        0.0342
     64 H          -4.9379    1.2218   -2.8410 H       1  LIG1        0.0342
     65 H          -3.7423    2.1191   -3.8025 H       1  LIG1        0.0342
     66 H           1.4839    1.6239   -3.0534 H       1  LIG1        0.0317
     67 H          -0.2497    1.6536   -3.3058 H       1  LIG1        0.0317
     68 H          -0.3154   -0.4530   -4.2433 H       1  LIG1        0.0658
@<TRIPOS>BOND
     1     1     2    1
     2     2     3    1
     3     3     4   ar
     4     4     5    1
     5     5     6    1
     6     4     7   ar
     7     7     8   ar
     8     8     9    1
     9     9    10    1
    10     9    11    1
    11    11    12   ar
    12    12    13   ar
    13    13    14   ar
    14    14    15    1
    15    15    16    1
    16    16    17    1
    17    16    18    2
    18    14    19   ar
    19    19    20    1
    20    20    21    1
    21    19    22   ar
    22    11    22   ar
    23     9    23    1
    24    25    26    1
    25    26    27    1
    26    27    28    1
    27    27    29    2
    28    23    30    1
    29    32    33    1
    30    33    34    1
    31    34    35    1
    32    34    36    2
    33    30    37    1
    34     8    38   ar
    35    37    38    1
    36    38    39   ar
    37     3    39   ar
    38    23    25    1
    39    23    24    1
    40    30    32    1
    41    30    31    1
    42     1    40    1
    43     1    41    1
    44     1    42    1
    45     6    43    1
    46     6    44    1
    47     6    45    1
    48     7    46    1
    49    12    47    1
    50    13    48    1
    51    17    49    1
    52    17    50    1
    53    17    51    1
    54    21    52    1
    55    21    53    1
    56    21    54    1
    57    22    55    1
    58    25    56    1
    59    25    57    1
    60    28    58    1
    61    28    59    1
    62    28    60    1
    63    32    61    1
    64    32    62    1
    65    35    63    1
    66    35    64    1
    67    35    65    1
    68    37    66    1
    69    37    67    1
    70    39    68    1
