@<TRIPOS>MOLECULE
NuBBE_1520
 106 112 0 0 0
SMALL
GASTEIGER

@<TRIPOS>ATOM
      1 C          -1.4504    0.4884   -0.7257 C.3     1  LIG1       -0.0564
      2 C          -0.3441    0.3054    0.3637 C.3     1  LIG1        0.0034
      3 C           0.0193    1.6986    0.8874 C.3     1  LIG1       -0.0148
      4 C           0.8009    2.5553   -0.0654 C.3     1  LIG1       -0.0192
      5 C           1.4075    2.1513    1.2725 C.3     1  LIG1       -0.0398
      6 C          -0.0469    3.8138   -0.2937 C.3     1  LIG1       -0.0273
      7 H          -0.6034    3.6386   -1.2273 H       1  LIG1        0.0311
      8 C          -1.1304    3.8217    0.7998 C.3     1  LIG1       -0.0487
      9 C          -1.0857    2.4944    1.5424 C.3     1  LIG1       -0.0460
     10 C           0.7693    5.0949   -0.5449 C.3     1  LIG1        0.0159
     11 H           1.3200    4.8894   -1.4771 H       1  LIG1        0.0353
     12 C           0.0255    6.4149   -0.7970 C.3     1  LIG1        0.1623
     13 H           0.0229    6.6410   -1.8707 H       1  LIG1        0.0912
     14 O          -1.3088    6.4190   -0.3103 O.3     1  LIG1       -0.3542
     15 C          -2.0296    7.5794   -0.7198 C.3     1  LIG1        0.0394
     16 O           0.7647    7.4491   -0.1381 O.3     1  LIG1       -0.3452
     17 C           1.5954    6.8964    0.8854 C.3     1  LIG1        0.0906
     18 H           2.5528    7.4238    0.8390 H       1  LIG1        0.0624
     19 C           1.8389    5.4529    0.4756 C.3     1  LIG1       -0.0163
     20 C           1.0075    7.1257    2.3083 C.3     1  LIG1        0.1094
     21 H           1.6628    6.6336    3.0410 H       1  LIG1        0.0648
     22 C           0.8426    8.6219    2.7286 C.3     1  LIG1        0.0887
     23 C           2.1656    9.3829    2.6802 C.3     1  LIG1       -0.0338
     24 C          -0.2061    9.3884    1.9199 C.3     1  LIG1       -0.0338
     25 O           0.3881    8.6610    4.0969 O.3     1  LIG1       -0.3865
     26 O          -0.2700    6.4984    2.4667 O.3     1  LIG1       -0.3864
     27 C           1.3778    1.9152   -1.3112 C.3     1  LIG1       -0.0463
     28 C           1.8238    0.4575   -1.1274 C.3     1  LIG1       -0.0486
     29 C           0.9343   -0.4274   -0.1941 C.3     1  LIG1       -0.0271
     30 H           1.5906   -0.5878    0.6734 H       1  LIG1        0.0312
     31 C           0.6452   -1.8892   -0.7196 C.3     1  LIG1       -0.0250
     32 C          -0.0322   -1.8240   -2.1125 C.3     1  LIG1       -0.0590
     33 C          -0.1432   -2.6934    0.3919 C.3     1  LIG1       -0.0245
     34 H           0.5930   -2.8388    1.2011 H       1  LIG1        0.0313
     35 C          -1.2869   -1.9384    1.1008 C.3     1  LIG1       -0.0224
     36 C          -0.9369   -0.5259    1.5314 C.3     1  LIG1        0.0617
     37 H          -1.8601   -0.0683    1.9007 H       1  LIG1        0.0599
     38 O          -0.0725   -0.5796    2.6712 O.3     1  LIG1       -0.3912
     39 C          -0.5588   -4.1445   -0.0275 C.3     1  LIG1        0.0056
     40 C          -1.6892   -4.1814   -1.0871 C.3     1  LIG1       -0.0562
     41 C          -1.1536   -4.8671    1.2168 C.3     1  LIG1       -0.0562
     42 C           0.7198   -4.9284   -0.4782 C.3     1  LIG1        0.1088
     43 H           1.2489   -5.2893    0.4149 H       1  LIG1        0.0739
     44 C           1.7657   -4.1384   -1.2932 C.3     1  LIG1       -0.0146
     45 C           1.9801   -2.6757   -0.8824 C.3     1  LIG1       -0.0437
     46 O           0.3372   -6.0494   -1.3066 O.3     1  LIG1       -0.4573
     47 C           0.0836   -7.2436   -0.7250 C.2     1  LIG1        0.3413
     48 O           0.2619   -7.5080    0.4722 O.2     1  LIG1       -0.2449
     49 C          -0.4399   -8.2165   -1.7232 C.ar    1  LIG1        0.0797
     50 C          -0.8176   -9.5258   -1.3335 C.ar    1  LIG1        0.0410
     51 N          -0.8639   -9.9142    0.0203 N.pl3   1  LIG1       -0.3463
     52 C          -0.5783  -11.2964    0.3658 C.3     1  LIG1       -0.0024
     53 C          -1.2861  -10.3926   -2.3379 C.ar    1  LIG1       -0.0401
     54 C          -1.3391  -10.0059   -3.6809 C.ar    1  LIG1       -0.0600
     55 C          -0.9530   -8.7262   -4.0527 C.ar    1  LIG1       -0.0609
     56 C          -0.5135   -7.8330   -3.0804 C.ar    1  LIG1       -0.0460
     57 H          -1.0422    0.7930   -1.6904 H       1  LIG1        0.0236
     58 H          -2.1863    1.2501   -0.4552 H       1  LIG1        0.0236
     59 H          -2.0407   -0.4097   -0.8999 H       1  LIG1        0.0236
     60 H           1.4847    2.8545    2.0949 H       1  LIG1        0.0277
     61 H           2.2187    1.4348    1.3126 H       1  LIG1        0.0277
     62 H          -2.1198    3.9466    0.3412 H       1  LIG1        0.0268
     63 H          -1.0201    4.6184    1.5210 H       1  LIG1        0.0268
     64 H          -2.0696    2.0199    1.5102 H       1  LIG1        0.0271
     65 H          -0.8625    2.6506    2.6053 H       1  LIG1        0.0271
     66 H          -2.9179    7.6641   -0.0882 H       1  LIG1        0.0525
     67 H          -2.3469    7.4957   -1.7638 H       1  LIG1        0.0525
     68 H          -1.4364    8.4886   -0.5938 H       1  LIG1        0.0525
     69 H           1.9471    4.7751    1.3183 H       1  LIG1        0.0295
     70 H           2.8040    5.4231   -0.0540 H       1  LIG1        0.0295
     71 H           2.5235    9.5001    1.6534 H       1  LIG1        0.0258
     72 H           2.9370    8.8749    3.2684 H       1  LIG1        0.0258
     73 H           2.0519   10.3840    3.1119 H       1  LIG1        0.0258
     74 H           0.0775    9.4834    0.8707 H       1  LIG1        0.0258
     75 H          -0.3261   10.4039    2.3135 H       1  LIG1        0.0258
     76 H          -1.1923    8.9171    1.9877 H       1  LIG1        0.0258
     77 H          -0.4301    8.1264    4.1225 H       1  LIG1        0.2102
     78 H          -0.7479    6.6161    1.6203 H       1  LIG1        0.2100
     79 H           0.6430    1.9552   -2.1226 H       1  LIG1        0.0271
     80 H           2.2304    2.5102   -1.6589 H       1  LIG1        0.0271
     81 H           2.8348    0.4731   -0.6939 H       1  LIG1        0.0268
     82 H           1.9780    0.0136   -2.1148 H       1  LIG1        0.0268
     83 H           0.3015   -0.9704   -2.7077 H       1  LIG1        0.0235
     84 H          -1.1164   -1.7575   -2.0541 H       1  LIG1        0.0235
     85 H           0.1891   -2.6882   -2.7411 H       1  LIG1        0.0235
     86 H          -1.5559   -2.4742    2.0181 H       1  LIG1        0.0293
     87 H          -2.1873   -1.9198    0.4857 H       1  LIG1        0.0293
     88 H           0.7701   -0.9879    2.4220 H       1  LIG1        0.2098
     89 H          -1.3280   -4.0359   -2.1056 H       1  LIG1        0.0236
     90 H          -2.4602   -3.4291   -0.8948 H       1  LIG1        0.0236
     91 H          -2.2083   -5.1463   -1.0869 H       1  LIG1        0.0236
     92 H          -0.4520   -4.8459    2.0581 H       1  LIG1        0.0236
     93 H          -1.4046   -5.9077    1.0088 H       1  LIG1        0.0236
     94 H          -2.0966   -4.4168    1.5422 H       1  LIG1        0.0236
     95 H           1.5403   -4.2003   -2.3643 H       1  LIG1        0.0301
     96 H           2.7292   -4.6608   -1.2051 H       1  LIG1        0.0301
     97 H           2.6331   -2.1927   -1.6197 H       1  LIG1        0.0272
     98 H           2.5392   -2.6590    0.0637 H       1  LIG1        0.0272
     99 H          -0.3482   -9.2498    0.6120 H       1  LIG1        0.1458
    100 H          -1.3851  -11.9655    0.0513 H       1  LIG1        0.0425
    101 H          -0.4955  -11.3847    1.4540 H       1  LIG1        0.0425
    102 H           0.3691  -11.6312   -0.0698 H       1  LIG1        0.0425
    103 H          -1.6413  -11.3884   -2.0871 H       1  LIG1        0.0636
    104 H          -1.6998  -10.7043   -4.4311 H       1  LIG1        0.0618
    105 H          -1.0000   -8.4178   -5.0937 H       1  LIG1        0.0618
    106 H          -0.2293   -6.8324   -3.3960 H       1  LIG1        0.0626
@<TRIPOS>BOND
     1     2     3    1
     2     3     4    1
     3     4     5    1
     4     3     5    1
     5     4     6    1
     6     6     8    1
     7     8     9    1
     8     3     9    1
     9    10    11    1
    10    10    12    1
    11    12    13    1
    12    12    14    1
    13    14    15    1
    14    12    16    1
    15    16    17    1
    16    17    19    1
    17    10    19    1
    18    20    21    1
    19    20    22    1
    20    22    23    1
    21    22    24    1
    22    22    25    1
    23    20    26    1
    24     4    27    1
    25    27    28    1
    26    28    29    1
    27     2    29    1
    28    29    31    1
    29    31    33    1
    30    33    35    1
    31    35    36    1
    32     2    36    1
    33    33    39    1
    34    39    42    1
    35    42    44    1
    36    44    45    1
    37    31    45    1
    38    46    47    1
    39    47    48    2
    40    47    49    1
    41    49    50   ar
    42    50    51    1
    43    51    52    1
    44    50    53   ar
    45    53    54   ar
    46    54    55   ar
    47    55    56   ar
    48    49    56   ar
    49     1     2    1
    50    29    30    1
    51    31    32    1
    52    33    34    1
    53    39    40    1
    54    39    41    1
    55     6    10    1
    56     6     7    1
    57    17    20    1
    58    17    18    1
    59    36    38    1
    60    36    37    1
    61    42    46    1
    62    42    43    1
    63     1    57    1
    64     1    58    1
    65     1    59    1
    66     5    60    1
    67     5    61    1
    68     8    62    1
    69     8    63    1
    70     9    64    1
    71     9    65    1
    72    15    66    1
    73    15    67    1
    74    15    68    1
    75    19    69    1
    76    19    70    1
    77    23    71    1
    78    23    72    1
    79    23    73    1
    80    24    74    1
    81    24    75    1
    82    24    76    1
    83    25    77    1
    84    26    78    1
    85    27    79    1
    86    27    80    1
    87    28    81    1
    88    28    82    1
    89    32    83    1
    90    32    84    1
    91    32    85    1
    92    35    86    1
    93    35    87    1
    94    38    88    1
    95    40    89    1
    96    40    90    1
    97    40    91    1
    98    41    92    1
    99    41    93    1
   100    41    94    1
   101    44    95    1
   102    44    96    1
   103    45    97    1
   104    45    98    1
   105    51    99    1
   106    52   100    1
   107    52   101    1
   108    52   102    1
   109    53   103    1
   110    54   104    1
   111    55   105    1
   112    56   106    1
