@<TRIPOS>MOLECULE
NuBBE_955
 47 49 0 0 0
SMALL
GASTEIGER

@<TRIPOS>ATOM
      1 O          -2.5987   -2.5295   -0.1180 O.2     1  LIG1       -0.2864
      2 C          -1.3778   -2.4609   -0.2907 C.ar    1  LIG1        0.2008
      3 C          -0.7216   -1.1401   -0.3618 C.ar    1  LIG1        0.0912
      4 C           0.6842   -1.0816   -0.4041 C.ar    1  LIG1        0.1025
      5 N           1.4435   -2.3000   -0.3820 N.ar    1  LIG1       -0.3369
      6 C           0.8084   -3.5672   -0.5556 C.ar    1  LIG1        0.0950
      7 C           1.5300   -4.7403   -0.8259 C.ar    1  LIG1        0.1409
      8 C           0.9118   -5.9887   -0.8909 C.ar    1  LIG1       -0.0181
      9 C          -0.4685   -6.0858   -0.7265 C.ar    1  LIG1       -0.0575
     10 C          -1.2208   -4.9319   -0.5280 C.ar    1  LIG1       -0.0487
     11 C          -0.5822   -3.6835   -0.4589 C.ar    1  LIG1        0.0495
     12 O           2.8704   -4.6900   -1.0980 O.3     1  LIG1       -0.5047
     13 C           2.3581   -2.3475    0.7877 C.3     1  LIG1        0.0126
     14 C           1.3020    0.1958   -0.4933 C.ar    1  LIG1        0.1860
     15 O           2.6721    0.1824   -0.6471 O.3     1  LIG1       -0.4895
     16 C           3.4094    1.2578   -0.0756 C.3     1  LIG1        0.0791
     17 C           0.5022    1.3599   -0.5193 C.ar    1  LIG1        0.1676
     18 C          -0.9057    1.2918   -0.5059 C.ar    1  LIG1        0.0436
     19 C          -1.7730    2.5262   -0.6681 C.3     1  LIG1       -0.0022
     20 C          -2.0655    3.2214    0.6356 C.2     1  LIG1       -0.0807
     21 C          -1.7649    4.4891    0.9834 C.2     1  LIG1       -0.0793
     22 C          -1.0497    5.4837    0.1104 C.3     1  LIG1       -0.0440
     23 C          -2.1534    5.0314    2.3360 C.3     1  LIG1       -0.0440
     24 C          -1.5012    0.0297   -0.3986 C.ar    1  LIG1        0.1368
     25 O          -2.8739   -0.0176   -0.3447 O.3     1  LIG1       -0.5056
     26 O           1.1008    2.5904   -0.5973 O.3     1  LIG1       -0.5030
     27 H           1.5025   -6.8790   -1.0903 H       1  LIG1        0.0655
     28 H          -0.9592   -7.0544   -0.7791 H       1  LIG1        0.0619
     29 H          -2.3031   -5.0006   -0.4290 H       1  LIG1        0.0625
     30 H           3.0456   -3.7664   -1.3643 H       1  LIG1        0.2922
     31 H           2.5001   -1.3790    1.2797 H       1  LIG1        0.0456
     32 H           3.3515   -2.6926    0.4836 H       1  LIG1        0.0456
     33 H           1.9789   -3.0207    1.5683 H       1  LIG1        0.0456
     34 H           4.4677    0.9771   -0.0958 H       1  LIG1        0.0660
     35 H           3.1308    1.4240    0.9706 H       1  LIG1        0.0660
     36 H           3.3302    2.1723   -0.6682 H       1  LIG1        0.0660
     37 H          -2.7258    2.2659   -1.1457 H       1  LIG1        0.0358
     38 H          -1.2961    3.1885   -1.3959 H       1  LIG1        0.0358
     39 H          -2.6203    2.6041    1.3454 H       1  LIG1        0.0575
     40 H          -0.7752    5.0907   -0.8698 H       1  LIG1        0.0274
     41 H          -0.1249    5.8077    0.5983 H       1  LIG1        0.0274
     42 H          -1.6813    6.3613   -0.0605 H       1  LIG1        0.0274
     43 H          -2.6878    4.2954    2.9456 H       1  LIG1        0.0274
     44 H          -2.8033    5.9060    2.2250 H       1  LIG1        0.0274
     45 H          -1.2576    5.3337    2.8886 H       1  LIG1        0.0274
     46 H          -3.1460   -0.9587   -0.2400 H       1  LIG1        0.2922
     47 H           0.5372    3.2299   -0.1293 H       1  LIG1        0.2923
@<TRIPOS>BOND
     1     1     2    2
     2     2     3   ar
     3     3     4   ar
     4     4     5   ar
     5     5     6   ar
     6     6     7   ar
     7     7     8   ar
     8     8     9   ar
     9     9    10   ar
    10    10    11   ar
    11     6    11   ar
    12     2    11   ar
    13     7    12    1
    14     5    13    1
    15     4    14   ar
    16    14    15    1
    17    15    16    1
    18    14    17   ar
    19    17    18   ar
    20    18    19    1
    21    19    20    1
    22    20    21    2
    23    21    22    1
    24    21    23    1
    25    18    24   ar
    26     3    24   ar
    27    24    25    1
    28    17    26    1
    29     8    27    1
    30     9    28    1
    31    10    29    1
    32    12    30    1
    33    13    31    1
    34    13    32    1
    35    13    33    1
    36    16    34    1
    37    16    35    1
    38    16    36    1
    39    19    37    1
    40    19    38    1
    41    20    39    1
    42    22    40    1
    43    22    41    1
    44    22    42    1
    45    23    43    1
    46    23    44    1
    47    23    45    1
    48    25    46    1
    49    26    47    1
