@<TRIPOS>MOLECULE
NuBBE_2000
 48 50 0 0 0
SMALL
GASTEIGER

@<TRIPOS>ATOM
      1 C          -2.8110   -1.0775   -1.6601 C.3     1  LIG1       -0.0327
      2 C          -1.3093   -0.9755   -1.7339 C.ar    1  LIG1        0.0340
      3 C          -0.6710    0.2750   -1.6760 C.ar    1  LIG1        0.1418
      4 C           0.7131    0.3619   -1.8554 C.ar    1  LIG1        0.1012
      5 C           1.3073    1.7003   -1.9657 C.2     1  LIG1        0.1740
      6 C           0.3981    2.8843   -1.8989 C.3     1  LIG1        0.0520
      7 C          -0.7472    2.5421   -0.9586 C.3     1  LIG1        0.1323
      8 H          -1.4689    3.3666   -1.0477 H       1  LIG1        0.0789
      9 C          -0.4318    2.4430    0.5366 C.ar    1  LIG1       -0.0033
     10 C          -1.4774    2.1345    1.4231 C.ar    1  LIG1       -0.0514
     11 C          -1.2595    2.0675    2.8006 C.ar    1  LIG1       -0.0161
     12 C           0.0089    2.3050    3.3210 C.ar    1  LIG1        0.1585
     13 O           0.1727    2.2759    4.6772 O.3     1  LIG1       -0.5033
     14 C           1.0803    2.5893    2.4706 C.ar    1  LIG1        0.1616
     15 O           2.3779    2.8168    2.8638 O.3     1  LIG1       -0.4914
     16 C           2.7662    2.1525    4.0674 C.3     1  LIG1        0.0790
     17 C           0.8462    2.6805    1.0867 C.ar    1  LIG1       -0.0096
     18 O          -1.4531    1.3790   -1.4417 O.3     1  LIG1       -0.4826
     19 O           2.5314    1.8190   -2.1657 O.2     1  LIG1       -0.2917
     20 C           1.4832   -0.8001   -1.9931 C.ar    1  LIG1        0.1372
     21 O           2.8510   -0.7421   -2.1158 O.3     1  LIG1       -0.5056
     22 C           0.8814   -2.0651   -2.0010 C.ar    1  LIG1        0.0337
     23 C           1.7404   -3.2904   -2.1704 C.3     1  LIG1       -0.0327
     24 C          -0.5165   -2.1408   -1.8324 C.ar    1  LIG1        0.1332
     25 O          -1.1688   -3.3519   -1.8510 O.3     1  LIG1       -0.4915
     26 C          -0.9657   -4.1175   -0.6543 C.3     1  LIG1        0.0868
     27 C          -2.1532   -3.9745    0.2814 C.3     1  LIG1       -0.0307
     28 H          -3.3009   -0.1336   -1.9182 H       1  LIG1        0.0280
     29 H          -3.1292   -1.3524   -0.6523 H       1  LIG1        0.0280
     30 H          -3.1848   -1.8199   -2.3740 H       1  LIG1        0.0280
     31 H           0.0296    3.0718   -2.9160 H       1  LIG1        0.0385
     32 H           0.9467    3.7636   -1.5591 H       1  LIG1        0.0385
     33 H          -2.4815    1.9506    1.0445 H       1  LIG1        0.0623
     34 H          -2.0900    1.8369    3.4598 H       1  LIG1        0.0655
     35 H          -0.6453    1.9810    5.1045 H       1  LIG1        0.2923
     36 H           3.8534    2.2135    4.1694 H       1  LIG1        0.0660
     37 H           2.4912    1.0913    4.0356 H       1  LIG1        0.0660
     38 H           2.3571    2.6496    4.9522 H       1  LIG1        0.0660
     39 H           1.6969    2.9288    0.4543 H       1  LIG1        0.0659
     40 H           3.1254    0.2019   -2.1228 H       1  LIG1        0.2922
     41 H           2.5658   -3.1020   -2.8659 H       1  LIG1        0.0280
     42 H           1.1763   -4.1289   -2.5886 H       1  LIG1        0.0280
     43 H           2.1601   -3.5884   -1.2042 H       1  LIG1        0.0280
     44 H          -0.0417   -3.8556   -0.1271 H       1  LIG1        0.0694
     45 H          -0.8802   -5.1665   -0.9596 H       1  LIG1        0.0694
     46 H          -2.2800   -2.9355    0.5954 H       1  LIG1        0.0262
     47 H          -2.0141   -4.5818    1.1800 H       1  LIG1        0.0262
     48 H          -3.0793   -4.2822   -0.2148 H       1  LIG1        0.0262
@<TRIPOS>BOND
     1     1     2    1
     2     2     3   ar
     3     3     4   ar
     4     4     5    1
     5     5     6    1
     6     6     7    1
     7     9    10   ar
     8    10    11   ar
     9    11    12   ar
    10    12    13    1
    11    12    14   ar
    12    14    15    1
    13    15    16    1
    14    14    17   ar
    15     9    17   ar
    16     7    18    1
    17     3    18    1
    18     5    19    2
    19     4    20   ar
    20    20    21    1
    21    20    22   ar
    22    22    23    1
    23    22    24   ar
    24     2    24   ar
    25    24    25    1
    26    25    26    1
    27    26    27    1
    28     7     9    1
    29     7     8    1
    30     1    28    1
    31     1    29    1
    32     1    30    1
    33     6    31    1
    34     6    32    1
    35    10    33    1
    36    11    34    1
    37    13    35    1
    38    16    36    1
    39    16    37    1
    40    16    38    1
    41    17    39    1
    42    21    40    1
    43    23    41    1
    44    23    42    1
    45    23    43    1
    46    26    44    1
    47    26    45    1
    48    27    46    1
    49    27    47    1
    50    27    48    1
