REMARK  Name = NuBBE_559
REMARK  23 active torsions:
REMARK  status: ('A' for Active; 'I' for Inactive)
REMARK    1  A    between atoms: C_1  and  C_2
REMARK    2  A    between atoms: C_2  and  C_3
REMARK    3  A    between atoms: C_4  and  C_5
REMARK    4  A    between atoms: C_5  and  C_6
REMARK    5  A    between atoms: C_6  and  C_7
REMARK    6  A    between atoms: C_7  and  C_8
REMARK    7  A    between atoms: C_9  and  C_10
REMARK    8  A    between atoms: C_10  and  C_11
REMARK    9  A    between atoms: C_11  and  C_12
REMARK   10  A    between atoms: C_12  and  C_13
REMARK   11  A    between atoms: C_14  and  C_15
REMARK   12  A    between atoms: C_15  and  C_16
REMARK   13  A    between atoms: C_16  and  C_17
REMARK   14  A    between atoms: C_18  and  C_19
REMARK   15  A    between atoms: C_18  and  C_20
REMARK   16  A    between atoms: C_20  and  C_21
REMARK   17  A    between atoms: C_21  and  C_22
REMARK   18  A    between atoms: C_23  and  C_24
REMARK   19  A    between atoms: C_23  and  C_25
REMARK   20  A    between atoms: C_25  and  C_26
REMARK   21  A    between atoms: C_26  and  C_27
REMARK   22  A    between atoms: C_28  and  C_29
REMARK   23  A    between atoms: C_28  and  C_30
REMARK                            x       y       z     vdW  Elec       q    Type
REMARK                         _______ _______ _______ _____ _____    ______ ____
ROOT
ATOM      1  C   LIG A   1       1.629  -0.964  -0.657  0.00  0.00    +0.031 C 
ENDROOT
BRANCH   1   4
ATOM      2  C   LIG A   1      -0.692  -0.405  -1.571  0.00  0.00    -0.076 C 
ATOM      3  C   LIG A   1      -0.240   0.859  -2.247  0.00  0.00    +0.038 C 
ATOM      4  C   LIG A   1       0.156  -1.166  -0.840  0.00  0.00    -0.027 C 
BRANCH   2   5
ATOM      5  C   LIG A   1      -2.163  -0.748  -1.720  0.00  0.00    +0.034 C 
BRANCH   5   6
ATOM      6  C   LIG A   1      -2.430  -2.254  -1.803  0.00  0.00    +0.031 C 
BRANCH   6   9
ATOM      7  C   LIG A   1      -4.571  -3.307  -0.989  0.00  0.00    -0.076 C 
ATOM      8  C   LIG A   1      -3.768  -3.705   0.189  0.00  0.00    +0.038 C 
ATOM      9  C   LIG A   1      -3.881  -2.581  -1.956  0.00  0.00    -0.027 C 
BRANCH   7  10
ATOM     10  C   LIG A   1      -5.987  -3.737  -1.195  0.00  0.00    +0.034 C 
BRANCH  10  11
ATOM     11  C   LIG A   1      -6.185  -5.174  -1.758  0.00  0.00    +0.031 C 
BRANCH  11  15
ATOM     12  C   LIG A   1      -4.965  -7.847   0.929  0.00  0.00    +0.038 C 
ATOM     13  C   LIG A   1      -5.425  -6.547   0.372  0.00  0.00    -0.080 C 
ATOM     14  C   LIG A   1      -5.268  -5.508   1.429  0.00  0.00    +0.038 C 
ATOM     15  C   LIG A   1      -5.822  -6.389  -0.930  0.00  0.00    -0.028 C 
ENDBRANCH  11  15
ENDBRANCH  10  11
ENDBRANCH   7  10
ENDBRANCH   6   9
ENDBRANCH   5   6
ENDBRANCH   2   5
ENDBRANCH   1   4
BRANCH   1  16
ATOM     16  C   LIG A   1       1.908  -0.125   0.578  0.00  0.00    +0.031 C 
BRANCH  16  17
ATOM     17  C   LIG A   1       3.411   0.029   0.815  0.00  0.00    -0.027 C 
ATOM     18  C   LIG A   1       4.123   1.222   0.619  0.00  0.00    -0.076 C 
ATOM     19  C   LIG A   1       3.340   2.337   0.130  0.00  0.00    +0.038 C 
BRANCH  18  20
ATOM     20  C   LIG A   1       5.484   1.506   1.169  0.00  0.00    +0.034 C 
BRANCH  20  21
ATOM     21  C   LIG A   1       6.233   2.767   0.540  0.00  0.00    +0.031 C 
BRANCH  21  22
ATOM     22  C   LIG A   1       5.734   4.205   0.863  0.00  0.00    -0.027 C 
ATOM     23  C   LIG A   1       4.881   5.005   0.148  0.00  0.00    -0.076 C 
ATOM     24  C   LIG A   1       4.236   4.678  -1.225  0.00  0.00    +0.038 C 
BRANCH  23  25
ATOM     25  C   LIG A   1       4.243   6.230   0.793  0.00  0.00    +0.034 C 
BRANCH  25  26
ATOM     26  C   LIG A   1       3.019   6.003   1.746  0.00  0.00    +0.031 C 
BRANCH  26  27
ATOM     27  C   LIG A   1       1.745   5.412   1.167  0.00  0.00    -0.028 C 
ATOM     28  C   LIG A   1       1.195   4.197   1.395  0.00  0.00    -0.080 C 
ATOM     29  C   LIG A   1       1.732   3.133   2.337  0.00  0.00    +0.038 C 
ATOM     30  C   LIG A   1       0.083   3.690   0.501  0.00  0.00    +0.038 C 
ENDBRANCH  26  27
ENDBRANCH  25  26
ENDBRANCH  23  25
ENDBRANCH  21  22
ENDBRANCH  20  21
ENDBRANCH  18  20
ENDBRANCH  16  17
ENDBRANCH   1  16
TORSDOF 15
