REMARK  Name = NuBBE_955
REMARK  10 active torsions:
REMARK  status: ('A' for Active; 'I' for Inactive)
REMARK    1  A    between atoms: N_5  and  C_13
REMARK    2  A    between atoms: C_7  and  O_12
REMARK    3  A    between atoms: C_14  and  O_15
REMARK    4  A    between atoms: O_15  and  C_16
REMARK    5  A    between atoms: C_17  and  O_26
REMARK    6  A    between atoms: C_18  and  C_19
REMARK    7  A    between atoms: C_19  and  C_20
REMARK    8  A    between atoms: C_21  and  C_22
REMARK    9  A    between atoms: C_21  and  C_23
REMARK   10  A    between atoms: C_24  and  O_25
REMARK                            x       y       z     vdW  Elec       q    Type
REMARK                         _______ _______ _______ _____ _____    ______ ____
ROOT
ATOM      1  O   LIG A   1      -2.599  -2.530  -0.118  0.00  0.00    -0.286 OA
ATOM      2  C   LIG A   1      -1.378  -2.461  -0.291  0.00  0.00    +0.201 A 
ATOM      3  C   LIG A   1      -0.722  -1.140  -0.362  0.00  0.00    +0.091 A 
ATOM      4  C   LIG A   1       0.684  -1.082  -0.404  0.00  0.00    +0.102 A 
ATOM      5  N   LIG A   1       1.444  -2.300  -0.382  0.00  0.00    -0.337 N 
ATOM      6  C   LIG A   1       0.808  -3.567  -0.556  0.00  0.00    +0.095 A 
ATOM      7  C   LIG A   1       1.530  -4.740  -0.826  0.00  0.00    +0.141 A 
ATOM      8  C   LIG A   1       0.912  -5.989  -0.891  0.00  0.00    +0.047 A 
ATOM      9  C   LIG A   1      -0.469  -6.086  -0.727  0.00  0.00    +0.004 A 
ATOM     10  C   LIG A   1      -1.221  -4.932  -0.528  0.00  0.00    +0.014 A 
ATOM     11  C   LIG A   1      -0.582  -3.683  -0.459  0.00  0.00    +0.050 A 
ATOM     12  C   LIG A   1       2.358  -2.348   0.788  0.00  0.00    +0.149 C 
ATOM     13  C   LIG A   1       1.302   0.196  -0.493  0.00  0.00    +0.186 A 
ATOM     14  C   LIG A   1       0.502   1.360  -0.519  0.00  0.00    +0.168 A 
ATOM     15  C   LIG A   1      -0.906   1.292  -0.506  0.00  0.00    +0.044 A 
ATOM     16  C   LIG A   1      -1.501   0.030  -0.399  0.00  0.00    +0.137 A 
ENDROOT
BRANCH   7  17
ATOM     17  O   LIG A   1       2.870  -4.690  -1.098  0.00  0.00    -0.505 OA
ATOM     18  H   LIG A   1       3.046  -3.766  -1.364  0.00  0.00    +0.292 HD
ENDBRANCH   7  17
BRANCH  13  19
ATOM     19  O   LIG A   1       2.672   0.182  -0.647  0.00  0.00    -0.489 OA
ATOM     20  C   LIG A   1       3.409   1.258  -0.076  0.00  0.00    +0.277 C 
ENDBRANCH  13  19
BRANCH  16  21
ATOM     21  O   LIG A   1      -2.874  -0.018  -0.345  0.00  0.00    -0.506 OA
ATOM     22  H   LIG A   1      -3.146  -0.959  -0.240  0.00  0.00    +0.292 HD
ENDBRANCH  16  21
BRANCH  14  23
ATOM     23  O   LIG A   1       1.101   2.590  -0.597  0.00  0.00    -0.503 OA
ATOM     24  H   LIG A   1       0.537   3.230  -0.129  0.00  0.00    +0.292 HD
ENDBRANCH  14  23
BRANCH  15  25
ATOM     25  C   LIG A   1      -1.773   2.526  -0.668  0.00  0.00    +0.069 C 
BRANCH  25  26
ATOM     26  C   LIG A   1      -2.066   3.221   0.636  0.00  0.00    -0.023 C 
ATOM     27  C   LIG A   1      -1.765   4.489   0.983  0.00  0.00    -0.079 C 
ATOM     28  C   LIG A   1      -1.050   5.484   0.110  0.00  0.00    +0.038 C 
ATOM     29  C   LIG A   1      -2.153   5.031   2.336  0.00  0.00    +0.038 C 
ENDBRANCH  25  26
ENDBRANCH  15  25
TORSDOF 6
