REMARK  Name = NuBBE_2068
REMARK  2 active torsions:
REMARK  status: ('A' for Active; 'I' for Inactive)
REMARK    1  A    between atoms: C_3  and  C_4
REMARK    2  A    between atoms: C_5  and  O_6
REMARK                            x       y       z     vdW  Elec       q    Type
REMARK                         _______ _______ _______ _____ _____    ______ ____
ROOT
ATOM      1  O   LIG A   1      -3.937   1.164  -0.727  0.00  0.00    -0.250 OA
ATOM      2  C   LIG A   1      -3.054   0.492  -0.192  0.00  0.00    +0.319 C 
ATOM      3  C   LIG A   1      -2.209   0.809   1.018  0.00  0.00    +0.125 C 
ATOM      4  C   LIG A   1      -3.074   0.116   2.134  0.00  0.00    +0.029 C 
ATOM      5  C   LIG A   1      -1.619   2.088   1.625  0.00  0.00    +0.183 C 
ATOM      6  C   LIG A   1      -0.705   1.668   2.844  0.00  0.00    +0.066 C 
ATOM      7  C   LIG A   1       0.308   0.568   2.404  0.00  0.00    +0.015 C 
ATOM      8  C   LIG A   1       0.345   0.522   0.862  0.00  0.00    +0.005 C 
ATOM      9  C   LIG A   1       0.466   2.045   0.457  0.00  0.00    +0.170 C 
ATOM     10  O   LIG A   1      -0.739   2.771   0.739  0.00  0.00    -0.347 OA
ATOM     11  C   LIG A   1       1.430  -0.416   0.220  0.00  0.00    +0.009 C 
ATOM     12  C   LIG A   1       2.401   0.424  -0.672  0.00  0.00    +0.009 C 
ATOM     13  C   LIG A   1       3.418  -0.434  -1.395  0.00  0.00    +0.042 C 
ATOM     14  C   LIG A   1       2.590  -1.196  -2.340  0.00  0.00    +0.036 C 
ATOM     15  C   LIG A   1       1.448  -1.799  -2.010  0.00  0.00    +0.108 C 
ATOM     16  O   LIG A   1       0.635  -2.242  -3.049  0.00  0.00    -0.488 OA
ATOM     17  C   LIG A   1       1.252  -1.752  -4.264  0.00  0.00    +0.307 C 
ATOM     18  C   LIG A   1       2.361  -0.898  -3.744  0.00  0.00    +0.199 C 
ATOM     19  O   LIG A   1       2.924   0.007  -4.341  0.00  0.00    -0.289 OA
ATOM     20  C   LIG A   1       0.931  -1.749  -0.573  0.00  0.00    +0.062 C 
ATOM     21  C   LIG A   1      -0.554  -2.191  -0.463  0.00  0.00    +0.056 C 
ATOM     22  C   LIG A   1      -1.524  -1.226   0.171  0.00  0.00    +0.182 C 
ATOM     23  O   LIG A   1      -2.705  -0.841  -0.589  0.00  0.00    -0.461 OA
ATOM     24  C   LIG A   1      -1.007   0.139   0.348  0.00  0.00    +0.060 C 
ENDROOT
BRANCH   5  25
ATOM     25  O   LIG A   1      -2.626   2.982   2.049  0.00  0.00    -0.364 OA
ATOM     26  H   LIG A   1      -2.832   2.817   2.979  0.00  0.00    +0.213 HD
ENDBRANCH   5  25
TORSDOF 1
