REMARK  Name = NuBBE_1975
REMARK  5 active torsions:
REMARK  status: ('A' for Active; 'I' for Inactive)
REMARK    1  A    between atoms: S_1  and  S_2
REMARK    2  A    between atoms: S_1  and  C_6
REMARK    3  A    between atoms: S_2  and  C_3
REMARK    4  A    between atoms: C_3  and  C_4
REMARK    5  A    between atoms: C_6  and  C_7
REMARK                            x       y       z     vdW  Elec       q    Type
REMARK                         _______ _______ _______ _____ _____    ______ ____
ROOT
ATOM      1  S   LIG A   1      -1.825   0.255  -0.992  0.00  0.00    -0.089 S 
ENDROOT
BRANCH   1   2
ATOM      2  S   LIG A   1      -0.748   1.897  -0.356  0.00  0.00    -0.089 S 
BRANCH   2   3
ATOM      3  C   LIG A   1       0.969   1.398  -0.713  0.00  0.00    +0.107 C 
BRANCH   3   4
ATOM      4  C   LIG A   1       1.899   2.497  -0.293  0.00  0.00    -0.023 C 
ATOM      5  C   LIG A   1       2.842   2.376   0.655  0.00  0.00    +0.005 C 
ENDBRANCH   3   4
ENDBRANCH   2   3
ENDBRANCH   1   2
BRANCH   1   6
ATOM      6  C   LIG A   1      -1.507  -0.932   0.346  0.00  0.00    +0.107 C 
BRANCH   6   7
ATOM      7  C   LIG A   1      -2.229  -2.223   0.095  0.00  0.00    -0.023 C 
ATOM      8  C   LIG A   1      -1.628  -3.416   0.085  0.00  0.00    +0.005 C 
ENDBRANCH   6   7
ENDBRANCH   1   6
TORSDOF 5
