@<TRIPOS>MOLECULE
NuBBE_1894
 47 49 0 0 0
SMALL
GASTEIGER

@<TRIPOS>ATOM
      1 C          -1.0142   -0.2623   -3.8624 C.3     1  LIG1        0.0790
      2 O          -0.3358   -1.0095   -2.8693 O.3     1  LIG1       -0.4907
      3 C           0.9554   -0.5752   -2.6395 C.ar    1  LIG1        0.1730
      4 C           1.9872   -0.3577   -3.5982 C.ar    1  LIG1        0.2041
      5 O           2.0245   -0.6586   -4.9455 O.3     1  LIG1       -0.4885
      6 C           0.8776   -0.8176   -5.7515 C.3     1  LIG1        0.0791
      7 C           3.2262    0.2004   -3.1462 C.ar    1  LIG1        0.1652
      8 O           4.1774    0.4832   -4.1100 O.3     1  LIG1       -0.4913
      9 C           5.3997    1.0832   -3.6827 C.3     1  LIG1        0.0790
     10 C           3.4363    0.4714   -1.7893 C.ar    1  LIG1       -0.0155
     11 C           2.4556    0.1610   -0.8519 C.ar    1  LIG1       -0.0466
     12 C           1.2171   -0.3571   -1.2600 C.ar    1  LIG1        0.0343
     13 C           0.2121   -0.6253   -0.2106 C.ar    1  LIG1        0.0679
     14 C           0.2403   -1.7653    0.5058 C.ar    1  LIG1        0.1040
     15 O          -0.5377   -2.0355    1.5995 O.2     1  LIG1       -0.4620
     16 C          -1.1624   -0.9663    2.1811 C.ar    1  LIG1        0.1421
     17 C          -1.5499   -1.1188    3.5072 C.ar    1  LIG1        0.0267
     18 C          -2.2562   -0.1131    4.1597 C.ar    1  LIG1        0.1650
     19 O          -2.6179   -0.2621    5.4653 O.3     1  LIG1       -0.4913
     20 C          -3.0719   -1.5294    5.9199 C.3     1  LIG1        0.0790
     21 C          -2.5060    1.1100    3.4961 C.ar    1  LIG1        0.1624
     22 O          -3.1694    2.1889    4.0403 O.3     1  LIG1       -0.4914
     23 C          -3.0945    2.3194    5.4624 C.3     1  LIG1        0.0790
     24 C          -2.0861    1.2663    2.1596 C.ar    1  LIG1       -0.0019
     25 C          -1.4064    0.2273    1.5102 C.ar    1  LIG1        0.0682
     26 C          -0.8684    0.3181    0.1537 C.ar    1  LIG1        0.2004
     27 O          -1.3227    1.1773   -0.6644 O.2     1  LIG1       -0.2864
     28 H          -2.0386    0.0457   -3.6513 H       1  LIG1        0.0660
     29 H          -1.1624   -0.9648   -4.6850 H       1  LIG1        0.0660
     30 H          -0.4773    0.6662   -4.0951 H       1  LIG1        0.0660
     31 H           0.4081   -1.7962   -5.5868 H       1  LIG1        0.0660
     32 H           1.1055   -0.7313   -6.8161 H       1  LIG1        0.0660
     33 H           0.2215    0.0417   -5.6694 H       1  LIG1        0.0660
     34 H           6.0482    1.2128   -4.5555 H       1  LIG1        0.0660
     35 H           5.9324    0.4377   -2.9757 H       1  LIG1        0.0660
     36 H           5.2285    2.0773   -3.2531 H       1  LIG1        0.0660
     37 H           4.3509    0.9320   -1.4281 H       1  LIG1        0.0655
     38 H           2.6644    0.3636    0.1985 H       1  LIG1        0.0626
     39 H           0.9016   -2.5968    0.3148 H       1  LIG1        0.1037
     40 H          -1.2502   -2.0210    4.0272 H       1  LIG1        0.0692
     41 H          -2.7503   -2.3841    5.3242 H       1  LIG1        0.0660
     42 H          -4.1651   -1.5292    5.9680 H       1  LIG1        0.0660
     43 H          -2.6839   -1.6566    6.9341 H       1  LIG1        0.0660
     44 H          -3.5990    3.2390    5.7702 H       1  LIG1        0.0660
     45 H          -2.0485    2.3742    5.7850 H       1  LIG1        0.0660
     46 H          -3.6409    1.5300    5.9850 H       1  LIG1        0.0660
     47 H          -2.2547    2.2073    1.6299 H       1  LIG1        0.0663
@<TRIPOS>BOND
     1     1     2    1
     2     2     3    1
     3     3     4   ar
     4     4     5    1
     5     5     6    1
     6     4     7   ar
     7     7     8    1
     8     8     9    1
     9     7    10   ar
    10    10    11   ar
    11    11    12   ar
    12     3    12   ar
    13    12    13    1
    14    13    14   ar
    15    14    15   ar
    16    15    16   ar
    17    16    17   ar
    18    17    18   ar
    19    18    19    1
    20    19    20    1
    21    18    21   ar
    22    21    22    1
    23    22    23    1
    24    21    24   ar
    25    16    25   ar
    26    24    25   ar
    27    25    26   ar
    28    13    26   ar
    29    26    27    2
    30     1    28    1
    31     1    29    1
    32     1    30    1
    33     6    31    1
    34     6    32    1
    35     6    33    1
    36     9    34    1
    37     9    35    1
    38     9    36    1
    39    10    37    1
    40    11    38    1
    41    14    39    1
    42    17    40    1
    43    20    41    1
    44    20    42    1
    45    20    43    1
    46    23    44    1
    47    23    45    1
    48    23    46    1
    49    24    47    1
