REMARK  Name = NuBBE_1547
REMARK  6 active torsions:
REMARK  status: ('A' for Active; 'I' for Inactive)
REMARK    1  A    between atoms: C_1  and  C_2
REMARK    2  A    between atoms: C_7  and  C_9
REMARK    3  A    between atoms: C_9  and  C_10
REMARK    4  A    between atoms: C_16  and  C_29
REMARK    5  A    between atoms: C_20  and  O_22
REMARK    6  A    between atoms: C_23  and  O_25
REMARK                            x       y       z     vdW  Elec       q    Type
REMARK                         _______ _______ _______ _____ _____    ______ ____
ROOT
ATOM      1  C   LIG A   1      -1.141   1.668   1.962  0.00  0.00    +0.012 C 
ATOM      2  C   LIG A   1       0.120   1.981   1.121  0.00  0.00    -0.019 C 
ATOM      3  C   LIG A   1      -0.130   2.090  -0.398  0.00  0.00    +0.006 C 
ATOM      4  C   LIG A   1      -0.933   3.372  -0.584  0.00  0.00    +0.079 C 
ATOM      5  C   LIG A   1      -0.318   4.239   0.494  0.00  0.00    +0.137 C 
ATOM      6  C   LIG A   1       0.544   3.444   1.480  0.00  0.00    +0.061 C 
ATOM      7  O   LIG A   1      -0.503   5.449   0.572  0.00  0.00    -0.297 OA
ATOM      8  C   LIG A   1      -0.593   0.809  -1.112  0.00  0.00    -0.003 C 
ATOM      9  C   LIG A   1       0.379  -0.366  -0.800  0.00  0.00    -0.001 C 
ATOM     10  C   LIG A   1      -0.106  -1.710  -1.459  0.00  0.00    -0.024 C 
ATOM     11  C   LIG A   1      -1.526  -2.123  -0.948  0.00  0.00    -0.002 C 
ATOM     12  C   LIG A   1      -1.563  -3.201   0.162  0.00  0.00    +0.038 C 
ATOM     13  C   LIG A   1      -0.587  -4.341  -0.047  0.00  0.00    +0.143 C 
ATOM     14  C   LIG A   1       0.832  -3.789  -0.148  0.00  0.00    +0.144 C 
ATOM     15  C   LIG A   1       0.970  -2.833  -1.329  0.00  0.00    +0.041 C 
ATOM     16  C   LIG A   1      -2.399  -0.942  -0.465  0.00  0.00    +0.004 C 
ATOM     17  C   LIG A   1      -2.082   0.442  -1.019  0.00  0.00    +0.004 C 
ATOM     18  C   LIG A   1      -0.221  -1.469  -3.002  0.00  0.00    +0.012 C 
ATOM     19  C   LIG A   1       0.733  -0.469   0.704  0.00  0.00    +0.005 C 
ATOM     20  C   LIG A   1       1.159   0.870   1.336  0.00  0.00    +0.008 C 
ENDROOT
BRANCH   6  21
ATOM     21  C   LIG A   1       2.014   3.841   1.288  0.00  0.00    +0.008 C 
ATOM     22  C   LIG A   1       2.864   3.559   2.520  0.00  0.00    +0.004 C 
ENDBRANCH   6  21
BRANCH  13  23
ATOM     23  O   LIG A   1      -0.925  -5.061  -1.232  0.00  0.00    -0.389 OA
ATOM     24  H   LIG A   1      -0.163  -5.653  -1.389  0.00  0.00    +0.210 HD
ENDBRANCH  13  23
BRANCH  14  25
ATOM     25  O   LIG A   1       1.725  -4.894  -0.342  0.00  0.00    -0.389 OA
ATOM     26  H   LIG A   1       2.625  -4.529  -0.410  0.00  0.00    +0.210 HD
ENDBRANCH  14  25
TORSDOF 3
