@<TRIPOS>MOLECULE
NuBBE_2276
 37 38 0 0 0
SMALL
GASTEIGER

@<TRIPOS>ATOM
      1 O          -3.2520    4.0236   -1.8148 O.2     1  LIG1       -0.2451
      2 C          -2.7309    3.6675   -0.7642 C.ar    1  LIG1        0.3407
      3 O          -1.8719    2.6006   -0.6947 O.2     1  LIG1       -0.4226
      4 C          -3.0159    4.3950    0.4788 C.ar    1  LIG1        0.0646
      5 C          -2.4470    4.0243    1.6369 C.ar    1  LIG1        0.1304
      6 O          -2.6290    4.5982    2.8702 O.3     1  LIG1       -0.4948
      7 C          -3.5205    5.7058    2.9430 C.3     1  LIG1        0.0788
      8 C          -1.5487    2.9038    1.6633 C.ar    1  LIG1        0.0227
      9 C          -1.2961    2.2284    0.5374 C.ar    1  LIG1        0.1354
     10 C          -0.4377    1.0665    0.4662 C.2     1  LIG1       -0.0185
     11 C          -0.2167    0.3829   -0.6670 C.2     1  LIG1       -0.0510
     12 C           0.6362   -0.7978   -0.7154 C.ar    1  LIG1       -0.0212
     13 C           1.9941   -0.6486   -0.9800 C.ar    1  LIG1       -0.0509
     14 C           2.8155   -1.7714   -1.0535 C.ar    1  LIG1       -0.0157
     15 C           2.2966   -3.0586   -0.8601 C.ar    1  LIG1        0.1615
     16 O           3.0804   -4.1786   -0.8619 O.3     1  LIG1       -0.4915
     17 C           4.4609   -4.0285   -1.1517 C.3     1  LIG1        0.0790
     18 C           0.9197   -3.2137   -0.6153 C.ar    1  LIG1        0.1620
     19 O           0.2515   -4.3945   -0.3952 O.3     1  LIG1       -0.4914
     20 C           0.7425   -5.5431   -1.0801 C.3     1  LIG1        0.0790
     21 C           0.1028   -2.0766   -0.5272 C.ar    1  LIG1       -0.0092
     22 H          -3.7034    5.2208    0.3759 H       1  LIG1        0.0726
     23 H          -3.5749    6.0297    3.9858 H       1  LIG1        0.0660
     24 H          -4.5283    5.4184    2.6248 H       1  LIG1        0.0660
     25 H          -3.1459    6.5430    2.3450 H       1  LIG1        0.0660
     26 H          -1.0994    2.6255    2.6136 H       1  LIG1        0.0691
     27 H           0.0303    0.7405    1.3939 H       1  LIG1        0.0654
     28 H          -0.6579    0.6764   -1.6160 H       1  LIG1        0.0625
     29 H           2.4254    0.3378   -1.1337 H       1  LIG1        0.0625
     30 H           3.8662   -1.6027   -1.2598 H       1  LIG1        0.0655
     31 H           4.9281   -5.0126   -1.0596 H       1  LIG1        0.0660
     32 H           4.9475   -3.3637   -0.4312 H       1  LIG1        0.0660
     33 H           4.6035   -3.6805   -2.1798 H       1  LIG1        0.0660
     34 H           0.0374   -6.3631   -0.9128 H       1  LIG1        0.0660
     35 H           1.6940   -5.8906   -0.6724 H       1  LIG1        0.0660
     36 H           0.8040   -5.3660   -2.1595 H       1  LIG1        0.0660
     37 H          -0.9604   -2.1980   -0.3288 H       1  LIG1        0.0661
@<TRIPOS>BOND
     1     1     2    2
     2     2     3   ar
     3     2     4   ar
     4     4     5   ar
     5     5     6    1
     6     6     7    1
     7     5     8   ar
     8     8     9   ar
     9     3     9   ar
    10     9    10    1
    11    10    11    2
    12    11    12    1
    13    12    13   ar
    14    13    14   ar
    15    14    15   ar
    16    15    16    1
    17    16    17    1
    18    15    18   ar
    19    18    19    1
    20    19    20    1
    21    18    21   ar
    22    12    21   ar
    23     4    22    1
    24     7    23    1
    25     7    24    1
    26     7    25    1
    27     8    26    1
    28    10    27    1
    29    11    28    1
    30    13    29    1
    31    14    30    1
    32    17    31    1
    33    17    32    1
    34    17    33    1
    35    20    34    1
    36    20    35    1
    37    20    36    1
    38    21    37    1
