REMARK  Name = NuBBE_1037
REMARK  12 active torsions:
REMARK  status: ('A' for Active; 'I' for Inactive)
REMARK    1  A    between atoms: C_1  and  C_2
REMARK    2  A    between atoms: C_5  and  O_6
REMARK    3  A    between atoms: O_6  and  C_7
REMARK    4  A    between atoms: C_7  and  C_8
REMARK    5  A    between atoms: C_11  and  C_12
REMARK    6  A    between atoms: C_11  and  C_13
REMARK    7  A    between atoms: C_16  and  C_17
REMARK    8  A    between atoms: C_23  and  C_24
REMARK    9  A    between atoms: C_27  and  C_28
REMARK   10  A    between atoms: C_28  and  O_29
REMARK   11  A    between atoms: C_34  and  C_37
REMARK   12  A    between atoms: C_34  and  C_38
REMARK                            x       y       z     vdW  Elec       q    Type
REMARK                         _______ _______ _______ _____ _____    ______ ____
ROOT
ATOM      1  C   LIG A   1      -0.324  -2.233   0.860  0.00  0.00    +0.012 C 
ATOM      2  C   LIG A   1       1.038  -2.020   0.135  0.00  0.00    -0.025 C 
ATOM      3  C   LIG A   1       1.842  -3.362   0.274  0.00  0.00    +0.011 C 
ATOM      4  C   LIG A   1       1.809  -4.286  -0.955  0.00  0.00    +0.046 C 
ATOM      5  C   LIG A   1       0.465  -4.318  -1.688  0.00  0.00    +0.182 C 
ATOM      6  C   LIG A   1       0.819  -1.761  -1.385  0.00  0.00    +0.004 C 
ATOM      7  C   LIG A   1       0.056  -2.889  -2.193  0.00  0.00    +0.005 C 
ATOM      8  C   LIG A   1       0.525  -2.784  -3.676  0.00  0.00    +0.015 C 
ATOM      9  C   LIG A   1      -1.481  -2.708  -2.241  0.00  0.00    +0.015 C 
ATOM     10  C   LIG A   1       0.248  -0.364  -1.584  0.00  0.00    +0.005 C 
ATOM     11  C   LIG A   1       1.351   0.651  -1.373  0.00  0.00    +0.008 C 
ATOM     12  C   LIG A   1       2.158   0.554  -0.035  0.00  0.00    -0.019 C 
ATOM     13  C   LIG A   1       3.658   0.505  -0.468  0.00  0.00    +0.012 C 
ATOM     14  C   LIG A   1       1.882  -0.813   0.836  0.00  0.00    +0.006 C 
ATOM     15  C   LIG A   1       1.415  -0.509   2.303  0.00  0.00    +0.031 C 
ATOM     16  C   LIG A   1       0.369   0.563   2.306  0.00  0.00    -0.026 C 
ATOM     17  C   LIG A   1       0.518   1.632   1.502  0.00  0.00    -0.063 C 
ATOM     18  C   LIG A   1       1.894   1.883   0.850  0.00  0.00    -0.005 C 
ATOM     19  C   LIG A   1       3.011   2.064   1.940  0.00  0.00    +0.016 C 
ATOM     20  C   LIG A   1       1.980   3.256   0.056  0.00  0.00    +0.012 C 
ATOM     21  C   LIG A   1       0.722   4.127  -0.128  0.00  0.00    +0.019 C 
ATOM     22  C   LIG A   1      -0.372   3.941   0.946  0.00  0.00    +0.074 C 
ATOM     23  C   LIG A   1      -0.655   2.429   0.969  0.00  0.00    +0.033 C 
ATOM     24  C   LIG A   1      -2.091   2.107   1.424  0.00  0.00    +0.015 C 
ATOM     25  C   LIG A   1      -3.131   2.670   0.408  0.00  0.00    -0.034 C 
ATOM     26  C   LIG A   1      -2.616   3.950  -0.303  0.00  0.00    +0.007 C 
ATOM     27  C   LIG A   1      -1.641   4.754   0.558  0.00  0.00    +0.019 C 
ATOM     28  C   LIG A   1      -4.444   2.967   1.153  0.00  0.00    +0.011 C 
ATOM     29  C   LIG A   1      -3.436   1.610  -0.675  0.00  0.00    +0.011 C 
ENDROOT
BRANCH  22  30
ATOM     30  C   LIG A   1       0.120   4.474   2.294  0.00  0.00    +0.311 C 
ATOM     31  O   LIG A   1       1.170   5.052   2.512  0.00  0.00    -0.250 OA
BRANCH  30  32
ATOM     32  O   LIG A   1      -0.764   4.313   3.299  0.00  0.00    -0.480 OA
ATOM     33  H   LIG A   1      -0.321   4.728   4.068  0.00  0.00    +0.295 HD
ENDBRANCH  30  32
ENDBRANCH  22  30
BRANCH   5  34
ATOM     34  O   LIG A   1      -0.546  -4.871  -0.821  0.00  0.00    -0.461 OA
BRANCH  34  35
ATOM     35  C   LIG A   1      -0.589  -6.226  -0.707  0.00  0.00    +0.304 C 
ATOM     36  C   LIG A   1      -1.709  -6.624   0.206  0.00  0.00    +0.136 C 
ATOM     37  O   LIG A   1       0.147  -7.016  -1.279  0.00  0.00    -0.251 OA
ENDBRANCH  34  35
ENDBRANCH   5  34
TORSDOF 4
