@<TRIPOS>MOLECULE
NuBBE_1081
 48 51 0 0 0
SMALL
GASTEIGER

@<TRIPOS>ATOM
      1 O          -1.9466    1.7582   -0.8031 O.2     1  LIG1       -0.2864
      2 C          -0.8225    1.6912   -0.3172 C.ar    1  LIG1        0.2009
      3 C          -0.1322    0.3979   -0.0429 C.ar    1  LIG1        0.0914
      4 C           1.2818    0.4236    0.0675 C.ar    1  LIG1        0.1025
      5 N           1.9463    1.6744    0.0119 N.ar    1  LIG1       -0.3369
      6 C           1.2760    2.9082    0.1856 C.ar    1  LIG1        0.0950
      7 C           1.8923    4.1203    0.5641 C.ar    1  LIG1        0.1409
      8 C           1.1645    5.3123    0.6877 C.ar    1  LIG1       -0.0181
      9 C          -0.2074    5.3204    0.4553 C.ar    1  LIG1       -0.0575
     10 C          -0.8517    4.1348    0.1225 C.ar    1  LIG1       -0.0487
     11 C          -0.1154    2.9453    0.0092 C.ar    1  LIG1        0.0495
     12 O           3.2299    4.1524    0.8729 O.3     1  LIG1       -0.5047
     13 C           3.3376    1.7321   -0.4355 C.3     1  LIG1        0.0126
     14 C           1.9198   -0.8158    0.2916 C.ar    1  LIG1        0.1860
     15 O           3.2878   -0.9090    0.4362 O.3     1  LIG1       -0.4895
     16 C           3.8798   -1.5777   -0.6880 C.3     1  LIG1        0.0791
     17 C           1.1669   -1.9872    0.4918 C.ar    1  LIG1        0.1674
     18 C          -0.2227   -2.0021    0.3806 C.ar    1  LIG1        0.0427
     19 C          -0.8737   -0.8008    0.0861 C.ar    1  LIG1        0.1411
     20 O          -2.2380   -0.7256   -0.0075 O.3     1  LIG1       -0.4825
     21 C          -2.9783   -1.9426   -0.1951 C.3     1  LIG1        0.1310
     22 C          -2.9220   -2.3438   -1.6792 C.3     1  LIG1       -0.0227
     23 C          -2.4752   -3.0375    0.7674 C.3     1  LIG1        0.0984
     24 C          -0.9829   -3.2832    0.5705 C.3     1  LIG1        0.0093
     25 O          -3.1977   -4.2640    0.6357 O.3     1  LIG1       -0.3875
     26 C          -4.4383   -1.5982    0.1437 C.3     1  LIG1       -0.0227
     27 O           1.7968   -3.1466    0.8693 O.3     1  LIG1       -0.5030
     28 H           1.6521    6.2411    0.9698 H       1  LIG1        0.0655
     29 H          -0.7765    6.2417    0.5478 H       1  LIG1        0.0619
     30 H          -1.9275    4.1284   -0.0421 H       1  LIG1        0.0625
     31 H           3.4497    5.0235    1.2410 H       1  LIG1        0.2922
     32 H           3.5400    0.9780   -1.2015 H       1  LIG1        0.0456
     33 H           4.0283    1.6003    0.4036 H       1  LIG1        0.0456
     34 H           3.5786    2.6697   -0.9500 H       1  LIG1        0.0456
     35 H           4.8941   -1.1854   -0.8097 H       1  LIG1        0.0660
     36 H           3.3321   -1.4024   -1.6216 H       1  LIG1        0.0660
     37 H           3.9597   -2.6515   -0.4959 H       1  LIG1        0.0660
     38 H          -1.9027   -2.5777   -2.0027 H       1  LIG1        0.0269
     39 H          -3.2555   -1.5140   -2.3138 H       1  LIG1        0.0269
     40 H          -3.5550   -3.2112   -1.8911 H       1  LIG1        0.0269
     41 H          -2.6230   -2.6896    1.7987 H       1  LIG1        0.0636
     42 H          -0.8114   -3.9325   -0.2975 H       1  LIG1        0.0342
     43 H          -0.6092   -3.8322    1.4440 H       1  LIG1        0.0342
     44 H          -2.9674   -4.6666   -0.2190 H       1  LIG1        0.2100
     45 H          -4.7989   -0.7718   -0.4803 H       1  LIG1        0.0269
     46 H          -4.5265   -1.2577    1.1819 H       1  LIG1        0.0269
     47 H          -5.1057   -2.4542    0.0014 H       1  LIG1        0.0269
     48 H           2.6501   -2.8726    1.2558 H       1  LIG1        0.2923
@<TRIPOS>BOND
     1     1     2    2
     2     2     3   ar
     3     3     4   ar
     4     4     5   ar
     5     5     6   ar
     6     6     7   ar
     7     7     8   ar
     8     8     9   ar
     9     9    10   ar
    10    10    11   ar
    11     6    11   ar
    12     2    11   ar
    13     7    12    1
    14     5    13    1
    15     4    14   ar
    16    14    15    1
    17    15    16    1
    18    14    17   ar
    19    17    18   ar
    20    18    19   ar
    21     3    19   ar
    22    19    20    1
    23    20    21    1
    24    21    22    1
    25    21    23    1
    26    23    24    1
    27    18    24    1
    28    23    25    1
    29    21    26    1
    30    17    27    1
    31     8    28    1
    32     9    29    1
    33    10    30    1
    34    12    31    1
    35    13    32    1
    36    13    33    1
    37    13    34    1
    38    16    35    1
    39    16    36    1
    40    16    37    1
    41    22    38    1
    42    22    39    1
    43    22    40    1
    44    23    41    1
    45    24    42    1
    46    24    43    1
    47    25    44    1
    48    26    45    1
    49    26    46    1
    50    26    47    1
    51    27    48    1
