@<TRIPOS>MOLECULE
NuBBE_638
 96 98 0 0 0
SMALL
GASTEIGER

@<TRIPOS>ATOM
      1 O          -4.6557   -1.8414   -1.0768 O.3     1  LIG1       -0.3877
      2 C          -3.3629   -1.2434   -1.1604 C.3     1  LIG1        0.0741
      3 H          -3.5375   -0.1758   -1.0452 H       1  LIG1        0.0638
      4 C          -2.5346   -1.8562   -0.0871 C.2     1  LIG1       -0.0499
      5 C          -1.2538   -2.2011   -0.3354 C.2     1  LIG1        0.0125
      6 C          -0.5107   -3.3006    0.3468 C.3     1  LIG1        0.2315
      7 H          -0.2921   -3.0319    1.3918 H       1  LIG1        0.1111
      8 O          -1.2890   -4.4950    0.3133 O.3     1  LIG1       -0.4311
      9 C          -1.4495   -5.0629   -0.9179 C.2     1  LIG1        0.3063
     10 C          -2.8998   -5.1234   -1.2510 C.3     1  LIG1        0.0333
     11 O          -0.5793   -5.4522   -1.6729 O.2     1  LIG1       -0.2511
     12 O           0.6980   -3.4500   -0.3548 O.3     1  LIG1       -0.2971
     13 C           0.5276   -2.9279   -1.6954 C.3     1  LIG1        0.2216
     14 H          -0.1367   -3.5217   -2.3047 H       1  LIG1        0.1068
     15 O           1.8348   -3.0826   -2.3380 O.3     1  LIG1       -0.4341
     16 C           2.3979   -3.8490   -3.3261 C.2     1  LIG1        0.3061
     17 C           3.9642   -3.5167   -3.4538 C.3     1  LIG1        0.0333
     18 O           1.7757   -4.4637   -4.1882 O.2     1  LIG1       -0.2511
     19 C          -0.3163   -1.5772   -1.4298 C.3     1  LIG1        0.1036
     20 C           0.2255   -0.3875   -0.5385 C.3     1  LIG1        0.1554
     21 H          -0.4734   -0.3369    0.3041 H       1  LIG1        0.0783
     22 O           1.3668   -0.5686    0.3893 O.3     1  LIG1       -0.4567
     23 C           2.4223   -1.4523    0.2236 C.2     1  LIG1        0.3043
     24 C           3.2399   -1.6398    1.4495 C.3     1  LIG1        0.0332
     25 O           2.7865   -2.0335   -0.6967 O.2     1  LIG1       -0.2512
     26 C          -0.0702    1.0724   -1.0437 C.3     1  LIG1        0.1441
     27 H           0.8029    1.4867   -1.4927 H       1  LIG1        0.0775
     28 O          -0.1973    1.9889    0.0599 O.3     1  LIG1       -0.4542
     29 C          -1.2027    1.8397    0.9553 C.2     1  LIG1        0.3323
     30 C          -0.7666    2.3922    2.2228 C.2     1  LIG1        0.0225
     31 C           0.5405    2.5838    2.4342 C.2     1  LIG1       -0.0553
     32 C           1.0409    3.0378    3.6770 C.2     1  LIG1       -0.0655
     33 C           0.6912    4.2052    4.2256 C.2     1  LIG1       -0.0840
     34 C           1.2139    4.5879    5.5710 C.3     1  LIG1       -0.0345
     35 C           1.2981    3.3975    6.5419 C.3     1  LIG1       -0.0496
     36 C           0.0160    2.5521    6.7112 C.3     1  LIG1       -0.0530
     37 C          -1.1636    3.2844    7.3565 C.3     1  LIG1       -0.0559
     38 C          -1.7536    4.4311    6.5493 C.3     1  LIG1       -0.0653
     39 O          -2.2543    1.2535    0.8010 O.2     1  LIG1       -0.2456
     40 C          -1.2429    1.2408   -2.0181 C.3     1  LIG1        0.0026
     41 H          -2.1225    0.9275   -1.4785 H       1  LIG1        0.0340
     42 C          -1.5605    2.7093   -2.3091 C.3     1  LIG1       -0.0584
     43 C          -1.1470    0.3187   -3.2452 C.3     1  LIG1       -0.0217
     44 C          -2.3803    0.5584   -4.1945 C.3     1  LIG1       -0.0589
     45 C           0.0419    0.6726   -4.2035 C.3     1  LIG1       -0.0430
     46 C           1.4809    0.8781   -3.7646 C.3     1  LIG1       -0.0277
     47 C           2.2298   -0.2985   -3.3931 C.2     1  LIG1       -0.0550
     48 C           3.3190   -0.2273   -2.4138 C.2     1  LIG1       -0.0662
     49 C           3.4103    0.5125   -1.3026 C.2     1  LIG1       -0.0985
     50 C           2.0745   -1.3081   -4.2144 C.2     1  LIG1       -0.0955
     51 C          -1.2096   -1.1741   -2.7049 C.3     1  LIG1       -0.0138
     52 H          -0.8488   -1.7959   -3.5338 H       1  LIG1        0.0319
     53 C          -2.7115   -1.6453   -2.4968 C.3     1  LIG1       -0.0188
     54 H          -5.1089   -1.4019   -0.3332 H       1  LIG1        0.2102
     55 H          -3.0612   -2.2188    0.7930 H       1  LIG1        0.0599
     56 H          -3.3253   -4.1257   -1.2971 H       1  LIG1        0.0342
     57 H          -3.4075   -5.6978   -0.4842 H       1  LIG1        0.0342
     58 H          -3.0178   -5.5833   -2.2338 H       1  LIG1        0.0342
     59 H           4.5809   -4.3771   -3.6631 H       1  LIG1        0.0342
     60 H           4.3083   -3.0320   -2.5354 H       1  LIG1        0.0342
     61 H           4.2364   -2.7995   -4.2667 H       1  LIG1        0.0342
     62 H           2.9212   -1.0539    2.2763 H       1  LIG1        0.0342
     63 H           4.2900   -1.3945    1.1527 H       1  LIG1        0.0342
     64 H           3.1714   -2.7167    1.5751 H       1  LIG1        0.0342
     65 H          -1.5277    2.5288    2.9781 H       1  LIG1        0.0689
     66 H           1.3111    2.3547    1.7008 H       1  LIG1        0.0620
     67 H           1.7293    2.3552    4.1654 H       1  LIG1        0.0615
     68 H          -0.0016    4.8743    3.7149 H       1  LIG1        0.0572
     69 H           0.6284    5.3974    5.9942 H       1  LIG1        0.0307
     70 H           2.1884    5.0647    5.4443 H       1  LIG1        0.0307
     71 H           1.6324    3.7568    7.5186 H       1  LIG1        0.0268
     72 H           2.0984    2.7295    6.1947 H       1  LIG1        0.0268
     73 H           0.2739    1.6896    7.3438 H       1  LIG1        0.0265
     74 H          -0.3105    2.1073    5.7635 H       1  LIG1        0.0265
     75 H          -0.8535    3.6486    8.3410 H       1  LIG1        0.0263
     76 H          -1.9688    2.5585    7.5239 H       1  LIG1        0.0263
     77 H          -1.0673    5.2541    6.4161 H       1  LIG1        0.0230
     78 H          -2.5800    4.9025    7.0829 H       1  LIG1        0.0230
     79 H          -2.0855    4.1021    5.5598 H       1  LIG1        0.0230
     80 H          -1.8643    3.2149   -1.3859 H       1  LIG1        0.0234
     81 H          -2.4142    2.8144   -2.9845 H       1  LIG1        0.0234
     82 H          -0.7008    3.2351   -2.7243 H       1  LIG1        0.0234
     83 H          -2.2616    1.4549   -4.8134 H       1  LIG1        0.0235
     84 H          -3.3111    0.6954   -3.6339 H       1  LIG1        0.0235
     85 H          -2.5120   -0.2745   -4.8985 H       1  LIG1        0.0235
     86 H          -0.1633    1.6573   -4.6333 H       1  LIG1        0.0274
     87 H          -0.0019   -0.0165   -5.0629 H       1  LIG1        0.0274
     88 H           1.6254    1.6413   -3.0263 H       1  LIG1        0.0313
     89 H           2.0635    1.2107   -4.6299 H       1  LIG1        0.0313
     90 H           4.0661   -1.0235   -2.4286 H       1  LIG1        0.0614
     91 H           2.5954    1.1090   -0.9332 H       1  LIG1        0.0535
     92 H           4.1586    0.2373   -0.5575 H       1  LIG1        0.0535
     93 H           1.4451   -1.6726   -5.0187 H       1  LIG1        0.0537
     94 H           2.8262   -1.9550   -3.9449 H       1  LIG1        0.0537
     95 H          -2.6923   -2.7367   -2.5735 H       1  LIG1        0.0296
     96 H          -3.3898   -1.4048   -3.3182 H       1  LIG1        0.0296
@<TRIPOS>BOND
     1     2     4    1
     2     4     5    2
     3     5     6    1
     4     6     7    1
     5     6     8    1
     6     8     9    1
     7     9    10    1
     8     9    11    2
     9     6    12    1
    10    12    13    1
    11    13    14    1
    12    13    15    1
    13    15    16    1
    14    16    17    1
    15    16    18    2
    16     5    19    1
    17    13    19    1
    18    19    20    1
    19    22    23    1
    20    23    24    1
    21    23    25    2
    22    20    26    1
    23    26    27    1
    24    26    28    1
    25    28    29    1
    26    29    30    1
    27    30    31    2
    28    31    32    1
    29    32    33    2
    30    33    34    1
    31    34    35    1
    32    35    36    1
    33    36    37    1
    34    37    38    1
    35    29    39    2
    36    26    40    1
    37    40    41    1
    38    40    42    1
    39    40    43    1
    40    43    44    1
    41    43    45    1
    42    45    46    1
    43    46    47    1
    44    47    48    1
    45    48    49    2
    46    47    50    2
    47    19    51    1
    48    43    51    1
    49    51    52    1
    50    51    53    1
    51     2    53    1
    52     2     3    1
    53     2     1    1
    54    20    22    1
    55    20    21    1
    56     1    54    1
    57     4    55    1
    58    10    56    1
    59    10    57    1
    60    10    58    1
    61    17    59    1
    62    17    60    1
    63    17    61    1
    64    24    62    1
    65    24    63    1
    66    24    64    1
    67    30    65    1
    68    31    66    1
    69    32    67    1
    70    33    68    1
    71    34    69    1
    72    34    70    1
    73    35    71    1
    74    35    72    1
    75    36    73    1
    76    36    74    1
    77    37    75    1
    78    37    76    1
    79    38    77    1
    80    38    78    1
    81    38    79    1
    82    42    80    1
    83    42    81    1
    84    42    82    1
    85    44    83    1
    86    44    84    1
    87    44    85    1
    88    45    86    1
    89    45    87    1
    90    46    88    1
    91    46    89    1
    92    48    90    1
    93    49    91    1
    94    49    92    1
    95    50    93    1
    96    50    94    1
    97    53    95    1
    98    53    96    1
