@<TRIPOS>MOLECULE
NuBBE_663
 24 26 0 0 0
SMALL
GASTEIGER

@<TRIPOS>ATOM
      1 O          -4.8075   -0.8037    0.5896 O.2     1  LIG1       -0.2452
      2 C          -3.6089   -0.6930    0.3618 C.ar    1  LIG1        0.3372
      3 C          -2.8026   -1.8631   -0.0199 C.ar    1  LIG1        0.0237
      4 C          -1.4915   -1.7807   -0.2641 C.ar    1  LIG1       -0.0408
      5 O          -2.9424    0.5207    0.4475 O.2     1  LIG1       -0.4219
      6 C          -1.5560    0.6281    0.1872 C.ar    1  LIG1        0.1461
      7 C          -0.8037   -0.4977   -0.1595 C.ar    1  LIG1        0.0600
      8 C           0.5790   -0.3538   -0.3918 C.ar    1  LIG1        0.1414
      9 O           1.3203   -1.4591   -0.7608 O.3     1  LIG1       -0.4937
     10 C           2.1373   -1.8914    0.3283 C.3     1  LIG1        0.0788
     11 C          -1.0096    1.9094    0.2971 C.ar    1  LIG1        0.0245
     12 C           0.3493    2.0074    0.0187 C.ar    1  LIG1        0.1418
     13 C           1.1607    0.9321   -0.3298 C.ar    1  LIG1        0.0625
     14 C           2.4514    1.4873   -0.5528 C.ar    1  LIG1       -0.0126
     15 C           2.3452    2.8370   -0.3104 C.ar    1  LIG1        0.0933
     16 O           1.0739    3.1601    0.0403 O.2     1  LIG1       -0.4627
     17 H          -3.3391   -2.8011   -0.0945 H       1  LIG1        0.0689
     18 H          -0.9228   -2.6587   -0.5519 H       1  LIG1        0.0628
     19 H           2.5191   -2.8872    0.0836 H       1  LIG1        0.0660
     20 H           1.5654   -1.9687    1.2601 H       1  LIG1        0.0660
     21 H           2.9953   -1.2256    0.4619 H       1  LIG1        0.0660
     22 H          -1.6024    2.7754    0.5625 H       1  LIG1        0.0692
     23 H           3.3465    0.9638   -0.8569 H       1  LIG1        0.0656
     24 H           3.0430    3.6623   -0.3462 H       1  LIG1        0.1030
@<TRIPOS>BOND
     1     1     2    2
     2     2     3   ar
     3     3     4   ar
     4     2     5   ar
     5     5     6   ar
     6     6     7   ar
     7     4     7   ar
     8     7     8   ar
     9     8     9    1
    10     9    10    1
    11     6    11   ar
    12    11    12   ar
    13    12    13   ar
    14     8    13   ar
    15    13    14   ar
    16    14    15   ar
    17    15    16   ar
    18    12    16   ar
    19     3    17    1
    20     4    18    1
    21    10    19    1
    22    10    20    1
    23    10    21    1
    24    11    22    1
    25    14    23    1
    26    15    24    1
