REMARK  Name = NuBBE_1334
REMARK  10 active torsions:
REMARK  status: ('A' for Active; 'I' for Inactive)
REMARK    1  A    between atoms: C_1  and  C_2
REMARK    2  A    between atoms: C_2  and  C_3
REMARK    3  A    between atoms: C_6  and  C_7
REMARK    4  A    between atoms: C_8  and  C_9
REMARK    5  A    between atoms: C_9  and  O_10
REMARK    6  A    between atoms: O_10  and  C_11
REMARK    7  A    between atoms: C_16  and  C_17
REMARK    8  A    between atoms: C_19  and  O_21
REMARK    9  A    between atoms: C_23  and  C_24
REMARK   10  A    between atoms: C_31  and  C_33
REMARK                            x       y       z     vdW  Elec       q    Type
REMARK                         _______ _______ _______ _____ _____    ______ ____
ROOT
ATOM      1  C   LIG A   1       0.653  -0.681  -4.668  0.00  0.00    +0.056 C 
ATOM      2  C   LIG A   1       1.811  -0.151  -3.826  0.00  0.00    +0.113 C 
ATOM      3  C   LIG A   1       3.127  -0.415  -4.572  0.00  0.00    +0.056 C 
ATOM      4  O   LIG A   1       1.658   1.276  -3.743  0.00  0.00    -0.458 OA
ATOM      5  C   LIG A   1       1.237   1.666  -2.509  0.00  0.00    +0.318 C 
ATOM      6  C   LIG A   1       1.196   0.488  -1.533  0.00  0.00    +0.099 C 
ATOM      7  C   LIG A   1       1.910  -0.606  -2.361  0.00  0.00    +0.060 C 
ATOM      8  C   LIG A   1       1.556  -2.038  -1.973  0.00  0.00    +0.083 C 
ATOM      9  C   LIG A   1       0.708  -2.063  -0.709  0.00  0.00    +0.143 C 
ATOM     10  C   LIG A   1      -0.647  -1.343  -0.773  0.00  0.00    +0.065 C 
ATOM     11  C   LIG A   1      -1.470  -2.070  -1.886  0.00  0.00    +0.022 C 
ATOM     12  C   LIG A   1      -0.346   0.137  -1.268  0.00  0.00    +0.055 C 
ATOM     13  C   LIG A   1      -1.233   1.266  -0.659  0.00  0.00    +0.121 C 
ATOM     14  C   LIG A   1      -2.293   0.818   0.332  0.00  0.00    +0.045 C 
ATOM     15  C   LIG A   1      -1.792  -0.205   1.368  0.00  0.00    +0.044 C 
ATOM     16  C   LIG A   1      -0.545   0.239   2.158  0.00  0.00    +0.018 C 
ATOM     17  C   LIG A   1      -1.454  -1.462   0.573  0.00  0.00    +0.129 C 
ATOM     18  O   LIG A   1      -2.610  -2.333   0.425  0.00  0.00    -0.351 OA
ATOM     19  C   LIG A   1      -1.605  -2.774   1.337  0.00  0.00    +0.260 C 
ATOM     20  C   LIG A   1      -2.035  -2.781   2.756  0.00  0.00    +0.340 C 
ATOM     21  O   LIG A   1      -2.584  -1.641   3.257  0.00  0.00    -0.454 OA
ATOM     22  C   LIG A   1      -2.950  -0.536   2.389  0.00  0.00    +0.218 C 
ATOM     23  O   LIG A   1      -1.869  -3.781   3.449  0.00  0.00    -0.248 OA
ATOM     24  O   LIG A   1       1.120  -2.619   0.307  0.00  0.00    -0.297 OA
ATOM     25  O   LIG A   1       0.882   2.810  -2.256  0.00  0.00    -0.250 OA
ENDROOT
BRANCH  22  26
ATOM     26  C   LIG A   1      -3.372   0.637   3.246  0.00  0.00    +0.031 A 
ATOM     27  C   LIG A   1      -4.301   1.613   2.936  0.00  0.00    +0.202 A 
ATOM     28  O   LIG A   1      -4.414   2.520   3.938  0.00  0.00    -0.471 OA
ATOM     29  C   LIG A   1      -3.576   2.121   4.926  0.00  0.00    +0.195 A 
ATOM     30  C   LIG A   1      -2.925   0.966   4.562  0.00  0.00    +0.048 A 
ENDBRANCH  22  26
BRANCH   6  31
ATOM     31  C   LIG A   1       2.018   0.894  -0.305  0.00  0.00    -0.001 C 
ATOM     32  C   LIG A   1       3.327   0.708  -0.043  0.00  0.00    +0.088 C 
BRANCH  32  33
ATOM     33  C   LIG A   1       4.013   1.248   1.154  0.00  0.00    +0.331 C 
ATOM     34  O   LIG A   1       5.229   1.338   1.219  0.00  0.00    -0.246 OA
BRANCH  33  35
ATOM     35  O   LIG A   1       3.122   1.592   2.110  0.00  0.00    -0.465 OA
ATOM     36  C   LIG A   1       3.708   2.161   3.277  0.00  0.00    +0.280 C 
ENDBRANCH  33  35
ENDBRANCH  32  33
ENDBRANCH   6  31
BRANCH  13  37
ATOM     37  O   LIG A   1      -0.504   2.311  -0.038  0.00  0.00    -0.391 OA
ATOM     38  H   LIG A   1      -0.156   2.906  -0.739  0.00  0.00    +0.210 HD
ENDBRANCH  13  37
TORSDOF 5
