REMARK  Name = NuBBE_2221
REMARK  15 active torsions:
REMARK  status: ('A' for Active; 'I' for Inactive)
REMARK    1  A    between atoms: C_1  and  C_3
REMARK    2  A    between atoms: C_1  and  C_17
REMARK    3  A    between atoms: C_3  and  O_4
REMARK    4  A    between atoms: C_3  and  C_16
REMARK    5  A    between atoms: O_4  and  C_5
REMARK    6  A    between atoms: C_6  and  O_7
REMARK    7  A    between atoms: O_7  and  C_8
REMARK    8  A    between atoms: C_10  and  C_13
REMARK    9  A    between atoms: C_14  and  C_15
REMARK   10  A    between atoms: C_19  and  O_20
REMARK   11  A    between atoms: O_20  and  C_21
REMARK   12  A    between atoms: C_22  and  O_27
REMARK   13  A    between atoms: C_23  and  O_25
REMARK   14  A    between atoms: O_25  and  C_26
REMARK   15  A    between atoms: O_27  and  C_28
REMARK                            x       y       z     vdW  Elec       q    Type
REMARK                         _______ _______ _______ _____ _____    ______ ____
ROOT
ATOM      1  C   LIG A   1       1.804   0.960  -1.943  0.00  0.00    +0.203 C 
ATOM      2  O   LIG A   1       2.445   1.349  -2.902  0.00  0.00    -0.288 OA
ENDROOT
BRANCH   1   3
ATOM      3  C   LIG A   1       1.367   2.014  -0.944  0.00  0.00    +0.028 A 
ATOM      4  C   LIG A   1       1.168   1.737   0.404  0.00  0.00    +0.061 A 
ATOM      5  C   LIG A   1       0.764   2.746   1.303  0.00  0.00    +0.166 A 
ATOM      6  C   LIG A   1       0.550   4.070   0.851  0.00  0.00    +0.203 A 
ATOM      7  C   LIG A   1       0.767   4.371  -0.514  0.00  0.00    +0.166 A 
ATOM      8  C   LIG A   1       1.203   3.346  -1.383  0.00  0.00    +0.061 A 
BRANCH   5   9
ATOM      9  O   LIG A   1       0.551   2.255   2.573  0.00  0.00    -0.491 OA
ATOM     10  C   LIG A   1       0.620   3.146   3.683  0.00  0.00    +0.277 C 
ENDBRANCH   5   9
BRANCH   7  11
ATOM     11  O   LIG A   1       0.602   5.673  -0.929  0.00  0.00    -0.491 OA
ATOM     12  C   LIG A   1       0.423   5.921  -2.325  0.00  0.00    +0.277 C 
ENDBRANCH   7  11
BRANCH   6  13
ATOM     13  O   LIG A   1       0.221   4.979   1.819  0.00  0.00    -0.488 OA
ATOM     14  C   LIG A   1      -0.630   6.079   1.549  0.00  0.00    +0.277 C 
ENDBRANCH   6  13
ENDBRANCH   1   3
BRANCH   1  15
ATOM     15  C   LIG A   1       1.511  -0.574  -1.705  0.00  0.00    +0.241 C 
ATOM     16  C   LIG A   1       1.563  -1.319  -3.051  0.00  0.00    +0.061 C 
BRANCH  15  17
ATOM     17  O   LIG A   1       0.242  -0.823  -1.107  0.00  0.00    -0.478 OA
BRANCH  17  18
ATOM     18  C   LIG A   1      -0.140  -2.065  -0.661  0.00  0.00    +0.163 A 
ATOM     19  C   LIG A   1      -1.509  -2.271  -0.403  0.00  0.00    +0.162 A 
ATOM     20  C   LIG A   1      -2.007  -3.571  -0.139  0.00  0.00    +0.057 A 
ATOM     21  C   LIG A   1      -1.134  -4.656   0.030  0.00  0.00    -0.022 A 
ATOM     22  C   LIG A   1       0.234  -4.413  -0.149  0.00  0.00    +0.012 A 
ATOM     23  C   LIG A   1       0.726  -3.138  -0.470  0.00  0.00    +0.050 A 
BRANCH  21  24
ATOM     24  C   LIG A   1      -1.631  -5.993   0.438  0.00  0.00    +0.003 C 
ATOM     25  C   LIG A   1      -0.887  -6.861   1.150  0.00  0.00    -0.030 C 
ATOM     26  C   LIG A   1      -1.329  -8.187   1.679  0.00  0.00    +0.035 C 
ENDBRANCH  21  24
BRANCH  19  27
ATOM     27  O   LIG A   1      -2.454  -1.270  -0.429  0.00  0.00    -0.491 OA
ATOM     28  C   LIG A   1      -2.085  -0.054   0.232  0.00  0.00    +0.277 C 
ENDBRANCH  19  27
ENDBRANCH  17  18
ENDBRANCH  15  17
ENDBRANCH   1  15
TORSDOF 9
