REMARK  Name = NuBBE_289
REMARK  11 active torsions:
REMARK  status: ('A' for Active; 'I' for Inactive)
REMARK    1  A    between atoms: O_1  and  C_2
REMARK    2  A    between atoms: C_3  and  C_4
REMARK    3  A    between atoms: C_4  and  C_5
REMARK    4  A    between atoms: C_6  and  C_7
REMARK    5  A    between atoms: C_6  and  C_8
REMARK    6  A    between atoms: C_8  and  C_9
REMARK    7  A    between atoms: C_9  and  C_10
REMARK    8  A    between atoms: C_11  and  C_12
REMARK    9  A    between atoms: C_11  and  C_13
REMARK   10  A    between atoms: C_16  and  C_17
REMARK   11  A    between atoms: C_17  and  O_18
REMARK                            x       y       z     vdW  Elec       q    Type
REMARK                         _______ _______ _______ _____ _____    ______ ____
ROOT
ATOM      1  C   LIG A   1       4.043   1.205  -1.438  0.00  0.00    +0.128 A 
ATOM      2  C   LIG A   1       2.909   0.704  -0.777  0.00  0.00    +0.064 A 
ATOM      3  C   LIG A   1       2.647   1.129   0.534  0.00  0.00    +0.030 A 
ATOM      4  C   LIG A   1       3.479   2.081   1.149  0.00  0.00    +0.060 A 
ATOM      5  C   LIG A   1       4.579   2.601   0.456  0.00  0.00    +0.018 A 
ATOM      6  C   LIG A   1       4.864   2.156  -0.834  0.00  0.00    +0.047 A 
ENDROOT
BRANCH   1   7
ATOM      7  O   LIG A   1       4.410   0.805  -2.696  0.00  0.00    -0.506 OA
ATOM      8  H   LIG A   1       3.866   0.020  -2.934  0.00  0.00    +0.292 HD
ENDBRANCH   1   7
BRANCH   2   9
ATOM      9  C   LIG A   1       2.025  -0.260  -1.491  0.00  0.00    +0.190 C 
ATOM     10  O   LIG A   1       2.514  -0.933  -2.394  0.00  0.00    -0.287 OA
BRANCH   9  11
ATOM     11  C   LIG A   1       0.572  -0.295  -1.144  0.00  0.00    +0.050 C 
ATOM     12  C   LIG A   1      -0.373  -1.056  -1.734  0.00  0.00    -0.069 C 
ATOM     13  C   LIG A   1      -0.143  -2.032  -2.855  0.00  0.00    +0.039 C 
BRANCH  12  14
ATOM     14  C   LIG A   1      -1.819  -0.924  -1.288  0.00  0.00    +0.034 C 
BRANCH  14  15
ATOM     15  C   LIG A   1      -2.158  -1.896  -0.152  0.00  0.00    +0.031 C 
BRANCH  15  16
ATOM     16  C   LIG A   1      -3.590  -1.751   0.285  0.00  0.00    -0.028 C 
ATOM     17  C   LIG A   1      -4.064  -0.954   1.263  0.00  0.00    -0.080 C 
ATOM     18  C   LIG A   1      -3.225  -0.027   2.099  0.00  0.00    +0.038 C 
ATOM     19  C   LIG A   1      -5.535  -0.921   1.585  0.00  0.00    +0.038 C 
ENDBRANCH  15  16
ENDBRANCH  14  15
ENDBRANCH  12  14
ENDBRANCH   9  11
ENDBRANCH   2   9
BRANCH   4  20
ATOM     20  C   LIG A   1       3.223   2.564   2.529  0.00  0.00    +0.337 C 
ATOM     21  O   LIG A   1       3.882   3.386   3.133  0.00  0.00    -0.245 OA
BRANCH  20  22
ATOM     22  O   LIG A   1       2.140   1.988   3.080  0.00  0.00    -0.477 OA
ATOM     23  H   LIG A   1       2.093   2.383   3.976  0.00  0.00    +0.295 HD
ENDBRANCH  20  22
ENDBRANCH   4  20
TORSDOF 8
