REMARK  Name = NuBBE_1367
REMARK  5 active torsions:
REMARK  status: ('A' for Active; 'I' for Inactive)
REMARK    1  A    between atoms: O_1  and  C_2
REMARK    2  A    between atoms: C_3  and  C_10
REMARK    3  A    between atoms: C_6  and  O_7
REMARK    4  A    between atoms: O_7  and  C_8
REMARK    5  A    between atoms: C_11  and  C_12
REMARK                            x       y       z     vdW  Elec       q    Type
REMARK                         _______ _______ _______ _____ _____    ______ ____
ROOT
ATOM      1  C   LIG A   1      -0.841  -0.339  -0.183  0.00  0.00    +0.127 A 
ATOM      2  C   LIG A   1      -0.117   0.859  -0.243  0.00  0.00    +0.017 A 
ATOM      3  C   LIG A   1       1.277   0.792  -0.339  0.00  0.00    +0.015 A 
ATOM      4  C   LIG A   1       1.924  -0.449  -0.372  0.00  0.00    +0.046 A 
ATOM      5  C   LIG A   1       1.194  -1.638  -0.299  0.00  0.00    +0.124 A 
ATOM      6  C   LIG A   1      -0.195  -1.577  -0.194  0.00  0.00    +0.091 A 
ENDROOT
BRANCH   1   7
ATOM      7  O   LIG A   1      -2.208  -0.379  -0.126  0.00  0.00    -0.506 OA
ATOM      8  H   LIG A   1      -2.553   0.513  -0.292  0.00  0.00    +0.292 HD
ENDBRANCH   1   7
BRANCH   5   9
ATOM      9  O   LIG A   1       1.945  -2.780  -0.349  0.00  0.00    -0.495 OA
ATOM     10  C   LIG A   1       1.237  -4.013  -0.294  0.00  0.00    +0.277 C 
ENDBRANCH   5   9
BRANCH   2  11
ATOM     11  C   LIG A   1      -0.761   2.175  -0.203  0.00  0.00    +0.015 C 
ATOM     12  C   LIG A   1      -0.992   2.802   0.960  0.00  0.00    +0.043 C 
BRANCH  12  13
ATOM     13  C   LIG A   1      -1.651   4.121   0.974  0.00  0.00    +0.251 C 
ATOM     14  O   LIG A   1      -1.883   4.705   2.024  0.00  0.00    -0.296 OA
ENDBRANCH  12  13
ENDBRANCH   2  11
TORSDOF 4
