@<TRIPOS>MOLECULE
NuBBE_1003
 84 88 0 0 0
SMALL
GASTEIGER

@<TRIPOS>ATOM
      1 C           0.5155   -1.5956   -6.0308 C.3     1  LIG1       -0.0572
      2 C           1.9656   -1.5828   -5.4853 C.3     1  LIG1       -0.0056
      3 C           2.8316   -0.7353   -6.4460 C.3     1  LIG1       -0.0572
      4 C           2.0359   -0.9611   -4.0408 C.3     1  LIG1       -0.0273
      5 C           1.3261    0.4226   -3.9986 C.3     1  LIG1       -0.0488
      6 C           0.9710    0.9630   -2.6215 C.3     1  LIG1       -0.0489
      7 C           0.0192    0.0083   -1.8819 C.3     1  LIG1       -0.0289
      8 C          -0.4619    0.5501   -0.4560 C.3     1  LIG1       -0.0231
      9 C           0.4857    1.6342    0.1169 C.3     1  LIG1       -0.0588
     10 C          -1.8783    1.1728   -0.5530 C.3     1  LIG1       -0.0466
     11 C          -2.4304    1.1625    0.8772 C.3     1  LIG1       -0.0489
     12 C          -1.7840   -0.0364    1.6374 C.3     1  LIG1       -0.0325
     13 H          -2.5639   -0.8075    1.7394 H       1  LIG1        0.0309
     14 C          -1.4158    0.4182    3.1519 C.3     1  LIG1       -0.0402
     15 H          -0.9770    1.4188    3.0942 H       1  LIG1        0.0301
     16 C          -2.7226    0.5352    4.0151 C.3     1  LIG1       -0.0465
     17 C          -2.7747    1.2379    5.4233 C.3     1  LIG1       -0.0315
     18 C          -2.3754    2.6917    5.6629 C.2     1  LIG1       -0.0740
     19 C          -0.8951    3.0195    5.8892 C.3     1  LIG1       -0.0258
     20 C          -0.3617    4.0690    4.9027 C.3     1  LIG1       -0.0590
     21 C          -0.6648    3.5149    7.3366 C.3     1  LIG1       -0.0590
     22 C          -3.3133    3.6518    5.9684 C.2     1  LIG1       -0.0992
     23 C          -0.3954   -0.4745    3.8776 C.3     1  LIG1       -0.0621
     24 C          -0.7107   -0.6020    0.5913 C.3     1  LIG1       -0.0233
     25 C           0.6028   -1.0545    1.2235 C.3     1  LIG1       -0.0588
     26 C          -1.3222   -1.8145   -0.1923 C.3     1  LIG1       -0.0463
     27 C          -0.3554   -2.4291   -1.2131 C.3     1  LIG1       -0.0460
     28 C           0.6023   -1.4164   -1.8246 C.3     1  LIG1       -0.0194
     29 C           2.0845   -1.5591   -1.5536 C.3     1  LIG1       -0.0401
     30 C           1.5820   -1.9266   -2.9243 C.3     1  LIG1       -0.0193
     31 C           1.8687   -3.4199   -3.1269 C.3     1  LIG1       -0.0442
     32 C           1.7330   -3.9240   -4.5426 C.3     1  LIG1       -0.0258
     33 C           2.5015   -3.0373   -5.5077 C.3     1  LIG1        0.0606
     34 H           2.3889   -3.4551   -6.5149 H       1  LIG1        0.0599
     35 O           3.8998   -3.1006   -5.2218 O.3     1  LIG1       -0.3912
     36 H          -0.2005   -1.9246   -5.2697 H       1  LIG1        0.0236
     37 H           0.4216   -2.2663   -6.8918 H       1  LIG1        0.0236
     38 H           0.1992   -0.6068   -6.3787 H       1  LIG1        0.0236
     39 H           3.8619   -0.6449   -6.0834 H       1  LIG1        0.0236
     40 H           2.4354    0.2783   -6.5635 H       1  LIG1        0.0236
     41 H           2.8671   -1.1886   -7.4425 H       1  LIG1        0.0236
     42 H           3.0981   -0.7639   -3.8282 H       1  LIG1        0.0312
     43 H           0.3887    0.4022   -4.5587 H       1  LIG1        0.0268
     44 H           1.9649    1.1610   -4.4985 H       1  LIG1        0.0268
     45 H           0.4817    1.9363   -2.7496 H       1  LIG1        0.0268
     46 H           1.8934    1.1489   -2.0627 H       1  LIG1        0.0268
     47 H          -0.8739   -0.0839   -2.5182 H       1  LIG1        0.0312
     48 H           0.5264    2.5177   -0.5284 H       1  LIG1        0.0235
     49 H           1.5064    1.2585    0.2324 H       1  LIG1        0.0235
     50 H           0.1594    1.9905    1.0982 H       1  LIG1        0.0235
     51 H          -2.5428    0.5898   -1.2015 H       1  LIG1        0.0271
     52 H          -1.8615    2.1892   -0.9648 H       1  LIG1        0.0271
     53 H          -3.5242    1.0949    0.8678 H       1  LIG1        0.0268
     54 H          -2.1798    2.1128    1.3623 H       1  LIG1        0.0268
     55 H          -3.0676   -0.4968    4.1952 H       1  LIG1        0.0271
     56 H          -3.5039    0.9999    3.4073 H       1  LIG1        0.0271
     57 H          -2.2661    0.6001    6.1694 H       1  LIG1        0.0310
     58 H          -3.8316    1.1584    5.7072 H       1  LIG1        0.0310
     59 H          -0.2976    2.1016    5.7729 H       1  LIG1        0.0340
     60 H          -1.1604    4.5832    4.3561 H       1  LIG1        0.0235
     61 H           0.2918    3.5979    4.1626 H       1  LIG1        0.0235
     62 H           0.2318    4.8376    5.4108 H       1  LIG1        0.0235
     63 H          -1.2443    4.4265    7.5549 H       1  LIG1        0.0235
     64 H           0.3828    3.7682    7.5084 H       1  LIG1        0.0235
     65 H          -0.9647    2.7567    8.0634 H       1  LIG1        0.0235
     66 H          -4.3363    3.4419    6.0338 H       1  LIG1        0.0534
     67 H          -2.9977    4.6342    6.2214 H       1  LIG1        0.0534
     68 H          -0.5118   -0.4830    4.9626 H       1  LIG1        0.0233
     69 H           0.6170   -0.0837    3.7240 H       1  LIG1        0.0233
     70 H          -0.4318   -1.5158    3.5430 H       1  LIG1        0.0233
     71 H           1.0063   -0.3037    1.8906 H       1  LIG1        0.0235
     72 H           1.4107   -1.1429    0.5175 H       1  LIG1        0.0235
     73 H           0.5167   -2.0319    1.7034 H       1  LIG1        0.0235
     74 H          -2.2378   -1.5207   -0.7235 H       1  LIG1        0.0271
     75 H          -1.6394   -2.6027    0.5025 H       1  LIG1        0.0271
     76 H          -0.9313   -2.9146   -2.0122 H       1  LIG1        0.0271
     77 H           0.2058   -3.2243   -0.7076 H       1  LIG1        0.0271
     78 H           2.4195   -2.3580   -0.8922 H       1  LIG1        0.0276
     79 H           2.7175   -0.6880   -1.4299 H       1  LIG1        0.0276
     80 H           1.2298   -4.0384   -2.4881 H       1  LIG1        0.0272
     81 H           2.8939   -3.6275   -2.7872 H       1  LIG1        0.0272
     82 H           0.6745   -3.9836   -4.8157 H       1  LIG1        0.0290
     83 H           2.1281   -4.9467   -4.5830 H       1  LIG1        0.0290
     84 H           4.0628   -2.6832   -4.3598 H       1  LIG1        0.2098
@<TRIPOS>BOND
     1     2     4    1
     2     4     5    1
     3     5     6    1
     4     6     7    1
     5     7     8    1
     6     8    10    1
     7    10    11    1
     8    11    12    1
     9    14    15    1
    10    14    16    1
    11    16    17    1
    12    17    18    1
    13    18    19    1
    14    19    20    1
    15    19    21    1
    16    18    22    2
    17    14    23    1
    18    12    24    1
    19     8    24    1
    20    24    26    1
    21    26    27    1
    22    27    28    1
    23     7    28    1
    24    28    29    1
    25    29    30    1
    26     4    30    1
    27    28    30    1
    28    30    31    1
    29    31    32    1
    30    32    33    1
    31     2    33    1
    32     1     2    1
    33     2     3    1
    34     8     9    1
    35    24    25    1
    36    12    14    1
    37    12    13    1
    38    33    35    1
    39    33    34    1
    40     1    36    1
    41     1    37    1
    42     1    38    1
    43     3    39    1
    44     3    40    1
    45     3    41    1
    46     4    42    1
    47     5    43    1
    48     5    44    1
    49     6    45    1
    50     6    46    1
    51     7    47    1
    52     9    48    1
    53     9    49    1
    54     9    50    1
    55    10    51    1
    56    10    52    1
    57    11    53    1
    58    11    54    1
    59    16    55    1
    60    16    56    1
    61    17    57    1
    62    17    58    1
    63    19    59    1
    64    20    60    1
    65    20    61    1
    66    20    62    1
    67    21    63    1
    68    21    64    1
    69    21    65    1
    70    22    66    1
    71    22    67    1
    72    23    68    1
    73    23    69    1
    74    23    70    1
    75    25    71    1
    76    25    72    1
    77    25    73    1
    78    26    74    1
    79    26    75    1
    80    27    76    1
    81    27    77    1
    82    29    78    1
    83    29    79    1
    84    31    80    1
    85    31    81    1
    86    32    82    1
    87    32    83    1
    88    35    84    1
