REMARK  Name = NuBBE_1619
REMARK  10 active torsions:
REMARK  status: ('A' for Active; 'I' for Inactive)
REMARK    1  A    between atoms: O_1  and  C_2
REMARK    2  A    between atoms: O_1  and  C_13
REMARK    3  A    between atoms: C_2  and  C_3
REMARK    4  A    between atoms: C_4  and  C_5
REMARK    5  A    between atoms: C_4  and  C_12
REMARK    6  A    between atoms: C_5  and  C_6
REMARK    7  A    between atoms: C_6  and  C_7
REMARK    8  A    between atoms: C_6  and  O_11
REMARK    9  A    between atoms: C_8  and  C_9
REMARK   10  A    between atoms: C_8  and  C_10
REMARK                            x       y       z     vdW  Elec       q    Type
REMARK                         _______ _______ _______ _____ _____    ______ ____
ROOT
ATOM      1  O   LIG A   1       1.644   0.417   1.485  0.00  0.00    -0.488 OA
ENDROOT
BRANCH   1   2
ATOM      2  C   LIG A   1       2.943   0.073   1.762  0.00  0.00    +0.124 A 
ATOM      3  C   LIG A   1       3.649  -0.964   1.155  0.00  0.00    +0.092 A 
ATOM      4  C   LIG A   1       4.969  -1.211   1.536  0.00  0.00    +0.142 A 
ATOM      5  C   LIG A   1       5.609  -0.461   2.519  0.00  0.00    +0.018 A 
ATOM      6  C   LIG A   1       4.898   0.566   3.139  0.00  0.00    +0.015 A 
ATOM      7  C   LIG A   1       3.570   0.824   2.765  0.00  0.00    +0.046 A 
ATOM      8  C   LIG A   1       6.984  -0.787   2.866  0.00  0.00    +0.018 A 
ATOM      9  C   LIG A   1       7.603  -1.788   2.232  0.00  0.00    +0.092 A 
ATOM     10  C   LIG A   1       6.951  -2.589   1.180  0.00  0.00    +0.337 A 
ATOM     11  O   LIG A   1       7.550  -3.486   0.615  0.00  0.00    -0.245 OA
ATOM     12  O   LIG A   1       5.633  -2.265   0.878  0.00  0.00    -0.422 OA
ENDBRANCH   1   2
BRANCH   1  13
ATOM     13  C   LIG A   1       1.159   0.036   0.192  0.00  0.00    +0.257 C 
BRANCH  13  14
ATOM     14  C   LIG A   1      -0.256   0.526   0.032  0.00  0.00    +0.012 C 
ATOM     15  C   LIG A   1      -1.370  -0.184  -0.259  0.00  0.00    -0.071 C 
ATOM     16  C   LIG A   1      -1.423  -1.686  -0.385  0.00  0.00    +0.039 C 
BRANCH  15  17
ATOM     17  C   LIG A   1      -2.707   0.529  -0.460  0.00  0.00    +0.065 C 
BRANCH  17  18
ATOM     18  C   LIG A   1      -3.074   0.843  -1.934  0.00  0.00    +0.141 C 
BRANCH  18  19
ATOM     19  C   LIG A   1      -4.372   1.614  -2.017  0.00  0.00    +0.003 C 
ATOM     20  C   LIG A   1      -5.631   1.156  -2.184  0.00  0.00    -0.077 C 
ATOM     21  C   LIG A   1      -6.043  -0.281  -2.339  0.00  0.00    +0.038 C 
ATOM     22  C   LIG A   1      -6.797   2.114  -2.185  0.00  0.00    +0.038 C 
ENDBRANCH  18  19
BRANCH  18  23
ATOM     23  O   LIG A   1      -2.066   1.658  -2.545  0.00  0.00    -0.387 OA
ATOM     24  H   LIG A   1      -2.020   2.496  -2.057  0.00  0.00    +0.210 HD
ENDBRANCH  18  23
ENDBRANCH  17  18
ENDBRANCH  15  17
ENDBRANCH  13  14
ENDBRANCH   1  13
TORSDOF 7
