REMARK  Name = NuBBE_1556
REMARK  8 active torsions:
REMARK  status: ('A' for Active; 'I' for Inactive)
REMARK    1  A    between atoms: C_1  and  C_2
REMARK    2  A    between atoms: C_1  and  C_14
REMARK    3  A    between atoms: C_2  and  C_3
REMARK    4  A    between atoms: C_2  and  O_13
REMARK    5  A    between atoms: C_3  and  C_4
REMARK    6  A    between atoms: C_5  and  O_6
REMARK    7  A    between atoms: C_8  and  O_11
REMARK    8  A    between atoms: O_11  and  C_12
REMARK                            x       y       z     vdW  Elec       q    Type
REMARK                         _______ _______ _______ _____ _____    ______ ____
ROOT
ATOM      1  C   LIG A   1       0.572   0.708  -0.099  0.00  0.00    +0.123 C 
ENDROOT
BRANCH   1   2
ATOM      2  O   LIG A   1      -0.732   0.765  -0.694  0.00  0.00    -0.391 OA
ATOM      3  H   LIG A   1      -1.287   0.144  -0.190  0.00  0.00    +0.210 HD
ENDBRANCH   1   2
BRANCH   1   4
ATOM      4  C   LIG A   1       1.592   1.331  -1.070  0.00  0.00    +0.067 C 
BRANCH   4   5
ATOM      5  C   LIG A   1       1.685   0.580  -2.383  0.00  0.00    -0.041 A 
ATOM      6  C   LIG A   1       0.845   0.943  -3.452  0.00  0.00    +0.053 A 
ATOM      7  C   LIG A   1       0.915   0.208  -4.616  0.00  0.00    +0.167 A 
ATOM      8  C   LIG A   1       1.775  -0.851  -4.752  0.00  0.00    +0.166 A 
ATOM      9  C   LIG A   1       2.621  -1.236  -3.731  0.00  0.00    +0.050 A 
ATOM     10  C   LIG A   1       2.570  -0.510  -2.534  0.00  0.00    +0.007 A 
ATOM     11  O   LIG A   1       1.678  -1.448  -5.970  0.00  0.00    -0.453 OA
ATOM     12  C   LIG A   1       0.633  -0.656  -6.574  0.00  0.00    +0.466 C 
ATOM     13  O   LIG A   1       0.164   0.415  -5.732  0.00  0.00    -0.453 OA
ENDBRANCH   4   5
ENDBRANCH   1   4
BRANCH   1  14
ATOM     14  C   LIG A   1       0.541   1.490   1.229  0.00  0.00    +0.070 C 
BRANCH  14  15
ATOM     15  C   LIG A   1      -0.424   0.925   2.252  0.00  0.00    -0.003 A 
ATOM     16  C   LIG A   1      -0.227  -0.329   2.837  0.00  0.00    +0.124 A 
ATOM     17  C   LIG A   1      -1.128  -0.850   3.768  0.00  0.00    +0.091 A 
ATOM     18  C   LIG A   1      -2.252  -0.112   4.140  0.00  0.00    +0.124 A 
ATOM     19  C   LIG A   1      -2.455   1.149   3.576  0.00  0.00    +0.046 A 
ATOM     20  C   LIG A   1      -1.552   1.664   2.640  0.00  0.00    +0.011 A 
BRANCH  16  21
ATOM     21  O   LIG A   1       0.878  -1.053   2.485  0.00  0.00    -0.506 OA
ATOM     22  H   LIG A   1       0.871  -1.891   2.977  0.00  0.00    +0.292 HD
ENDBRANCH  16  21
BRANCH  18  23
ATOM     23  O   LIG A   1      -3.207  -0.513   5.035  0.00  0.00    -0.495 OA
ATOM     24  C   LIG A   1      -3.031  -1.802   5.615  0.00  0.00    +0.277 C 
ENDBRANCH  18  23
ENDBRANCH  14  15
ENDBRANCH   1  14
TORSDOF 7
