REMARK  Name = NuBBE_594
REMARK  3 active torsions:
REMARK  status: ('A' for Active; 'I' for Inactive)
REMARK    1  A    between atoms: C_1  and  C_2
REMARK    2  A    between atoms: C_9  and  O_10
REMARK    3  A    between atoms: C_11  and  O_12
REMARK                            x       y       z     vdW  Elec       q    Type
REMARK                         _______ _______ _______ _____ _____    ______ ____
ROOT
ATOM      1  C   LIG A   1      -2.000  -0.736  -2.007  0.00  0.00    +0.052 C 
ATOM      2  C   LIG A   1      -2.314  -0.635  -0.516  0.00  0.00    +0.178 C 
ATOM      3  O   LIG A   1      -1.779  -1.780   0.166  0.00  0.00    -0.458 OA
ATOM      4  C   LIG A   1      -1.839   0.650   0.145  0.00  0.00    +0.080 C 
ATOM      5  C   LIG A   1      -0.351   0.624   0.348  0.00  0.00    -0.026 A 
ATOM      6  C   LIG A   1       0.347   1.835   0.500  0.00  0.00    +0.008 A 
ATOM      7  C   LIG A   1       1.725   1.837   0.709  0.00  0.00    +0.049 A 
ATOM      8  C   LIG A   1       2.397   0.624   0.765  0.00  0.00    +0.159 A 
ATOM      9  C   LIG A   1       1.714  -0.590   0.631  0.00  0.00    +0.173 A 
ATOM     10  C   LIG A   1       0.329  -0.608   0.436  0.00  0.00    +0.107 A 
ATOM     11  C   LIG A   1      -0.434  -1.898   0.361  0.00  0.00    +0.343 C 
ATOM     12  O   LIG A   1       0.065  -3.000   0.514  0.00  0.00    -0.245 OA
ENDROOT
BRANCH   8  13
ATOM     13  O   LIG A   1       3.751   0.567   0.962  0.00  0.00    -0.503 OA
ATOM     14  H   LIG A   1       4.090   1.474   1.052  0.00  0.00    +0.292 HD
ENDBRANCH   8  13
BRANCH   9  15
ATOM     15  O   LIG A   1       2.460  -1.734   0.698  0.00  0.00    -0.503 OA
ATOM     16  H   LIG A   1       3.380  -1.444   0.850  0.00  0.00    +0.292 HD
ENDBRANCH   9  15
TORSDOF 2
