REMARK  Name = NuBBE_481
REMARK  14 active torsions:
REMARK  status: ('A' for Active; 'I' for Inactive)
REMARK    1  A    between atoms: C_1  and  C_2
REMARK    2  A    between atoms: C_6  and  C_7
REMARK    3  A    between atoms: C_6  and  C_9
REMARK    4  A    between atoms: C_7  and  O_8
REMARK    5  A    between atoms: C_9  and  O_10
REMARK    6  A    between atoms: C_11  and  O_13
REMARK    7  A    between atoms: C_16  and  C_17
REMARK    8  A    between atoms: C_22  and  C_23
REMARK    9  A    between atoms: C_26  and  C_27
REMARK   10  A    between atoms: C_27  and  O_28
REMARK   11  A    between atoms: O_28  and  C_29
REMARK   12  A    between atoms: C_32  and  C_33
REMARK   13  A    between atoms: C_32  and  O_34
REMARK   14  A    between atoms: C_35  and  C_37
REMARK                            x       y       z     vdW  Elec       q    Type
REMARK                         _______ _______ _______ _____ _____    ______ ____
ROOT
ATOM      1  C   LIG A   1      -2.436  -1.264  -0.581  0.00  0.00    +0.012 C 
ATOM      2  C   LIG A   1      -0.956  -0.830  -0.638  0.00  0.00    -0.019 C 
ATOM      3  C   LIG A   1      -0.225  -1.743  -1.665  0.00  0.00    +0.008 C 
ATOM      4  C   LIG A   1      -0.103  -3.213  -1.246  0.00  0.00    +0.005 C 
ATOM      5  C   LIG A   1       0.512  -3.542   0.147  0.00  0.00    +0.008 C 
ATOM      6  C   LIG A   1       0.470  -5.117   0.474  0.00  0.00    +0.046 C 
ATOM      7  C   LIG A   1      -0.931  -5.505   1.031  0.00  0.00    +0.125 C 
ATOM      8  C   LIG A   1      -1.376  -4.618   2.199  0.00  0.00    +0.032 C 
ATOM      9  C   LIG A   1      -1.408  -3.123   1.837  0.00  0.00    +0.010 C 
ATOM     10  C   LIG A   1      -0.070  -2.582   1.280  0.00  0.00    -0.025 C 
ATOM     11  C   LIG A   1       0.898  -2.510   2.503  0.00  0.00    +0.012 C 
ATOM     12  C   LIG A   1      -0.112  -1.111   0.672  0.00  0.00    +0.006 C 
ATOM     13  C   LIG A   1      -0.233   0.065   1.625  0.00  0.00    +0.031 C 
ATOM     14  C   LIG A   1       0.429   1.227   0.938  0.00  0.00    -0.026 C 
ATOM     15  C   LIG A   1       0.122   1.592  -0.320  0.00  0.00    -0.060 C 
ATOM     16  C   LIG A   1      -0.939   0.776  -1.086  0.00  0.00    -0.005 C 
ATOM     17  C   LIG A   1      -0.800   0.837  -2.638  0.00  0.00    +0.016 C 
ATOM     18  C   LIG A   1      -2.229   1.607  -0.718  0.00  0.00    +0.012 C 
ATOM     19  C   LIG A   1      -2.161   3.122  -1.078  0.00  0.00    +0.019 C 
ATOM     20  C   LIG A   1      -0.843   3.890  -0.708  0.00  0.00    +0.077 C 
ATOM     21  C   LIG A   1       0.414   2.979  -0.903  0.00  0.00    +0.064 C 
ATOM     22  C   LIG A   1       1.805   3.692  -0.742  0.00  0.00    +0.073 C 
ATOM     23  C   LIG A   1       2.228   4.148   0.656  0.00  0.00    +0.042 C 
ATOM     24  C   LIG A   1       1.835   4.885  -1.756  0.00  0.00    +0.018 C 
ATOM     25  C   LIG A   1       3.143   5.686  -1.748  0.00  0.00    +0.010 C 
ATOM     26  C   LIG A   1       0.638   5.830  -1.570  0.00  0.00    +0.007 C 
ATOM     27  C   LIG A   1      -0.703   5.101  -1.677  0.00  0.00    +0.019 C 
ENDROOT
BRANCH   7  28
ATOM     28  O   LIG A   1      -1.959  -5.422   0.040  0.00  0.00    -0.391 OA
ATOM     29  H   LIG A   1      -1.575  -5.764  -0.797  0.00  0.00    +0.210 HD
ENDBRANCH   7  28
BRANCH  20  30
ATOM     30  C   LIG A   1      -1.047   4.458   0.719  0.00  0.00    +0.314 C 
ATOM     31  O   LIG A   1      -1.510   5.559   0.965  0.00  0.00    -0.250 OA
BRANCH  30  32
ATOM     32  O   LIG A   1      -0.707   3.561   1.672  0.00  0.00    -0.468 OA
ATOM     33  C   LIG A   1      -0.807   3.939   3.046  0.00  0.00    +0.280 C 
ENDBRANCH  30  32
ENDBRANCH  20  30
BRANCH  22  34
ATOM     34  O   LIG A   1       2.817   2.764  -1.185  0.00  0.00    -0.388 OA
ATOM     35  H   LIG A   1       2.670   1.927  -0.710  0.00  0.00    +0.210 HD
ENDBRANCH  22  34
BRANCH   6  36
ATOM     36  C   LIG A   1       1.576  -5.508   1.505  0.00  0.00    +0.167 C 
BRANCH  36  37
ATOM     37  O   LIG A   1       1.565  -6.908   1.783  0.00  0.00    -0.394 OA
ATOM     38  H   LIG A   1       2.155  -7.056   2.544  0.00  0.00    +0.209 HD
ENDBRANCH  36  37
ENDBRANCH   6  36
BRANCH   6  39
ATOM     39  C   LIG A   1       0.821  -6.005  -0.770  0.00  0.00    +0.167 C 
BRANCH  39  40
ATOM     40  O   LIG A   1      -0.143  -5.945  -1.817  0.00  0.00    -0.394 OA
ATOM     41  H   LIG A   1       0.335  -6.141  -2.644  0.00  0.00    +0.209 HD
ENDBRANCH  39  40
ENDBRANCH   6  39
TORSDOF 8
