@<TRIPOS>MOLECULE
NuBBE_1242
 48 52 0 0 0
SMALL
GASTEIGER

@<TRIPOS>ATOM
      1 O          -6.0179   -0.9457   -0.4498 O.2     1  LIG1       -0.2445
      2 C          -4.8223   -1.0381   -0.2155 C.ar    1  LIG1        0.3454
      3 C          -4.1803   -2.3575    0.0192 C.ar    1  LIG1        0.0744
      4 C          -4.9476   -3.5317   -0.0413 C.ar    1  LIG1       -0.0017
      5 C          -4.3230   -4.7593    0.1645 C.ar    1  LIG1        0.1628
      6 O          -5.0183   -5.9362    0.1237 O.3     1  LIG1       -0.5032
      7 C          -2.9541   -4.8273    0.4243 C.ar    1  LIG1        0.2022
      8 O          -2.3631   -6.0435    0.6088 O.3     1  LIG1       -0.5009
      9 C          -2.2094   -3.6564    0.4956 C.ar    1  LIG1        0.1854
     10 O          -0.8267   -3.7251    0.7756 O.2     1  LIG1       -0.4178
     11 C          -0.0069   -2.5991    0.8833 C.ar    1  LIG1        0.3454
     12 O           1.1874   -2.6838    1.1220 O.2     1  LIG1       -0.2445
     13 C          -2.8130   -2.4196    0.2960 C.ar    1  LIG1        0.0468
     14 C          -2.0192   -1.2264    0.3653 C.ar    1  LIG1        0.0468
     15 C          -0.6595   -1.2816    0.6568 C.ar    1  LIG1        0.0744
     16 C           0.1043   -0.1028    0.6879 C.ar    1  LIG1       -0.0014
     17 C          -0.4769    1.1300    0.3564 C.ar    1  LIG1        0.1697
     18 O           0.2202    2.3086    0.2470 O.3     1  LIG1       -0.4570
     19 C           1.6121    2.1931   -0.1082 C.3     1  LIG1        0.2309
     20 H           1.7490    1.3115   -0.7475 H       1  LIG1        0.1084
     21 O           2.3864    2.0892    1.0927 O.3     1  LIG1       -0.3339
     22 C           3.8011    1.9940    0.8951 C.3     1  LIG1        0.0883
     23 H           4.2277    2.1021    1.8999 H       1  LIG1        0.0621
     24 C           4.1870    0.6007    0.4073 C.3     1  LIG1       -0.0360
     25 C           4.3557    3.1457    0.0286 C.3     1  LIG1        0.1096
     26 H           5.4040    2.9493   -0.2237 H       1  LIG1        0.0646
     27 O           4.3174    4.3769    0.7691 O.3     1  LIG1       -0.3866
     28 C           3.5331    3.3642   -1.2394 C.3     1  LIG1        0.1151
     29 H           3.8398    4.2943   -1.7333 H       1  LIG1        0.0648
     30 O           3.7728    2.3156   -2.1887 O.3     1  LIG1       -0.3864
     31 C           2.0350    3.4447   -0.9135 C.3     1  LIG1        0.1454
     32 H           1.8150    4.3451   -0.3268 H       1  LIG1        0.0683
     33 O           1.3349    3.5462   -2.1691 O.3     1  LIG1       -0.3829
     34 C          -1.8540    1.1810    0.1093 C.ar    1  LIG1        0.2026
     35 O          -2.4545    2.3771   -0.1745 O.3     1  LIG1       -0.5009
     36 C          -2.6072    0.0065    0.1194 C.ar    1  LIG1        0.1854
     37 O          -3.9913    0.0851   -0.1628 O.2     1  LIG1       -0.4178
     38 H          -6.0131   -3.4727   -0.2498 H       1  LIG1        0.0664
     39 H          -5.9621   -5.7431   -0.0201 H       1  LIG1        0.2923
     40 H          -3.0805   -6.7005    0.5102 H       1  LIG1        0.2924
     41 H           1.1549   -0.1698    0.9604 H       1  LIG1        0.0664
     42 H           3.7441    0.3511   -0.5596 H       1  LIG1        0.0255
     43 H           3.8248   -0.1535    1.1150 H       1  LIG1        0.0255
     44 H           5.2736    0.5025    0.3257 H       1  LIG1        0.0255
     45 H           4.7844    4.2338    1.6109 H       1  LIG1        0.2100
     46 H           3.0757    2.4167   -2.8694 H       1  LIG1        0.2100
     47 H           1.2642    4.4995   -2.3632 H       1  LIG1        0.2102
     48 H          -3.4035    2.2094   -0.3141 H       1  LIG1        0.2924
@<TRIPOS>BOND
     1     1     2    2
     2     2     3   ar
     3     3     4   ar
     4     4     5   ar
     5     5     6    1
     6     5     7   ar
     7     7     8    1
     8     7     9   ar
     9     9    10   ar
    10    10    11   ar
    11    11    12    2
    12     9    13   ar
    13     3    13   ar
    14    13    14   ar
    15    14    15   ar
    16    11    15   ar
    17    15    16   ar
    18    16    17   ar
    19    17    18    1
    20    18    19    1
    21    19    20    1
    22    19    21    1
    23    21    22    1
    24    22    25    1
    25    25    26    1
    26    25    27    1
    27    25    28    1
    28    28    31    1
    29    19    31    1
    30    17    34   ar
    31    34    35    1
    32    14    36   ar
    33    34    36   ar
    34    36    37   ar
    35     2    37   ar
    36    22    24    1
    37    22    23    1
    38    28    30    1
    39    28    29    1
    40    31    33    1
    41    31    32    1
    42     4    38    1
    43     6    39    1
    44     8    40    1
    45    16    41    1
    46    24    42    1
    47    24    43    1
    48    24    44    1
    49    27    45    1
    50    30    46    1
    51    33    47    1
    52    35    48    1
