@<TRIPOS>MOLECULE
NuBBE_1325
 45 47 0 0 0
SMALL
GASTEIGER

@<TRIPOS>ATOM
      1 O          -0.3272    0.6130   -3.3517 O.2     1  LIG1       -0.2915
      2 C          -0.6160   -0.1153   -2.3769 C.2     1  LIG1        0.1741
      3 C           0.3197   -0.1536   -1.2173 C.ar    1  LIG1        0.0602
      4 C           0.5300   -1.2649   -0.3737 C.ar    1  LIG1        0.1411
      5 O           0.0356   -2.5151   -0.6528 O.3     1  LIG1       -0.4937
      6 C           0.6300   -3.1287   -1.8066 C.3     1  LIG1        0.0788
      7 C           1.1961   -1.0716    0.8608 C.ar    1  LIG1        0.0588
      8 C           1.2062   -2.0784    1.9241 C.2     1  LIG1       -0.0478
      9 C           2.0555   -1.9128    2.9459 C.2     1  LIG1       -0.0408
     10 C           2.9811   -0.7209    3.0376 C.3     1  LIG1        0.1235
     11 C           4.3842   -1.0639    2.5166 C.3     1  LIG1       -0.0215
     12 C           3.0902   -0.2786    4.5050 C.3     1  LIG1       -0.0215
     13 O           2.4924    0.4236    2.3008 O.3     1  LIG1       -0.4815
     14 C           1.8028    0.1631    1.1432 C.ar    1  LIG1        0.1324
     15 C           1.6821    1.2243    0.2512 C.ar    1  LIG1       -0.0184
     16 C           0.9335    1.0692   -0.9068 C.ar    1  LIG1       -0.0442
     17 C          -1.9097   -0.8827   -2.3435 C.3     1  LIG1        0.0737
     18 C          -3.1752   -0.0856   -2.6003 C.2     1  LIG1        0.1706
     19 C          -3.3853    1.2863   -2.0372 C.ar    1  LIG1        0.0178
     20 C          -4.2957    2.1352   -2.6901 C.ar    1  LIG1       -0.0513
     21 C          -4.5523    3.4227   -2.2076 C.ar    1  LIG1       -0.0611
     22 C          -3.9019    3.8772   -1.0645 C.ar    1  LIG1       -0.0617
     23 C          -3.0153    3.0350   -0.3937 C.ar    1  LIG1       -0.0611
     24 C          -2.7691    1.7372   -0.8656 C.ar    1  LIG1       -0.0513
     25 O          -4.1074   -0.5955   -3.2337 O.2     1  LIG1       -0.2916
     26 H           0.7016   -2.4561   -2.6669 H       1  LIG1        0.0660
     27 H          -0.0170   -3.9639   -2.0972 H       1  LIG1        0.0660
     28 H           1.6188   -3.5421   -1.5744 H       1  LIG1        0.0660
     29 H           0.5050   -2.9040    1.8859 H       1  LIG1        0.0624
     30 H           2.0803   -2.6450    3.7483 H       1  LIG1        0.0611
     31 H           4.8357   -1.8935    3.0714 H       1  LIG1        0.0271
     32 H           5.0493   -0.1952    2.5943 H       1  LIG1        0.0271
     33 H           4.3602   -1.3358    1.4550 H       1  LIG1        0.0271
     34 H           3.5508   -1.0537    5.1293 H       1  LIG1        0.0271
     35 H           2.1035   -0.0472    4.9230 H       1  LIG1        0.0271
     36 H           3.6894    0.6349    4.5991 H       1  LIG1        0.0271
     37 H           2.1396    2.1847    0.4847 H       1  LIG1        0.0654
     38 H           0.7925    1.9301   -1.5642 H       1  LIG1        0.0627
     39 H          -2.0504   -1.4450   -1.4160 H       1  LIG1        0.0426
     40 H          -1.8337   -1.6194   -3.1618 H       1  LIG1        0.0426
     41 H          -4.8171    1.7950   -3.5833 H       1  LIG1        0.0624
     42 H          -5.2591    4.0682   -2.7244 H       1  LIG1        0.0618
     43 H          -4.0944    4.8814   -0.6920 H       1  LIG1        0.0618
     44 H          -2.5222    3.3908    0.5084 H       1  LIG1        0.0618
     45 H          -2.1173    1.0965   -0.2825 H       1  LIG1        0.0624
@<TRIPOS>BOND
     1     1     2    2
     2     2     3    1
     3     3     4   ar
     4     4     5    1
     5     5     6    1
     6     4     7   ar
     7     7     8    1
     8     8     9    2
     9     9    10    1
    10    10    11    1
    11    10    12    1
    12    10    13    1
    13     7    14   ar
    14    13    14    1
    15    14    15   ar
    16    15    16   ar
    17     3    16   ar
    18     2    17    1
    19    17    18    1
    20    18    19    1
    21    19    20   ar
    22    20    21   ar
    23    21    22   ar
    24    22    23   ar
    25    23    24   ar
    26    19    24   ar
    27    18    25    2
    28     6    26    1
    29     6    27    1
    30     6    28    1
    31     8    29    1
    32     9    30    1
    33    11    31    1
    34    11    32    1
    35    11    33    1
    36    12    34    1
    37    12    35    1
    38    12    36    1
    39    15    37    1
    40    16    38    1
    41    17    39    1
    42    17    40    1
    43    20    41    1
    44    21    42    1
    45    22    43    1
    46    23    44    1
    47    24    45    1
