REMARK  Name = NuBBE_1191
REMARK  10 active torsions:
REMARK  status: ('A' for Active; 'I' for Inactive)
REMARK    1  A    between atoms: O_1  and  C_2
REMARK    2  A    between atoms: C_2  and  C_3
REMARK    3  A    between atoms: C_2  and  C_6
REMARK    4  A    between atoms: C_3  and  C_4
REMARK    5  A    between atoms: C_6  and  O_7
REMARK    6  A    between atoms: O_7  and  C_8
REMARK    7  A    between atoms: C_10  and  C_11
REMARK    8  A    between atoms: C_19  and  C_23
REMARK    9  A    between atoms: C_34  and  O_35
REMARK   10  A    between atoms: O_35  and  C_36
REMARK                            x       y       z     vdW  Elec       q    Type
REMARK                         _______ _______ _______ _____ _____    ______ ____
ROOT
ATOM      1  C   LIG A   1      -0.384   0.854   0.583  0.00  0.00    +0.154 C 
ATOM      2  C   LIG A   1      -1.606  -0.062   0.729  0.00  0.00    +0.056 C 
ATOM      3  C   LIG A   1      -2.033   0.172   2.157  0.00  0.00    +0.056 C 
ATOM      4  C   LIG A   1      -1.653   1.614   2.387  0.00  0.00    +0.167 C 
ATOM      5  O   LIG A   1      -0.486   1.868   1.600  0.00  0.00    -0.371 OA
ATOM      6  C   LIG A   1      -1.191  -0.833   2.956  0.00  0.00    +0.154 C 
ATOM      7  O   LIG A   1      -0.717  -1.823   2.014  0.00  0.00    -0.371 OA
ATOM      8  C   LIG A   1      -1.269  -1.534   0.725  0.00  0.00    +0.167 C 
ENDROOT
BRANCH   6   9
ATOM      9  C   LIG A   1      -1.985  -1.500   4.066  0.00  0.00    -0.015 A 
ATOM     10  C   LIG A   1      -2.044  -0.910   5.342  0.00  0.00    +0.055 A 
ATOM     11  C   LIG A   1      -2.801  -1.532   6.316  0.00  0.00    +0.167 A 
ATOM     12  C   LIG A   1      -3.489  -2.696   6.069  0.00  0.00    +0.166 A 
ATOM     13  O   LIG A   1      -4.176  -3.138   7.156  0.00  0.00    -0.453 OA
ATOM     14  C   LIG A   1      -3.856  -2.108   8.113  0.00  0.00    +0.466 C 
ATOM     15  O   LIG A   1      -2.967  -1.096   7.594  0.00  0.00    -0.453 OA
ATOM     16  C   LIG A   1      -3.458  -3.307   4.837  0.00  0.00    +0.050 A 
ATOM     17  C   LIG A   1      -2.702  -2.699   3.831  0.00  0.00    +0.010 A 
ENDBRANCH   6   9
BRANCH   1  20
ATOM     18  C   LIG A   1       0.713   1.325  -3.044  0.00  0.00    +0.162 A 
ATOM     19  C   LIG A   1       0.498   0.797  -1.764  0.00  0.00    +0.055 A 
ATOM     20  C   LIG A   1      -0.230   1.489  -0.784  0.00  0.00    -0.015 A 
ATOM     21  C   LIG A   1      -0.764   2.737  -1.116  0.00  0.00    +0.010 A 
ATOM     22  C   LIG A   1      -0.531   3.293  -2.381  0.00  0.00    +0.050 A 
ATOM     23  C   LIG A   1       0.228   2.609  -3.341  0.00  0.00    +0.162 A 
BRANCH  23  24
ATOM     24  O   LIG A   1       0.345   3.260  -4.546  0.00  0.00    -0.491 OA
ATOM     25  C   LIG A   1       1.588   3.127  -5.234  0.00  0.00    +0.277 C 
ENDBRANCH  23  24
BRANCH  18  26
ATOM     26  O   LIG A   1       1.329   0.635  -4.045  0.00  0.00    -0.485 OA
BRANCH  26  27
ATOM     27  C   LIG A   1       1.824  -0.681  -3.828  0.00  0.00    +0.265 C 
BRANCH  27  28
ATOM     28  C   LIG A   1       3.288  -0.681  -3.351  0.00  0.00    +0.177 C 
BRANCH  28  29
ATOM     29  C   LIG A   1       4.280   0.058  -4.240  0.00  0.00    -0.048 C 
ATOM     30  C   LIG A   1       4.491  -0.459  -5.640  0.00  0.00    +0.041 C 
ATOM     31  C   LIG A   1       4.952   1.126  -3.804  0.00  0.00    +0.010 C 
ENDBRANCH  28  29
BRANCH  28  32
ATOM     32  O   LIG A   1       3.715  -2.036  -3.214  0.00  0.00    -0.384 OA
ATOM     33  H   LIG A   1       4.584  -2.007  -2.780  0.00  0.00    +0.210 HD
ENDBRANCH  28  32
ENDBRANCH  27  28
ENDBRANCH  26  27
ENDBRANCH  18  26
ENDBRANCH   1  20
TORSDOF 8
