@<TRIPOS>MOLECULE
NuBBE_2333
 42 44 0 0 0
SMALL
GASTEIGER

@<TRIPOS>ATOM
      1 C          -2.3013   -1.6823   -1.7465 C.3     1  LIG1       -0.0621
      2 C          -0.7747   -1.5903   -1.6371 C.3     1  LIG1       -0.0404
      3 H          -0.3787   -1.2603   -2.6052 H       1  LIG1        0.0301
      4 C          -0.1448   -2.9429   -1.2897 C.3     1  LIG1       -0.0498
      5 C           0.2611   -2.8186    0.1674 C.3     1  LIG1       -0.0471
      6 C          -0.3884   -0.6097   -0.4868 C.3     1  LIG1       -0.0294
      7 H          -1.2816   -0.5554    0.1479 H       1  LIG1        0.0310
      8 C           0.6853   -1.3417    0.3096 C.3     1  LIG1       -0.0090
      9 H           1.6614   -1.2261   -0.1827 H       1  LIG1        0.0331
     10 C           0.7897   -0.8832    1.7802 C.3     1  LIG1        0.0664
     11 C          -0.3818   -1.3141    2.6835 C.3     1  LIG1       -0.0358
     12 O           1.9454   -1.5161    2.3583 O.3     1  LIG1       -0.3886
     13 C           0.9934    0.6436    1.8453 C.3     1  LIG1       -0.0237
     14 C          -0.2512    1.4847    1.4849 C.3     1  LIG1       -0.0468
     15 C          -0.4734    1.7791   -0.0168 C.3     1  LIG1       -0.0319
     16 H          -1.4408    2.2759   -0.1249 H       1  LIG1        0.0309
     17 C          -0.1583    0.7854   -1.0110 C.3     1  LIG1       -0.0289
     18 H          -0.7499    0.8301   -1.9315 H       1  LIG1        0.0312
     19 C           0.6938    2.2432   -0.8692 C.3     1  LIG1       -0.0284
     20 C           0.6811    2.7553   -2.3254 C.3     1  LIG1       -0.0593
     21 C           0.9834    3.5316   -0.0472 C.3     1  LIG1       -0.0593
     22 H          -2.6001   -2.3647   -2.5468 H       1  LIG1        0.0233
     23 H          -2.7320   -0.6977   -1.9589 H       1  LIG1        0.0233
     24 H          -2.7448   -2.0444   -0.8115 H       1  LIG1        0.0233
     25 H           0.7478   -3.1045   -1.9052 H       1  LIG1        0.0268
     26 H          -0.8179   -3.7903   -1.4577 H       1  LIG1        0.0268
     27 H           1.0565   -3.5204    0.4355 H       1  LIG1        0.0269
     28 H          -0.6149   -3.0559    0.7829 H       1  LIG1        0.0269
     29 H          -1.3614   -1.0756    2.2617 H       1  LIG1        0.0257
     30 H          -0.3103   -0.8235    3.6617 H       1  LIG1        0.0257
     31 H          -0.3592   -2.3893    2.8939 H       1  LIG1        0.0257
     32 H           2.7096   -1.3467    1.7832 H       1  LIG1        0.2102
     33 H           1.8575    0.9189    1.2254 H       1  LIG1        0.0293
     34 H           1.3010    0.8965    2.8686 H       1  LIG1        0.0293
     35 H          -0.1632    2.4458    2.0110 H       1  LIG1        0.0269
     36 H          -1.1622    1.0462    1.9086 H       1  LIG1        0.0269
     37 H           0.9952    1.9566   -3.0085 H       1  LIG1        0.0235
     38 H           1.3816    3.5787   -2.4920 H       1  LIG1        0.0235
     39 H          -0.3189    3.1010   -2.6085 H       1  LIG1        0.0235
     40 H           1.4263    3.3509    0.9339 H       1  LIG1        0.0235
     41 H           0.0597    4.1242    0.0781 H       1  LIG1        0.0235
     42 H           1.6800    4.2061   -0.5586 H       1  LIG1        0.0235
@<TRIPOS>BOND
     1     1     2    1
     2     2     3    1
     3     2     4    1
     4     4     5    1
     5     2     6    1
     6     6     7    1
     7     6     8    1
     8     5     8    1
     9     8     9    1
    10     8    10    1
    11    10    13    1
    12    13    14    1
    13    14    15    1
    14    15    16    1
    15    15    17    1
    16    17    18    1
    17     6    17    1
    18    17    19    1
    19    15    19    1
    20    19    20    1
    21    19    21    1
    22    10    12    1
    23    10    11    1
    24     1    22    1
    25     1    23    1
    26     1    24    1
    27     4    25    1
    28     4    26    1
    29     5    27    1
    30     5    28    1
    31    11    29    1
    32    11    30    1
    33    11    31    1
    34    12    32    1
    35    13    33    1
    36    13    34    1
    37    14    35    1
    38    14    36    1
    39    20    37    1
    40    20    38    1
    41    20    39    1
    42    21    40    1
    43    21    41    1
    44    21    42    1
