@<TRIPOS>MOLECULE
NuBBE_2034
 41 44 0 0 0
SMALL
GASTEIGER

@<TRIPOS>ATOM
      1 C          -2.1756   -2.6847    0.2661 C.3     1  LIG1       -0.0328
      2 C          -0.6769   -2.8158    0.2777 C.ar    1  LIG1        0.0328
      3 C           0.1476   -1.6788    0.2093 C.ar    1  LIG1        0.1312
      4 C           1.5508   -1.7957    0.1635 C.ar    1  LIG1       -0.0022
      5 C           2.4080   -0.5585    0.0698 C.3     1  LIG1       -0.0203
      6 C           1.5974    0.6588   -0.3434 C.3     1  LIG1       -0.0073
      7 C           0.3092    0.6776    0.4705 C.3     1  LIG1        0.1289
      8 O          -0.4961   -0.4664    0.1468 O.3     1  LIG1       -0.4834
      9 C          -0.4790    1.9473    0.1883 C.ar    1  LIG1        0.0377
     10 C          -1.4646    1.9787   -0.8171 C.ar    1  LIG1       -0.0060
     11 C          -2.1367    3.1617   -1.0421 C.ar    1  LIG1        0.1668
     12 C          -1.8633    4.2982   -0.3202 C.ar    1  LIG1        0.1697
     13 C          -0.9009    4.3208    0.6650 C.ar    1  LIG1        0.0257
     14 C          -0.2073    3.1329    0.9093 C.ar    1  LIG1        0.1272
     15 O           0.7726    3.1063    1.8647 O.3     1  LIG1       -0.5062
     16 O          -2.6340    5.3529   -0.6999 O.3     1  LIG1       -0.4525
     17 C          -3.4300    4.7457   -1.7397 C.3     1  LIG1        0.2332
     18 O          -3.1129    3.3577   -1.9682 O.3     1  LIG1       -0.4526
     19 C           2.1409   -3.0757    0.2325 C.ar    1  LIG1       -0.0403
     20 C           1.3167   -4.2088    0.2834 C.ar    1  LIG1       -0.0165
     21 C          -0.0709   -4.0741    0.2956 C.ar    1  LIG1        0.1235
     22 O          -0.8608   -5.1907    0.3248 O.3     1  LIG1       -0.5064
     23 C           3.6341   -3.2609    0.2082 C.3     1  LIG1       -0.0392
     24 H          -2.5027   -1.7771    0.7838 H       1  LIG1        0.0280
     25 H          -2.6567   -3.5201    0.7852 H       1  LIG1        0.0280
     26 H          -2.5383   -2.6552   -0.7660 H       1  LIG1        0.0280
     27 H           3.2138   -0.7009   -0.6590 H       1  LIG1        0.0316
     28 H           2.8651   -0.3786    1.0507 H       1  LIG1        0.0316
     29 H           1.3640    0.5904   -1.4148 H       1  LIG1        0.0307
     30 H           2.1924    1.5674   -0.1962 H       1  LIG1        0.0307
     31 H           0.5174    0.6283    1.5482 H       1  LIG1        0.0785
     32 H          -1.7007    1.0976   -1.4059 H       1  LIG1        0.0660
     33 H          -0.7030    5.2343    1.2111 H       1  LIG1        0.0692
     34 H           0.8063    3.9738    2.3022 H       1  LIG1        0.2921
     35 H          -3.2698    5.3000   -2.6716 H       1  LIG1        0.1166
     36 H          -4.4875    4.8233   -1.4618 H       1  LIG1        0.1166
     37 H           1.7680   -5.1969    0.3090 H       1  LIG1        0.0657
     38 H          -0.2927   -5.9774    0.3259 H       1  LIG1        0.2921
     39 H           4.1159   -2.6122    0.9467 H       1  LIG1        0.0278
     40 H           4.0257   -3.0351   -0.7885 H       1  LIG1        0.0278
     41 H           3.9142   -4.2904    0.4560 H       1  LIG1        0.0278
@<TRIPOS>BOND
     1     1     2    1
     2     2     3   ar
     3     3     4   ar
     4     4     5    1
     5     5     6    1
     6     6     7    1
     7     7     8    1
     8     3     8    1
     9     7     9    1
    10     9    10   ar
    11    10    11   ar
    12    11    12   ar
    13    12    13   ar
    14    13    14   ar
    15     9    14   ar
    16    14    15    1
    17    12    16    1
    18    16    17    1
    19    17    18    1
    20    11    18    1
    21     4    19   ar
    22    19    20   ar
    23    20    21   ar
    24     2    21   ar
    25    21    22    1
    26    19    23    1
    27     1    24    1
    28     1    25    1
    29     1    26    1
    30     5    27    1
    31     5    28    1
    32     6    29    1
    33     6    30    1
    34     7    31    1
    35    10    32    1
    36    13    33    1
    37    15    34    1
    38    17    35    1
    39    17    36    1
    40    20    37    1
    41    22    38    1
    42    23    39    1
    43    23    40    1
    44    23    41    1
