REMARK  Name = NuBBE_2492
REMARK  7 active torsions:
REMARK  status: ('A' for Active; 'I' for Inactive)
REMARK    1  A    between atoms: C_2  and  C_3
REMARK    2  A    between atoms: C_3  and  C_4
REMARK    3  A    between atoms: C_8  and  C_9
REMARK    4  A    between atoms: C_14  and  C_15
REMARK    5  A    between atoms: C_14  and  C_16
REMARK    6  A    between atoms: C_19  and  O_21
REMARK    7  A    between atoms: C_22  and  O_23
REMARK                            x       y       z     vdW  Elec       q    Type
REMARK                         _______ _______ _______ _____ _____    ______ ____
ROOT
ATOM      1  C   LIG A   1      -0.729  -3.378   0.656  0.00  0.00    -0.012 C 
ATOM      2  C   LIG A   1      -2.041  -3.667  -0.104  0.00  0.00    +0.015 C 
ATOM      3  C   LIG A   1       0.443  -3.222  -0.339  0.00  0.00    +0.011 C 
ATOM      4  C   LIG A   1       0.402  -1.923  -1.150  0.00  0.00    +0.008 C 
ATOM      5  C   LIG A   1       0.375  -0.683  -0.232  0.00  0.00    +0.030 C 
ATOM      6  C   LIG A   1       0.506   0.709  -0.991  0.00  0.00    -0.022 C 
ATOM      7  C   LIG A   1      -0.648   0.899  -2.004  0.00  0.00    +0.012 C 
ATOM      8  C   LIG A   1       1.850   0.744  -1.768  0.00  0.00    +0.015 C 
ATOM      9  C   LIG A   1       2.193   2.106  -2.354  0.00  0.00    +0.075 C 
ATOM     10  C   LIG A   1       2.176   3.192  -1.308  0.00  0.00    +0.139 C 
ATOM     11  O   LIG A   1       3.063   4.049  -1.307  0.00  0.00    -0.297 OA
ATOM     12  C   LIG A   1       0.962   3.273  -0.365  0.00  0.00    +0.027 C 
ATOM     13  C   LIG A   1      -0.154   4.050  -1.078  0.00  0.00    +0.019 C 
ATOM     14  C   LIG A   1       1.390   4.122   0.862  0.00  0.00    +0.019 C 
ATOM     15  C   LIG A   1       0.572   1.832   0.114  0.00  0.00    +0.011 C 
ATOM     16  C   LIG A   1      -0.675   1.790   1.021  0.00  0.00    +0.039 C 
ATOM     17  C   LIG A   1      -0.818   0.437   1.722  0.00  0.00    +0.147 C 
ATOM     18  C   LIG A   1      -0.838  -0.755   0.734  0.00  0.00    +0.096 C 
ATOM     19  C   LIG A   1      -0.843  -2.091   1.518  0.00  0.00    +0.048 C 
ENDROOT
BRANCH   1  21
ATOM     20  C   LIG A   1      -0.481  -4.756   2.829  0.00  0.00    +0.004 C 
ATOM     21  C   LIG A   1      -0.453  -4.631   1.495  0.00  0.00    -0.028 C 
ENDBRANCH   1  21
BRANCH  17  22
ATOM     22  O   LIG A   1      -2.048   0.440   2.461  0.00  0.00    -0.389 OA
ATOM     23  H   LIG A   1      -1.995   1.164   3.110  0.00  0.00    +0.210 HD
ENDBRANCH  17  22
BRANCH  18  24
ATOM     24  O   LIG A   1      -2.067  -0.675   0.003  0.00  0.00    -0.386 OA
ATOM     25  H   LIG A   1      -2.749  -0.475   0.677  0.00  0.00    +0.210 HD
ENDBRANCH  18  24
TORSDOF 3
