REMARK  Name = NuBBE_2050
REMARK  3 active torsions:
REMARK  status: ('A' for Active; 'I' for Inactive)
REMARK    1  A    between atoms: C_1  and  C_2
REMARK    2  A    between atoms: C_8  and  C_10
REMARK    3  A    between atoms: C_11  and  O_14
REMARK                            x       y       z     vdW  Elec       q    Type
REMARK                         _______ _______ _______ _____ _____    ______ ____
ROOT
ATOM      1  C   LIG A   1      -2.354  -1.736  -0.117  0.00  0.00    +0.044 C 
ATOM      2  C   LIG A   1      -0.857  -1.590  -0.068  0.00  0.00    -0.046 A 
ATOM      3  C   LIG A   1      -0.189  -0.345  -0.055  0.00  0.00    -0.024 A 
ATOM      4  C   LIG A   1       1.222  -0.315  -0.064  0.00  0.00    +0.104 A 
ATOM      5  C   LIG A   1       1.957   0.975  -0.174  0.00  0.00    +0.343 C 
ATOM      6  O   LIG A   1       3.173   0.992  -0.301  0.00  0.00    -0.245 OA
ATOM      7  O   LIG A   1       1.216   2.110  -0.190  0.00  0.00    -0.458 OA
ATOM      8  C   LIG A   1      -0.074   2.092   0.439  0.00  0.00    +0.178 C 
ATOM      9  C   LIG A   1      -0.933   0.962  -0.114  0.00  0.00    +0.080 C 
ATOM     10  C   LIG A   1      -0.724   3.445   0.180  0.00  0.00    +0.052 C 
ATOM     11  C   LIG A   1       1.951  -1.514  -0.035  0.00  0.00    +0.131 A 
ATOM     12  C   LIG A   1       1.293  -2.737  -0.010  0.00  0.00    +0.046 A 
ATOM     13  C   LIG A   1      -0.099  -2.774  -0.032  0.00  0.00    +0.007 A 
ENDROOT
BRANCH  11  14
ATOM     14  O   LIG A   1       3.320  -1.574  -0.044  0.00  0.00    -0.506 OA
ATOM     15  H   LIG A   1       3.672  -0.661  -0.139  0.00  0.00    +0.292 HD
ENDBRANCH  11  14
TORSDOF 1
