@<TRIPOS>MOLECULE
NuBBE_2387
 50 52 0 0 0
SMALL
GASTEIGER

@<TRIPOS>ATOM
      1 C          -2.4138   -0.1030    0.6652 C.3     1  LIG1       -0.0552
      2 C          -0.8992   -0.4049    0.8718 C.3     1  LIG1       -0.0026
      3 C          -0.1629    0.6491    0.0160 C.ar    1  LIG1       -0.0272
      4 C           0.5849    0.3148   -1.1177 C.ar    1  LIG1        0.0216
      5 C           1.1622    1.2995   -1.9408 C.ar    1  LIG1       -0.0441
      6 C           1.0363    2.6667   -1.6486 C.ar    1  LIG1       -0.0027
      7 C           0.2742    3.0030   -0.5244 C.ar    1  LIG1        0.1206
      8 C          -0.2997    2.0225    0.2936 C.ar    1  LIG1       -0.0155
      9 O           0.0153    4.2922   -0.1515 O.3     1  LIG1       -0.5065
     10 C           1.6885    3.7155   -2.5364 C.3     1  LIG1       -0.0181
     11 C           0.7606    4.0755   -3.6985 C.3     1  LIG1       -0.0585
     12 C           3.0739    3.3193   -3.0633 C.3     1  LIG1       -0.0585
     13 C           0.8330   -1.0991   -1.4475 C.2     1  LIG1        0.1638
     14 O           1.2083   -1.4403   -2.5635 O.2     1  LIG1       -0.2920
     15 C           0.7221   -2.0548   -0.2995 C.3     1  LIG1        0.0146
     16 C          -0.6187   -1.8986    0.4311 C.3     1  LIG1       -0.0195
     17 H          -1.3847   -2.1267   -0.3270 H       1  LIG1        0.0319
     18 C          -0.7627   -2.9881    1.5786 C.3     1  LIG1       -0.0309
     19 C           0.5837   -3.4162    2.2150 C.3     1  LIG1       -0.0595
     20 C          -1.3895   -4.2653    0.9702 C.3     1  LIG1       -0.0595
     21 C          -1.6854   -2.5032    2.7121 C.3     1  LIG1       -0.0476
     22 C          -1.2645   -1.1675    3.3165 C.3     1  LIG1       -0.0518
     23 C          -0.5191   -0.2357    2.3605 C.3     1  LIG1       -0.0433
     24 H          -2.6600   -0.0478   -0.4030 H       1  LIG1        0.0238
     25 H          -2.7042    0.8534    1.1154 H       1  LIG1        0.0238
     26 H          -3.0703   -0.8610    1.0931 H       1  LIG1        0.0238
     27 H           1.7246    0.9740   -2.8145 H       1  LIG1        0.0629
     28 H          -0.8901    2.3615    1.1427 H       1  LIG1        0.0657
     29 H           0.1680    4.8822   -0.9053 H       1  LIG1        0.2921
     30 H           1.8601    4.6200   -1.9402 H       1  LIG1        0.0345
     31 H           0.5764    3.2116   -4.3473 H       1  LIG1        0.0235
     32 H           1.1975    4.8705   -4.3123 H       1  LIG1        0.0235
     33 H          -0.2103    4.4299   -3.3349 H       1  LIG1        0.0235
     34 H           3.0237    2.5046   -3.7931 H       1  LIG1        0.0235
     35 H           3.7308    3.0050   -2.2449 H       1  LIG1        0.0235
     36 H           3.5477    4.1715   -3.5634 H       1  LIG1        0.0235
     37 H           1.5796   -1.8689    0.3572 H       1  LIG1        0.0348
     38 H           0.8174   -3.0695   -0.7027 H       1  LIG1        0.0348
     39 H           1.1485   -2.5654    2.6054 H       1  LIG1        0.0235
     40 H           1.2229   -3.9462    1.5005 H       1  LIG1        0.0235
     41 H           0.4189   -4.1059    3.0517 H       1  LIG1        0.0235
     42 H          -2.3788   -4.0579    0.5468 H       1  LIG1        0.0235
     43 H          -1.5140   -5.0465    1.7290 H       1  LIG1        0.0235
     44 H          -0.7637   -4.6765    0.1708 H       1  LIG1        0.0235
     45 H          -1.7362   -3.2499    3.5162 H       1  LIG1        0.0271
     46 H          -2.7161   -2.4324    2.3479 H       1  LIG1        0.0271
     47 H          -0.6294   -1.3440    4.1937 H       1  LIG1        0.0266
     48 H          -2.1606   -0.6619    3.6977 H       1  LIG1        0.0266
     49 H           0.5616   -0.3951    2.4711 H       1  LIG1        0.0274
     50 H          -0.6868    0.7901    2.7101 H       1  LIG1        0.0274
@<TRIPOS>BOND
     1     2     3    1
     2     3     4   ar
     3     4     5   ar
     4     5     6   ar
     5     6     7   ar
     6     7     8   ar
     7     3     8   ar
     8    10    11    1
     9    10    12    1
    10     4    13    1
    11    13    15    1
    12    15    16    1
    13     2    16    1
    14    16    18    1
    15    18    21    1
    16    21    22    1
    17    22    23    1
    18     2    23    1
    19     1     2    1
    20     6    10    1
    21     7     9    1
    22    13    14    2
    23    16    17    1
    24    18    19    1
    25    18    20    1
    26     1    24    1
    27     1    25    1
    28     1    26    1
    29     5    27    1
    30     8    28    1
    31     9    29    1
    32    10    30    1
    33    11    31    1
    34    11    32    1
    35    11    33    1
    36    12    34    1
    37    12    35    1
    38    12    36    1
    39    15    37    1
    40    15    38    1
    41    19    39    1
    42    19    40    1
    43    19    41    1
    44    20    42    1
    45    20    43    1
    46    20    44    1
    47    21    45    1
    48    21    46    1
    49    22    47    1
    50    22    48    1
    51    23    49    1
    52    23    50    1
