@<TRIPOS>MOLECULE
NuBBE_1974
 20 19 0 0 0
SMALL
GASTEIGER

@<TRIPOS>ATOM
      1 S          -1.3902    0.0829    1.1613 S.3     1  LIG1       -0.0928
      2 S          -1.7756   -0.8276   -0.6561 S.3     1  LIG1       -0.0890
      3 C          -0.3383   -1.9326   -0.8705 C.3     1  LIG1        0.0218
      4 C          -0.4608   -2.6891   -2.1715 C.2     1  LIG1       -0.0805
      5 C          -0.6991   -3.9981   -2.2939 C.2     1  LIG1       -0.1018
      6 C          -0.1429    1.3360    0.7089 C.3     1  LIG1        0.0037
      7 C           0.2723    2.1907    1.9084 C.3     1  LIG1       -0.0461
      8 C           1.2594    3.2774    1.4917 C.3     1  LIG1       -0.0645
      9 H          -0.2631   -2.6179   -0.0240 H       1  LIG1        0.0427
     10 H           0.5682   -1.3202   -0.9106 H       1  LIG1        0.0427
     11 H          -0.2991   -2.0938   -3.0793 H       1  LIG1        0.0575
     12 H          -0.8562   -4.6389   -1.4372 H       1  LIG1        0.0532
     13 H          -0.7511   -4.4517   -3.2844 H       1  LIG1        0.0532
     14 H          -0.5423    1.9723   -0.0870 H       1  LIG1        0.0384
     15 H           0.7355    0.8038    0.3321 H       1  LIG1        0.0384
     16 H           0.7475    1.5610    2.6701 H       1  LIG1        0.0271
     17 H          -0.5972    2.6696    2.3746 H       1  LIG1        0.0271
     18 H           2.0790    2.8656    0.8938 H       1  LIG1        0.0230
     19 H           1.6940    3.7589    2.3739 H       1  LIG1        0.0230
     20 H           0.7600    4.0517    0.8998 H       1  LIG1        0.0230
@<TRIPOS>BOND
     1     1     2    1
     2     2     3    1
     3     3     4    1
     4     4     5    2
     5     1     6    1
     6     6     7    1
     7     7     8    1
     8     3     9    1
     9     3    10    1
    10     4    11    1
    11     5    12    1
    12     5    13    1
    13     6    14    1
    14     6    15    1
    15     7    16    1
    16     7    17    1
    17     8    18    1
    18     8    19    1
    19     8    20    1
