@<TRIPOS>MOLECULE
NuBBE_1585
 62 66 0 0 0
SMALL
GASTEIGER

@<TRIPOS>ATOM
      1 C          -1.6206    2.1582   -6.9994 C.3     1  LIG1       -0.0440
      2 C          -1.8945    1.1922   -5.8859 C.2     1  LIG1       -0.0795
      3 C          -0.8526    0.1279   -5.7168 C.3     1  LIG1       -0.0440
      4 C          -3.0210    1.3331   -5.1165 C.2     1  LIG1       -0.0821
      5 C          -3.4258    0.4746   -3.9687 C.3     1  LIG1       -0.0002
      6 C          -3.5605    1.2238   -2.6344 C.3     1  LIG1        0.0932
      7 O          -3.8862    0.3180   -1.5727 O.3     1  LIG1       -0.4880
      8 C          -2.8872   -0.1811   -0.7804 C.ar    1  LIG1        0.1619
      9 C          -3.1558   -0.5137    0.5622 C.ar    1  LIG1        0.1618
     10 O          -4.3023   -0.2162    1.2670 O.3     1  LIG1       -0.4914
     11 C          -5.3070    0.5391    0.5923 C.3     1  LIG1        0.0790
     12 C          -2.1997   -1.2542    1.3069 C.ar    1  LIG1       -0.0107
     13 C          -0.9647   -1.6285    0.7443 C.ar    1  LIG1       -0.0149
     14 C          -0.0057   -2.6142    1.4097 C.3     1  LIG1        0.0891
     15 H          -0.5981   -3.4246    1.8508 H       1  LIG1        0.0650
     16 C           0.9866   -2.0306    2.3951 C.3     1  LIG1        0.0205
     17 H           0.5743   -1.2509    3.0421 H       1  LIG1        0.0356
     18 C           2.1157   -1.5444    1.5228 C.3     1  LIG1        0.0205
     19 H           1.9119   -0.5662    1.0762 H       1  LIG1        0.0356
     20 C           3.3253   -1.5726    2.4437 C.3     1  LIG1        0.0891
     21 H           4.2521   -1.7850    1.8971 H       1  LIG1        0.0650
     22 C           3.5376   -0.2804    3.2295 C.ar    1  LIG1       -0.0149
     23 C           3.5353   -0.2765    4.6469 C.ar    1  LIG1       -0.0524
     24 C           3.7552    0.8945    5.3810 C.ar    1  LIG1       -0.0158
     25 C           3.9851    2.0552    4.6814 C.ar    1  LIG1        0.1662
     26 O           4.2248    3.2766    5.2279 O.3     1  LIG1       -0.4526
     27 C           4.4006    4.0737    4.0398 C.3     1  LIG1        0.2332
     28 O           4.2549    3.3196    2.8161 O.3     1  LIG1       -0.4526
     29 C           4.0016    2.0755    3.3080 C.ar    1  LIG1        0.1666
     30 C           3.7871    0.9331    2.5567 C.ar    1  LIG1       -0.0105
     31 O           3.0842   -2.6762    3.3439 O.3     1  LIG1       -0.3712
     32 C           1.7090   -3.0872    3.2319 C.3     1  LIG1        0.0544
     33 C           2.1439   -2.6144    0.4319 C.3     1  LIG1        0.0544
     34 O           0.8327   -3.2170    0.3859 O.3     1  LIG1       -0.3712
     35 C          -0.6852   -1.1616   -0.5427 C.ar    1  LIG1       -0.0524
     36 C          -1.6414   -0.5025   -1.3065 C.ar    1  LIG1       -0.0159
     37 H          -0.5863    2.5185   -6.9284 H       1  LIG1        0.0274
     38 H          -2.2724    3.0358   -6.9662 H       1  LIG1        0.0274
     39 H          -1.7503    1.6715   -7.9738 H       1  LIG1        0.0274
     40 H           0.1032    0.5874   -5.4396 H       1  LIG1        0.0274
     41 H          -0.7105   -0.4160   -6.6591 H       1  LIG1        0.0274
     42 H          -1.0831   -0.6216   -4.9566 H       1  LIG1        0.0274
     43 H          -3.7117    2.1260   -5.3756 H       1  LIG1        0.0573
     44 H          -2.7502   -0.3684   -3.8438 H       1  LIG1        0.0340
     45 H          -4.3932   -0.0008   -4.2023 H       1  LIG1        0.0340
     46 H          -4.4171    1.9056   -2.7085 H       1  LIG1        0.0699
     47 H          -2.6934    1.8473   -2.3843 H       1  LIG1        0.0699
     48 H          -6.1196    0.7553    1.2915 H       1  LIG1        0.0660
     49 H          -5.7448   -0.0464   -0.2236 H       1  LIG1        0.0660
     50 H          -4.9215    1.5058    0.2455 H       1  LIG1        0.0660
     51 H          -2.4646   -1.5790    2.3130 H       1  LIG1        0.0659
     52 H           3.3680   -1.2021    5.1952 H       1  LIG1        0.0622
     53 H           3.7527    0.8850    6.4648 H       1  LIG1        0.0655
     54 H           5.4023    4.5193    4.0625 H       1  LIG1        0.1166
     55 H           3.6597    4.8818    4.0479 H       1  LIG1        0.1166
     56 H           3.8222    0.9901    1.4736 H       1  LIG1        0.0659
     57 H           1.2805   -3.1888    4.2326 H       1  LIG1        0.0564
     58 H           1.7072   -4.0836    2.7722 H       1  LIG1        0.0564
     59 H           2.8668   -3.4165    0.6120 H       1  LIG1        0.0564
     60 H           2.3751   -2.1837   -0.5484 H       1  LIG1        0.0564
     61 H           0.2607   -1.3856   -1.0239 H       1  LIG1        0.0622
     62 H          -1.3892   -0.3339   -2.3439 H       1  LIG1        0.0655
@<TRIPOS>BOND
     1     1     2    1
     2     2     3    1
     3     2     4    2
     4     4     5    1
     5     5     6    1
     6     6     7    1
     7     7     8    1
     8     8     9   ar
     9     9    10    1
    10    10    11    1
    11     9    12   ar
    12    12    13   ar
    13    14    16    1
    14    16    18    1
    15    18    20    1
    16    22    23   ar
    17    23    24   ar
    18    24    25   ar
    19    25    26    1
    20    26    27    1
    21    27    28    1
    22    25    29   ar
    23    28    29    1
    24    29    30   ar
    25    22    30   ar
    26    20    31    1
    27    31    32    1
    28    16    32    1
    29    18    33    1
    30    33    34    1
    31    14    34    1
    32    13    35   ar
    33    35    36   ar
    34     8    36   ar
    35    16    17    1
    36    18    19    1
    37    20    21    1
    38    20    22    1
    39    14    15    1
    40    14    13    1
    41     1    37    1
    42     1    38    1
    43     1    39    1
    44     3    40    1
    45     3    41    1
    46     3    42    1
    47     4    43    1
    48     5    44    1
    49     5    45    1
    50     6    46    1
    51     6    47    1
    52    11    48    1
    53    11    49    1
    54    11    50    1
    55    12    51    1
    56    23    52    1
    57    24    53    1
    58    27    54    1
    59    27    55    1
    60    30    56    1
    61    32    57    1
    62    32    58    1
    63    33    59    1
    64    33    60    1
    65    35    61    1
    66    36    62    1
