@<TRIPOS>MOLECULE
NuBBE_1455
 53 57 0 0 0
SMALL
GASTEIGER

@<TRIPOS>ATOM
      1 C          -1.8203    5.3052   -3.3378 C.3     1  LIG1       -0.0215
      2 C          -0.4784    5.1741   -2.6054 C.3     1  LIG1        0.1235
      3 C           0.3303    6.4643   -2.7844 C.3     1  LIG1       -0.0215
      4 C          -0.7179    4.9306   -1.1328 C.2     1  LIG1       -0.0408
      5 C          -0.5814    3.7257   -0.5698 C.2     1  LIG1       -0.0478
      6 C          -0.1985    2.6073   -1.4268 C.ar    1  LIG1        0.0591
      7 C          -0.2510    1.2737   -0.9874 C.ar    1  LIG1        0.1459
      8 C           0.1506    0.2387   -1.8299 C.ar    1  LIG1        0.1045
      9 C           0.0528   -1.1514   -1.3485 C.2     1  LIG1        0.2099
     10 C          -0.7946   -1.4307   -0.1101 C.3     1  LIG1        0.1969
     11 C          -0.1338   -2.2078    1.0076 C.ar    1  LIG1        0.0405
     12 C           1.0372   -2.9632    0.8849 C.ar    1  LIG1       -0.0064
     13 C           1.4964   -3.7755    1.9379 C.ar    1  LIG1        0.1621
     14 O           2.6479   -4.4544    1.6283 O.3     1  LIG1       -0.4914
     15 C           3.5146   -4.7693    2.7113 C.3     1  LIG1        0.0790
     16 C           0.7414   -3.8894    3.1174 C.ar    1  LIG1        0.1650
     17 O           1.1677   -4.7516    4.0927 O.3     1  LIG1       -0.4913
     18 C           0.1513   -5.3336    4.9036 C.3     1  LIG1        0.0790
     19 C          -0.4124   -3.1132    3.2577 C.ar    1  LIG1        0.0258
     20 C          -0.8241   -2.2776    2.2215 C.ar    1  LIG1        0.1308
     21 O          -1.9862   -1.5730    2.4030 O.3     1  LIG1       -0.4877
     22 C          -1.8425   -0.2462    1.8974 C.3     1  LIG1        0.1299
     23 O          -1.8315   -2.3023   -0.6289 O.3     1  LIG1       -0.3728
     24 C          -1.4726   -0.1521    0.4077 C.3     1  LIG1        0.1739
     25 O          -0.6537    1.0258    0.2962 O.3     1  LIG1       -0.4802
     26 O           0.5598   -2.0430   -2.0343 O.2     1  LIG1       -0.2882
     27 C           0.6203    0.5313   -3.1157 C.ar    1  LIG1        0.1345
     28 O           1.0496   -0.4274   -3.9933 O.3     1  LIG1       -0.5058
     29 C           0.6572    1.8461   -3.5677 C.ar    1  LIG1        0.0231
     30 C           0.2291    2.8777   -2.7327 C.ar    1  LIG1        0.1359
     31 O           0.2851    4.1389   -3.2614 O.3     1  LIG1       -0.4814
     32 H          -2.4257    6.1260   -2.9377 H       1  LIG1        0.0271
     33 H          -2.4050    4.3807   -3.2597 H       1  LIG1        0.0271
     34 H          -1.6646    5.4800   -4.4087 H       1  LIG1        0.0271
     35 H          -0.1871    7.3347   -2.3658 H       1  LIG1        0.0271
     36 H           0.5238    6.6587   -3.8461 H       1  LIG1        0.0271
     37 H           1.3116    6.3814   -2.3023 H       1  LIG1        0.0271
     38 H          -1.0396    5.7706   -0.5231 H       1  LIG1        0.0611
     39 H          -0.7695    3.5608    0.4848 H       1  LIG1        0.0624
     40 H           1.6142   -2.9638   -0.0378 H       1  LIG1        0.0660
     41 H           3.2135   -5.7081    3.1853 H       1  LIG1        0.0660
     42 H           3.5839   -3.9534    3.4389 H       1  LIG1        0.0660
     43 H           4.5160   -4.9237    2.2972 H       1  LIG1        0.0660
     44 H           0.5896   -6.1917    5.4223 H       1  LIG1        0.0660
     45 H          -0.6879   -5.7011    4.3025 H       1  LIG1        0.0660
     46 H          -0.1900   -4.6248    5.6645 H       1  LIG1        0.0660
     47 H          -1.0085   -3.1361    4.1636 H       1  LIG1        0.0692
     48 H          -1.1180    0.2920    2.5260 H       1  LIG1        0.0735
     49 H          -2.7975    0.2683    2.0589 H       1  LIG1        0.0735
     50 H          -1.3826   -3.1275   -0.8986 H       1  LIG1        0.2114
     51 H          -2.4003    0.0313   -0.1543 H       1  LIG1        0.0805
     52 H           1.0214   -1.2993   -3.5387 H       1  LIG1        0.2922
     53 H           1.0099    2.0673   -4.5715 H       1  LIG1        0.0691
@<TRIPOS>BOND
     1     1     2    1
     2     2     3    1
     3     2     4    1
     4     4     5    2
     5     5     6    1
     6     6     7   ar
     7     7     8   ar
     8     8     9    1
     9     9    10    1
    10    10    11    1
    11    11    12   ar
    12    12    13   ar
    13    13    14    1
    14    14    15    1
    15    13    16   ar
    16    16    17    1
    17    17    18    1
    18    16    19   ar
    19    19    20   ar
    20    11    20   ar
    21    20    21    1
    22    21    22    1
    23    10    23    1
    24    10    24    1
    25    22    24    1
    26    24    25    1
    27     7    25    1
    28     9    26    2
    29     8    27   ar
    30    27    28    1
    31    27    29   ar
    32    29    30   ar
    33     6    30   ar
    34    30    31    1
    35     2    31    1
    36     1    32    1
    37     1    33    1
    38     1    34    1
    39     3    35    1
    40     3    36    1
    41     3    37    1
    42     4    38    1
    43     5    39    1
    44    12    40    1
    45    15    41    1
    46    15    42    1
    47    15    43    1
    48    18    44    1
    49    18    45    1
    50    18    46    1
    51    19    47    1
    52    22    48    1
    53    22    49    1
    54    23    50    1
    55    24    51    1
    56    28    52    1
    57    29    53    1
