@<TRIPOS>MOLECULE
NuBBE_382
 73 77 0 0 0
SMALL
GASTEIGER

@<TRIPOS>ATOM
      1 O          -6.9608   -1.9671    0.1896 O.2     1  LIG1       -0.2840
      2 C          -5.8779   -2.2689    0.6854 C.2     1  LIG1        0.2206
      3 C          -5.7480   -3.5330    1.4702 C.2     1  LIG1        0.1671
      4 O          -6.9088   -4.2584    1.6763 O.2     1  LIG1       -0.5030
      5 C          -4.5486   -3.9351    1.9323 C.2     1  LIG1        0.0022
      6 C          -4.3957   -5.1916    2.7468 C.3     1  LIG1       -0.0356
      7 C          -3.3588   -3.1422    1.5813 C.2     1  LIG1       -0.0144
      8 C          -2.1082   -3.6317    1.7109 C.2     1  LIG1       -0.0536
      9 C          -0.9520   -2.9721    1.1325 C.2     1  LIG1       -0.0569
     10 C          -0.9995   -1.7234    0.6152 C.2     1  LIG1       -0.0335
     11 C           0.0882   -1.1363   -0.2299 C.2     1  LIG1       -0.0382
     12 C           1.1484   -1.8262   -0.7541 C.2     1  LIG1       -0.0681
     13 C           1.2917   -3.3302   -0.8615 C.3     1  LIG1       -0.0432
     14 C           2.3864   -1.1639   -1.3645 C.3     1  LIG1       -0.0256
     15 C           2.4968    0.3820   -1.3574 C.3     1  LIG1       -0.0224
     16 C           3.8784    0.8051   -0.7936 C.3     1  LIG1       -0.0198
     17 C           4.0605    2.3271   -0.7485 C.3     1  LIG1        0.0712
     18 H           4.1235    2.7147   -1.7722 H       1  LIG1        0.0604
     19 O           5.3331    2.5893   -0.1541 O.3     1  LIG1       -0.3907
     20 C           2.9294    3.0578    0.0182 C.3     1  LIG1        0.0910
     21 C           3.1092    2.9255    1.5471 C.3     1  LIG1       -0.0470
     22 C           3.0549    4.5459   -0.3605 C.2     1  LIG1        0.3153
     23 O           2.4718    4.7724   -1.5765 O.3     1  LIG1       -0.4675
     24 C           2.6827    6.0700   -2.1319 C.3     1  LIG1        0.0817
     25 O           3.6476    5.3948    0.2793 O.2     1  LIG1       -0.2501
     26 C           1.5119    2.5260   -0.3747 C.3     1  LIG1       -0.0309
     27 C           2.4645    0.8815   -2.8314 C.3     1  LIG1       -0.0589
     28 C           1.4200    0.9853   -0.4085 C.3     1  LIG1       -0.0248
     29 H           1.6953    0.6729    0.6124 H       1  LIG1        0.0315
     30 C          -0.0128    0.3681   -0.6200 C.3     1  LIG1       -0.0034
     31 C          -0.4902    0.4477   -2.0989 C.3     1  LIG1       -0.0553
     32 C          -1.0515    1.1612    0.2037 C.3     1  LIG1       -0.0422
     33 C          -2.3809    0.4280    0.3226 C.3     1  LIG1       -0.0388
     34 C          -2.2234   -0.8931    1.0929 C.3     1  LIG1        0.0189
     35 C          -2.0043   -0.4979    2.5952 C.3     1  LIG1       -0.0515
     36 C          -3.5022   -1.7689    1.0496 C.2     1  LIG1       -0.0259
     37 C          -4.7044   -1.3754    0.5931 C.2     1  LIG1       -0.0067
     38 H          -7.6010   -3.7654    1.1859 H       1  LIG1        0.2923
     39 H          -5.3572   -5.6423    3.0126 H       1  LIG1        0.0279
     40 H          -3.8762   -4.9781    3.6875 H       1  LIG1        0.0279
     41 H          -3.8292   -5.9480    2.1932 H       1  LIG1        0.0279
     42 H          -1.9138   -4.6245    2.1056 H       1  LIG1        0.0624
     43 H          -0.0892   -3.6171    1.0684 H       1  LIG1        0.0621
     44 H           0.3296   -3.8352   -0.9815 H       1  LIG1        0.0275
     45 H           1.8420   -3.7307   -0.0049 H       1  LIG1        0.0275
     46 H           1.8530   -3.6026   -1.7636 H       1  LIG1        0.0275
     47 H           2.4961   -1.5311   -2.3940 H       1  LIG1        0.0315
     48 H           3.2477   -1.5769   -0.8198 H       1  LIG1        0.0315
     49 H           4.6879    0.3675   -1.3946 H       1  LIG1        0.0296
     50 H           4.0263    0.3890    0.2122 H       1  LIG1        0.0296
     51 H           6.0205    2.2430   -0.7492 H       1  LIG1        0.2098
     52 H           2.2997    3.4322    2.0851 H       1  LIG1        0.0241
     53 H           4.0458    3.3771    1.8933 H       1  LIG1        0.0241
     54 H           3.1169    1.8788    1.8696 H       1  LIG1        0.0241
     55 H           2.0033    6.7946   -1.6745 H       1  LIG1        0.0661
     56 H           2.4577    6.0045   -3.1999 H       1  LIG1        0.0661
     57 H           3.7248    6.3832   -2.0228 H       1  LIG1        0.0661
     58 H           1.1787    2.9099   -1.3429 H       1  LIG1        0.0280
     59 H           0.7984    2.9413    0.3465 H       1  LIG1        0.0280
     60 H           3.4227    0.6769   -3.3260 H       1  LIG1        0.0235
     61 H           2.2863    1.9558   -2.9188 H       1  LIG1        0.0235
     62 H           1.7193    0.3786   -3.4480 H       1  LIG1        0.0235
     63 H          -0.0164   -0.3010   -2.7378 H       1  LIG1        0.0238
     64 H          -0.3132    1.4425   -2.5208 H       1  LIG1        0.0238
     65 H          -1.5579    0.2466   -2.2164 H       1  LIG1        0.0238
     66 H          -0.6585    1.3919    1.1998 H       1  LIG1        0.0274
     67 H          -1.2465    2.1317   -0.2721 H       1  LIG1        0.0274
     68 H          -2.8168    0.2515   -0.6651 H       1  LIG1        0.0277
     69 H          -3.0913    1.0914    0.8352 H       1  LIG1        0.0277
     70 H          -1.0358   -0.0129    2.7570 H       1  LIG1        0.0241
     71 H          -2.0304   -1.3552    3.2771 H       1  LIG1        0.0241
     72 H          -2.7853    0.1929    2.9373 H       1  LIG1        0.0241
     73 H          -4.9046   -0.4003    0.1702 H       1  LIG1        0.0660
@<TRIPOS>BOND
     1     2     3    1
     2     3     5    2
     3     5     7    1
     4     7     8    2
     5     8     9    1
     6     9    10    2
     7    10    11    1
     8    11    12    2
     9    12    14    1
    10    14    15    1
    11    15    16    1
    12    16    17    1
    13    17    20    1
    14    22    23    1
    15    23    24    1
    16    22    25    2
    17    20    26    1
    18    15    28    1
    19    26    28    1
    20    28    30    1
    21    11    30    1
    22    30    32    1
    23    32    33    1
    24    10    34    1
    25    33    34    1
    26    34    36    1
    27     7    36    1
    28    36    37    2
    29     2    37    1
    30     1     2    2
    31     3     4    1
    32     5     6    1
    33    12    13    1
    34    15    27    1
    35    28    29    1
    36    30    31    1
    37    34    35    1
    38    17    19    1
    39    17    18    1
    40    20    22    1
    41    20    21    1
    42     4    38    1
    43     6    39    1
    44     6    40    1
    45     6    41    1
    46     8    42    1
    47     9    43    1
    48    13    44    1
    49    13    45    1
    50    13    46    1
    51    14    47    1
    52    14    48    1
    53    16    49    1
    54    16    50    1
    55    19    51    1
    56    21    52    1
    57    21    53    1
    58    21    54    1
    59    24    55    1
    60    24    56    1
    61    24    57    1
    62    26    58    1
    63    26    59    1
    64    27    60    1
    65    27    61    1
    66    27    62    1
    67    31    63    1
    68    31    64    1
    69    31    65    1
    70    32    66    1
    71    32    67    1
    72    33    68    1
    73    33    69    1
    74    35    70    1
    75    35    71    1
    76    35    72    1
    77    37    73    1
