@<TRIPOS>MOLECULE
NuBBE_598
 32 34 0 0 0
SMALL
GASTEIGER

@<TRIPOS>ATOM
      1 C          -0.3989    3.6773   -0.6183 C.3     1  LIG1        0.0788
      2 O           0.2267    2.4214   -0.8592 O.3     1  LIG1       -0.4937
      3 C           0.4808    1.6843    0.2875 C.ar    1  LIG1        0.1417
      4 C           1.1434    2.1893    1.4208 C.ar    1  LIG1        0.0820
      5 C           1.3999    1.2800    2.4429 C.ar    1  LIG1        0.2311
      6 O           2.0380    1.9048    3.4724 O.2     1  LIG1       -0.4449
      7 C           2.2074    3.2010    3.1149 C.ar    1  LIG1        0.0952
      8 C           1.6874    3.4265    1.8620 C.ar    1  LIG1       -0.0109
      9 N           1.1011   -0.0274    2.4675 N.ar    1  LIG1       -0.2117
     10 C           0.4891   -0.4901    1.3704 C.ar    1  LIG1        0.0820
     11 C           0.1551   -1.8384    1.3360 C.ar    1  LIG1        0.0099
     12 C          -0.5008   -2.4312    0.2455 C.ar    1  LIG1        0.1635
     13 O          -0.7652   -3.7670    0.4158 O.3     1  LIG1       -0.4914
     14 C          -0.8353   -4.5633   -0.7621 C.3     1  LIG1        0.0790
     15 C          -0.8564   -1.6395   -0.8486 C.ar    1  LIG1        0.1623
     16 O          -1.6281   -2.1809   -1.8391 O.3     1  LIG1       -0.4914
     17 C          -1.3666   -1.7182   -3.1584 C.3     1  LIG1        0.0790
     18 C          -0.5183   -0.2872   -0.8369 C.ar    1  LIG1       -0.0036
     19 C           0.1547    0.3063    0.2569 C.ar    1  LIG1        0.0465
     20 H          -0.9300    3.9630   -1.5316 H       1  LIG1        0.0660
     21 H           0.3537    4.4465   -0.4302 H       1  LIG1        0.0660
     22 H          -1.1299    3.6325    0.1963 H       1  LIG1        0.0660
     23 H           2.7108    3.8254    3.8407 H       1  LIG1        0.1030
     24 H           1.7060    4.3725    1.3426 H       1  LIG1        0.0657
     25 H           0.4135   -2.4607    2.1920 H       1  LIG1        0.0677
     26 H          -0.8158   -5.6138   -0.4564 H       1  LIG1        0.0660
     27 H           0.0262   -4.3912   -1.4174 H       1  LIG1        0.0660
     28 H          -1.7801   -4.4154   -1.2920 H       1  LIG1        0.0660
     29 H          -0.2944   -1.7288   -3.3803 H       1  LIG1        0.0660
     30 H          -1.7960   -0.7255   -3.3212 H       1  LIG1        0.0660
     31 H          -1.8604   -2.4080   -3.8498 H       1  LIG1        0.0660
     32 H          -0.8177    0.3554   -1.6626 H       1  LIG1        0.0663
@<TRIPOS>BOND
     1     1     2    1
     2     2     3    1
     3     3     4   ar
     4     4     5   ar
     5     5     6   ar
     6     6     7   ar
     7     7     8   ar
     8     4     8   ar
     9     5     9   ar
    10     9    10   ar
    11    10    11   ar
    12    11    12   ar
    13    12    13    1
    14    13    14    1
    15    12    15   ar
    16    15    16    1
    17    16    17    1
    18    15    18   ar
    19    18    19   ar
    20    10    19   ar
    21     3    19   ar
    22     1    20    1
    23     1    21    1
    24     1    22    1
    25     7    23    1
    26     8    24    1
    27    11    25    1
    28    14    26    1
    29    14    27    1
    30    14    28    1
    31    17    29    1
    32    17    30    1
    33    17    31    1
    34    18    32    1
