REMARK  Name = NuBBE_2085
REMARK  16 active torsions:
REMARK  status: ('A' for Active; 'I' for Inactive)
REMARK    1  A    between atoms: C_1  and  C_10
REMARK    2  A    between atoms: C_12  and  C_39
REMARK    3  A    between atoms: C_14  and  C_30
REMARK    4  A    between atoms: C_16  and  C_18
REMARK    5  A    between atoms: C_20  and  O_21
REMARK    6  A    between atoms: O_21  and  C_22
REMARK    7  A    between atoms: C_23  and  O_28
REMARK    8  A    between atoms: C_24  and  O_26
REMARK    9  A    between atoms: O_26  and  C_27
REMARK   10  A    between atoms: O_28  and  C_29
REMARK   11  A    between atoms: C_41  and  O_42
REMARK   12  A    between atoms: O_42  and  C_43
REMARK   13  A    between atoms: C_44  and  O_49
REMARK   14  A    between atoms: C_45  and  O_47
REMARK   15  A    between atoms: O_47  and  C_48
REMARK   16  A    between atoms: O_49  and  C_50
REMARK                            x       y       z     vdW  Elec       q    Type
REMARK                         _______ _______ _______ _____ _____    ______ ____
ROOT
ATOM      1  C   LIG A   1      -0.965  -0.161  -0.574  0.00  0.00    +0.092 C 
ATOM      2  C   LIG A   1       0.246   0.657  -0.009  0.00  0.00    +0.044 C 
ATOM      3  C   LIG A   1       1.102  -0.616  -0.219  0.00  0.00    +0.092 C 
ATOM      4  C   LIG A   1      -0.229  -1.440  -0.037  0.00  0.00    +0.044 C 
ENDROOT
BRANCH   1   5
ATOM      5  C   LIG A   1      -2.442   0.176  -0.199  0.00  0.00    +0.226 C 
ATOM      6  O   LIG A   1      -2.720   0.799   0.848  0.00  0.00    -0.275 OA
ATOM      7  N   LIG A   1      -3.516  -0.158  -1.102  0.00  0.00    -0.238 N 
ATOM      8  C   LIG A   1      -3.334  -0.726  -2.370  0.00  0.00    +0.245 C 
ATOM      9  O   LIG A   1      -2.277  -0.955  -2.917  0.00  0.00    -0.270 OA
ATOM     10  C   LIG A   1      -4.541  -1.053  -3.174  0.00  0.00    +0.064 C 
ATOM     11  C   LIG A   1      -5.777  -0.721  -2.812  0.00  0.00    -0.020 C 
ATOM     12  C   LIG A   1      -6.048  -0.035  -1.524  0.00  0.00    +0.047 C 
ATOM     13  C   LIG A   1      -4.870  -0.128  -0.538  0.00  0.00    +0.120 C 
ENDBRANCH   1   5
BRANCH   3  14
ATOM     14  C   LIG A   1       1.933  -0.893  -1.511  0.00  0.00    +0.226 C 
ATOM     15  O   LIG A   1       1.415  -0.926  -2.627  0.00  0.00    -0.275 OA
ATOM     16  N   LIG A   1       3.329  -1.129  -1.360  0.00  0.00    -0.238 N 
ATOM     17  C   LIG A   1       4.015  -1.178  -0.147  0.00  0.00    +0.245 C 
ATOM     18  O   LIG A   1       3.561  -1.514   0.955  0.00  0.00    -0.270 OA
ATOM     19  C   LIG A   1       5.458  -0.857  -0.193  0.00  0.00    +0.064 C 
ATOM     20  C   LIG A   1       6.085  -0.483  -1.331  0.00  0.00    -0.020 C 
ATOM     21  C   LIG A   1       5.329  -0.468  -2.631  0.00  0.00    +0.047 C 
ATOM     22  C   LIG A   1       4.112  -1.386  -2.558  0.00  0.00    +0.120 C 
ENDBRANCH   3  14
BRANCH   4  23
ATOM     23  C   LIG A   1      -0.417  -2.097   1.440  0.00  0.00    -0.036 A 
ATOM     24  C   LIG A   1       0.159  -1.590   2.626  0.00  0.00    +0.053 A 
ATOM     25  C   LIG A   1       0.038  -2.211   3.888  0.00  0.00    +0.165 A 
ATOM     26  C   LIG A   1      -0.711  -3.389   4.014  0.00  0.00    +0.203 A 
ATOM     27  C   LIG A   1      -1.214  -3.976   2.838  0.00  0.00    +0.165 A 
ATOM     28  C   LIG A   1      -1.079  -3.326   1.594  0.00  0.00    +0.053 A 
BRANCH  25  29
ATOM     29  O   LIG A   1       0.669  -1.514   4.891  0.00  0.00    -0.491 OA
ATOM     30  C   LIG A   1       1.139  -2.252   6.014  0.00  0.00    +0.277 C 
ENDBRANCH  25  29
BRANCH  27  31
ATOM     31  O   LIG A   1      -1.852  -5.183   2.943  0.00  0.00    -0.491 OA
ATOM     32  C   LIG A   1      -1.746  -6.074   1.844  0.00  0.00    +0.277 C 
ENDBRANCH  27  31
BRANCH  26  33
ATOM     33  O   LIG A   1      -0.813  -3.945   5.263  0.00  0.00    -0.488 OA
ATOM     34  C   LIG A   1      -2.036  -4.564   5.641  0.00  0.00    +0.277 C 
ENDBRANCH  26  33
ENDBRANCH   4  23
BRANCH   2  35
ATOM     35  C   LIG A   1       0.695   2.040  -0.636  0.00  0.00    -0.036 A 
ATOM     36  C   LIG A   1       1.801   2.793  -0.205  0.00  0.00    +0.053 A 
ATOM     37  C   LIG A   1       2.045   4.105  -0.677  0.00  0.00    +0.165 A 
ATOM     38  C   LIG A   1       1.136   4.721  -1.560  0.00  0.00    +0.203 A 
ATOM     39  C   LIG A   1       0.046   3.986  -2.010  0.00  0.00    +0.165 A 
ATOM     40  C   LIG A   1      -0.103   2.654  -1.599  0.00  0.00    +0.053 A 
BRANCH  37  41
ATOM     41  O   LIG A   1       3.130   4.726  -0.105  0.00  0.00    -0.491 OA
ATOM     42  C   LIG A   1       3.837   5.726  -0.838  0.00  0.00    +0.277 C 
ENDBRANCH  37  41
BRANCH  39  43
ATOM     43  O   LIG A   1      -0.885   4.574  -2.832  0.00  0.00    -0.491 OA
ATOM     44  C   LIG A   1      -2.181   3.988  -2.699  0.00  0.00    +0.277 C 
ENDBRANCH  39  43
BRANCH  38  45
ATOM     45  O   LIG A   1       1.423   6.001  -1.896  0.00  0.00    -0.488 OA
ATOM     46  C   LIG A   1       0.501   6.933  -2.399  0.00  0.00    +0.277 C 
ENDBRANCH  38  45
ENDBRANCH   2  35
TORSDOF 10
