REMARK  Name = NuBBE_25
REMARK  11 active torsions:
REMARK  status: ('A' for Active; 'I' for Inactive)
REMARK    1  A    between atoms: C_1  and  C_2
REMARK    2  A    between atoms: C_2  and  C_3
REMARK    3  A    between atoms: C_3  and  C_4
REMARK    4  A    between atoms: C_4  and  C_5
REMARK    5  A    between atoms: C_5  and  C_6
REMARK    6  A    between atoms: C_7  and  C_8
REMARK    7  A    between atoms: C_9  and  C_10
REMARK    8  A    between atoms: N_11  and  C_13
REMARK    9  A    between atoms: C_13  and  C_14
REMARK   10  A    between atoms: C_14  and  C_15
REMARK   11  A    between atoms: C_14  and  C_16
REMARK                            x       y       z     vdW  Elec       q    Type
REMARK                         _______ _______ _______ _____ _____    ______ ____
ROOT
ATOM      1  C   LIG A   1       0.678  -1.517   1.151  0.00  0.00    +0.005 C 
ATOM      2  C   LIG A   1       1.642  -0.865   0.485  0.00  0.00    +0.067 C 
ENDROOT
BRANCH   2   3
ATOM      3  C   LIG A   1       3.044  -0.954   0.956  0.00  0.00    +0.237 C 
ATOM      4  N   LIG A   1       3.738   0.204   1.156  0.00  0.00    -0.312 N 
ATOM      5  H   LIG A   1       4.663   0.016   1.526  0.00  0.00    +0.149 HD
ATOM      6  O   LIG A   1       3.584  -2.033   1.126  0.00  0.00    -0.271 OA
BRANCH   4   7
ATOM      7  C   LIG A   1       3.288   1.588   1.143  0.00  0.00    +0.107 C 
BRANCH   7   8
ATOM      8  C   LIG A   1       4.451   2.558   0.856  0.00  0.00    +0.000 C 
ATOM      9  C   LIG A   1       5.109   2.297  -0.502  0.00  0.00    +0.009 C 
ATOM     10  C   LIG A   1       3.992   4.018   0.912  0.00  0.00    +0.009 C 
ENDBRANCH   7   8
ENDBRANCH   4   7
ENDBRANCH   2   3
BRANCH   1  12
ATOM     11  C   LIG A   1      -1.679  -2.246   1.300  0.00  0.00    -0.027 C 
ATOM     12  C   LIG A   1      -0.679  -1.626   0.649  0.00  0.00    -0.004 C 
BRANCH  11  13
ATOM     13  C   LIG A   1      -3.078  -2.478   0.768  0.00  0.00    +0.027 C 
BRANCH  13  14
ATOM     14  C   LIG A   1      -3.552  -1.435  -0.246  0.00  0.00    +0.004 C 
BRANCH  14  15
ATOM     15  C   LIG A   1      -4.951  -1.709  -0.802  0.00  0.00    +0.000 C 
BRANCH  15  17
ATOM     16  C   LIG A   1      -4.478  -0.514  -3.018  0.00  0.00    +0.004 C 
ATOM     17  C   LIG A   1      -5.388  -0.629  -1.801  0.00  0.00    -0.003 C 
ENDBRANCH  15  17
ENDBRANCH  14  15
ENDBRANCH  13  14
ENDBRANCH  11  13
ENDBRANCH   1  12
TORSDOF 8
