@<TRIPOS>MOLECULE
NuBBE_2185
 51 52 0 0 0
SMALL
GASTEIGER

@<TRIPOS>ATOM
      1 C           1.2138    1.5149    1.9528 C.3     1  LIG1       -0.0112
      2 H           0.6040    2.3956    1.7117 H       1  LIG1        0.0350
      3 C           0.3144    0.6053    2.8720 C.3     1  LIG1       -0.0209
      4 C          -0.9674    0.0522    2.3001 C.ar    1  LIG1       -0.0431
      5 C          -0.8865   -0.9650    1.3467 C.ar    1  LIG1       -0.0131
      6 C          -1.9996   -1.4991    0.6801 C.ar    1  LIG1        0.1617
      7 O          -1.7991   -2.3703   -0.3662 O.3     1  LIG1       -0.4914
      8 C          -0.6788   -2.0715   -1.2150 C.3     1  LIG1        0.0790
      9 C          -3.2630   -1.1798    1.1936 C.ar    1  LIG1        0.1615
     10 C          -3.3578   -0.1794    2.1862 C.ar    1  LIG1       -0.0160
     11 C          -2.2294    0.4668    2.7034 C.ar    1  LIG1       -0.0549
     12 O          -4.4697   -1.7885    0.9934 O.3     1  LIG1       -0.4915
     13 C          -4.8038   -2.3842   -0.2436 C.3     1  LIG1        0.0790
     14 C           2.2898    2.1471    2.8774 C.3     1  LIG1       -0.0580
     15 C           1.5914    0.9743    0.5212 C.ar    1  LIG1       -0.0021
     16 C           2.7817    0.4119   -0.0074 C.ar    1  LIG1        0.1270
     17 O           4.0027    0.1127    0.5491 O.3     1  LIG1       -0.4947
     18 C           4.1620    0.3202    1.9223 C.3     1  LIG1        0.0788
     19 C           2.8303    0.0067   -1.3656 C.ar    1  LIG1        0.0221
     20 C           1.7369    0.1039   -2.2222 C.ar    1  LIG1        0.1238
     21 C           0.5516    0.6943   -1.7899 C.ar    1  LIG1       -0.0017
     22 C           0.5101    1.1048   -0.4283 C.ar    1  LIG1       -0.0479
     23 C          -0.7180    0.8285   -2.6364 C.3     1  LIG1       -0.0063
     24 C          -0.6302    0.3025   -4.0319 C.2     1  LIG1       -0.0867
     25 C          -0.1563    1.1122   -5.0687 C.2     1  LIG1       -0.1023
     26 O           1.8357   -0.4687   -3.4573 O.3     1  LIG1       -0.5064
     27 H           0.0495    1.1924    3.7643 H       1  LIG1        0.0319
     28 H           0.8930   -0.2460    3.2590 H       1  LIG1        0.0319
     29 H           0.1106   -1.3284    1.1182 H       1  LIG1        0.0658
     30 H          -1.0407   -1.6551   -2.1532 H       1  LIG1        0.0660
     31 H          -0.0879   -2.9517   -1.4717 H       1  LIG1        0.0660
     32 H           0.0375   -1.3910   -0.7760 H       1  LIG1        0.0660
     33 H          -4.3396    0.0874    2.5764 H       1  LIG1        0.0655
     34 H          -2.3537    1.2400    3.4570 H       1  LIG1        0.0621
     35 H          -5.4770   -1.7052   -0.7756 H       1  LIG1        0.0660
     36 H          -5.3673   -3.3032   -0.0409 H       1  LIG1        0.0660
     37 H          -3.9649   -2.6374   -0.8828 H       1  LIG1        0.0660
     38 H           1.8963    2.9691    3.4810 H       1  LIG1        0.0236
     39 H           3.1119    2.5642    2.2968 H       1  LIG1        0.0236
     40 H           2.6624    1.4423    3.6398 H       1  LIG1        0.0236
     41 H           3.2078    0.1470    2.3918 H       1  LIG1        0.0660
     42 H           4.6254    1.3011    2.0764 H       1  LIG1        0.0660
     43 H           4.7969   -0.4179    2.4138 H       1  LIG1        0.0660
     44 H           3.7572   -0.4178   -1.7515 H       1  LIG1        0.0691
     45 H          -0.4580    1.4559   -0.0589 H       1  LIG1        0.0625
     46 H          -1.0309    1.8705   -2.6363 H       1  LIG1        0.0357
     47 H          -1.5656    0.2921   -2.1654 H       1  LIG1        0.0357
     48 H          -0.8092   -0.7277   -4.2516 H       1  LIG1        0.0570
     49 H           0.1191    2.1181   -4.8540 H       1  LIG1        0.0532
     50 H           0.0423    0.6854   -6.0288 H       1  LIG1        0.0532
     51 H           2.7205   -0.8316   -3.6054 H       1  LIG1        0.2921
@<TRIPOS>BOND
     1     1     2    1
     2     1     3    1
     3     3     4    1
     4     4     5   ar
     5     5     6   ar
     6     6     7    1
     7     7     8    1
     8     6     9   ar
     9     9    10   ar
    10    10    11   ar
    11     4    11   ar
    12     9    12    1
    13    12    13    1
    14     1    14    1
    15     1    15    1
    16    15    16   ar
    17    16    17    1
    18    17    18    1
    19    16    19   ar
    20    19    20   ar
    21    20    21   ar
    22    21    22   ar
    23    15    22   ar
    24    21    23    1
    25    23    24    1
    26    24    25    2
    27    20    26    1
    28     3    27    1
    29     3    28    1
    30     5    29    1
    31     8    30    1
    32     8    31    1
    33     8    32    1
    34    10    33    1
    35    11    34    1
    36    13    35    1
    37    13    36    1
    38    13    37    1
    39    14    38    1
    40    14    39    1
    41    14    40    1
    42    18    41    1
    43    18    42    1
    44    18    43    1
    45    19    44    1
    46    22    45    1
    47    23    46    1
    48    23    47    1
    49    24    48    1
    50    25    49    1
    51    25    50    1
    52    26    51    1
