REMARK  Name = NuBBE_1359
REMARK  2 active torsions:
REMARK  status: ('A' for Active; 'I' for Inactive)
REMARK    1  A    between atoms: C_2  and  C_3
REMARK    2  A    between atoms: C_8  and  C_9
REMARK                            x       y       z     vdW  Elec       q    Type
REMARK                         _______ _______ _______ _____ _____    ______ ____
ROOT
ATOM      1  C   LIG A   1       1.471  -0.092  -0.151  0.00  0.00    +0.089 C 
ATOM      2  C   LIG A   1       1.074  -0.109  -1.679  0.00  0.00    +0.028 C 
ATOM      3  C   LIG A   1      -0.426   0.004  -2.126  0.00  0.00    +0.062 C 
ATOM      4  C   LIG A   1      -1.047   1.400  -1.948  0.00  0.00    +0.019 C 
ATOM      5  C   LIG A   1      -2.479   1.447  -2.474  0.00  0.00    +0.003 C 
ATOM      6  C   LIG A   1      -3.303   0.353  -1.809  0.00  0.00    +0.015 C 
ATOM      7  C   LIG A   1      -2.663  -1.013  -2.034  0.00  0.00    +0.085 C 
ATOM      8  N   LIG A   1      -1.269  -1.072  -1.567  0.00  0.00    -0.299 NA
ATOM      9  C   LIG A   1      -0.707  -2.398  -1.881  0.00  0.00    +0.089 C 
ATOM     10  C   LIG A   1       1.581  -1.443  -2.250  0.00  0.00    +0.013 C 
ATOM     11  C   LIG A   1       0.790  -2.552  -1.555  0.00  0.00    +0.021 C 
ATOM     12  C   LIG A   1       1.148  -2.538  -0.050  0.00  0.00    +0.062 C 
ATOM     13  N   LIG A   1       0.950  -1.239   0.639  0.00  0.00    -0.292 NA
ATOM     14  C   LIG A   1       1.578  -1.318   1.979  0.00  0.00    +0.085 C 
ATOM     15  C   LIG A   1       0.928  -2.406   2.836  0.00  0.00    +0.015 C 
ATOM     16  C   LIG A   1       0.943  -3.763   2.144  0.00  0.00    +0.003 C 
ATOM     17  C   LIG A   1       0.406  -3.643   0.722  0.00  0.00    +0.019 C 
ENDROOT
BRANCH   1  25
ATOM     18  O   LIG A   1      -1.384   4.259   3.053  0.00  0.00    -0.276 OA
ATOM     19  C   LIG A   1      -1.261   3.183   2.464  0.00  0.00    +0.216 C 
ATOM     20  C   LIG A   1      -2.403   2.195   2.468  0.00  0.00    +0.110 C 
ATOM     21  N   LIG A   1      -0.098   2.828   1.770  0.00  0.00    -0.278 N 
ATOM     22  C   LIG A   1       0.989   3.810   1.765  0.00  0.00    +0.113 C 
ATOM     23  C   LIG A   1       1.894   3.689   0.548  0.00  0.00    +0.024 C 
ATOM     24  C   LIG A   1       2.369   2.256   0.372  0.00  0.00    +0.035 C 
ATOM     25  C   LIG A   1       1.233   1.272   0.497  0.00  0.00    -0.038 C 
ATOM     26  C   LIG A   1       0.120   1.588   1.186  0.00  0.00    +0.078 C 
ENDBRANCH   1  25
TORSDOF 1
