REMARK  Name = NuBBE_1562
REMARK  2 active torsions:
REMARK  status: ('A' for Active; 'I' for Inactive)
REMARK    1  A    between atoms: C_4  and  O_5
REMARK    2  A    between atoms: C_11  and  C_12
REMARK                            x       y       z     vdW  Elec       q    Type
REMARK                         _______ _______ _______ _____ _____    ______ ____
ROOT
ATOM      1  O   LIG A   1      -3.353   0.696   0.416  0.00  0.00    -0.287 OA
ATOM      2  C   LIG A   1      -2.138   0.645   0.264  0.00  0.00    +0.197 A 
ATOM      3  C   LIG A   1      -1.331   1.866   0.161  0.00  0.00    +0.105 A 
ATOM      4  C   LIG A   1      -1.909   3.137   0.233  0.00  0.00    +0.131 A 
ATOM      5  C   LIG A   1      -1.110   4.273   0.132  0.00  0.00    +0.046 A 
ATOM      6  C   LIG A   1       0.269   4.141  -0.041  0.00  0.00    +0.007 A 
ATOM      7  C   LIG A   1       0.848   2.871  -0.112  0.00  0.00    +0.047 A 
ATOM      8  C   LIG A   1       0.045   1.734  -0.011  0.00  0.00    +0.143 A 
ATOM      9  O   LIG A   1       0.674   0.517  -0.087  0.00  0.00    -0.455 OA
ATOM     10  C   LIG A   1      -0.096  -0.633  -0.001  0.00  0.00    +0.139 A 
ATOM     11  C   LIG A   1      -1.426  -0.638   0.174  0.00  0.00    +0.098 A 
ENDROOT
BRANCH  10  12
ATOM     12  C   LIG A   1       0.678  -1.886  -0.088  0.00  0.00    +0.017 A 
ATOM     13  C   LIG A   1       1.904  -2.001   0.585  0.00  0.00    +0.011 A 
ATOM     14  C   LIG A   1       2.656  -3.176   0.506  0.00  0.00    +0.001 A 
ATOM     15  C   LIG A   1       2.194  -4.250  -0.251  0.00  0.00    +0.000 A 
ATOM     16  C   LIG A   1       0.984  -4.149  -0.933  0.00  0.00    +0.001 A 
ATOM     17  C   LIG A   1       0.232  -2.974  -0.855  0.00  0.00    +0.011 A 
ENDBRANCH  10  12
BRANCH   4  18
ATOM     18  O   LIG A   1      -3.252   3.337   0.401  0.00  0.00    -0.506 OA
ATOM     19  H   LIG A   1      -3.688   2.457   0.457  0.00  0.00    +0.292 HD
ENDBRANCH   4  18
TORSDOF 2
