REMARK  Name = NuBBE_906
REMARK  6 active torsions:
REMARK  status: ('A' for Active; 'I' for Inactive)
REMARK    1  A    between atoms: N_10  and  C_16
REMARK    2  A    between atoms: C_11  and  C_12
REMARK    3  A    between atoms: C_11  and  S_14
REMARK    4  A    between atoms: C_12  and  O_13
REMARK    5  A    between atoms: S_14  and  C_15
REMARK    6  A    between atoms: C_20  and  O_21
REMARK                            x       y       z     vdW  Elec       q    Type
REMARK                         _______ _______ _______ _____ _____    ______ ____
ROOT
ATOM      1  O   LIG A   1       0.257  -2.308  -0.405  0.00  0.00    -0.272 OA
ATOM      2  C   LIG A   1      -0.005  -1.107  -0.507  0.00  0.00    +0.257 C 
ATOM      3  N   LIG A   1       0.552  -0.154   0.321  0.00  0.00    -0.253 N 
ATOM      4  C   LIG A   1       1.312  -0.336   1.493  0.00  0.00    +0.082 A 
ATOM      5  C   LIG A   1       1.714   0.921   1.967  0.00  0.00    -0.020 A 
ATOM      6  C   LIG A   1       1.177   2.030   1.112  0.00  0.00    +0.069 C 
ATOM      7  C   LIG A   1       0.674   1.246  -0.101  0.00  0.00    +0.172 C 
ATOM      8  C   LIG A   1      -0.635   1.779  -0.665  0.00  0.00    +0.238 C 
ATOM      9  O   LIG A   1      -0.870   2.989  -0.665  0.00  0.00    -0.274 OA
ATOM     10  N   LIG A   1      -1.461   0.836  -1.284  0.00  0.00    -0.279 N 
ATOM     11  C   LIG A   1      -0.899  -0.506  -1.661  0.00  0.00    +0.183 C 
ATOM     12  C   LIG A   1      -2.629   1.354  -1.992  0.00  0.00    +0.134 C 
ATOM     13  C   LIG A   1       2.462   1.062   3.127  0.00  0.00    +0.006 A 
ATOM     14  C   LIG A   1       2.822  -0.090   3.824  0.00  0.00    +0.004 A 
ATOM     15  C   LIG A   1       2.422  -1.352   3.362  0.00  0.00    +0.047 A 
ATOM     16  C   LIG A   1       1.663  -1.481   2.196  0.00  0.00    +0.138 A 
ENDROOT
BRANCH  11  17
ATOM     17  S   LIG A   1      -2.274  -1.748  -1.971  0.00  0.00    -0.127 S 
ATOM     18  C   LIG A   1      -3.112  -1.740  -0.359  0.00  0.00    +0.087 C 
ENDBRANCH  11  17
BRANCH  16  19
ATOM     19  O   LIG A   1       1.327  -2.752   1.843  0.00  0.00    -0.505 OA
ATOM     20  H   LIG A   1       0.903  -2.733   0.960  0.00  0.00    +0.292 HD
ENDBRANCH  16  19
BRANCH  11  21
ATOM     21  C   LIG A   1       0.024  -0.437  -2.920  0.00  0.00    +0.202 C 
BRANCH  21  22
ATOM     22  O   LIG A   1      -0.633   0.067  -4.085  0.00  0.00    -0.392 OA
ATOM     23  H   LIG A   1       0.016   0.065  -4.811  0.00  0.00    +0.209 HD
ENDBRANCH  21  22
ENDBRANCH  11  21
TORSDOF 4
