REMARK  Name = NuBBE_1142
REMARK  12 active torsions:
REMARK  status: ('A' for Active; 'I' for Inactive)
REMARK    1  A    between atoms: C_1  and  C_2
REMARK    2  A    between atoms: C_2  and  C_42
REMARK    3  A    between atoms: C_3  and  C_37
REMARK    4  A    between atoms: C_4  and  C_36
REMARK    5  A    between atoms: C_9  and  C_22
REMARK    6  A    between atoms: C_14  and  C_16
REMARK    7  A    between atoms: C_27  and  O_29
REMARK    8  A    between atoms: O_29  and  C_30
REMARK    9  A    between atoms: C_30  and  C_31
REMARK   10  A    between atoms: C_37  and  C_38
REMARK   11  A    between atoms: C_38  and  O_39
REMARK   12  A    between atoms: O_39  and  C_40
REMARK                            x       y       z     vdW  Elec       q    Type
REMARK                         _______ _______ _______ _____ _____    ______ ____
ROOT
ATOM      1  C   LIG A   1      -1.307  -0.761  -3.838  0.00  0.00    +0.015 C 
ATOM      2  C   LIG A   1      -0.323  -1.448  -2.863  0.00  0.00    +0.007 C 
ATOM      3  C   LIG A   1      -0.794  -1.445  -1.228  0.00  0.00    +0.022 C 
ATOM      4  C   LIG A   1       0.450  -1.710  -0.156  0.00  0.00    +0.034 C 
ATOM      5  C   LIG A   1       1.124  -0.758   0.970  0.00  0.00    +0.010 C 
ATOM      6  C   LIG A   1       0.548  -0.740   2.382  0.00  0.00    +0.006 C 
ATOM      7  C   LIG A   1      -0.456   0.355   2.608  0.00  0.00    +0.015 C 
ATOM      8  C   LIG A   1       0.013   1.783   2.231  0.00  0.00    +0.031 C 
ATOM      9  C   LIG A   1       1.183   1.861   1.216  0.00  0.00    -0.050 C 
ATOM     10  C   LIG A   1       1.831   3.042   1.133  0.00  0.00    +0.092 C 
ATOM     11  C   LIG A   1       1.478   4.210   1.969  0.00  0.00    +0.333 C 
ATOM     12  O   LIG A   1       0.827   3.947   3.127  0.00  0.00    -0.453 OA
ATOM     13  C   LIG A   1       0.518   2.580   3.496  0.00  0.00    +0.220 C 
ATOM     14  O   LIG A   1       1.795   5.341   1.632  0.00  0.00    -0.246 OA
ATOM     15  C   LIG A   1      -1.212   2.497   1.597  0.00  0.00    +0.020 C 
ATOM     16  C   LIG A   1       1.820   0.622   0.571  0.00  0.00    +0.021 C 
ATOM     17  C   LIG A   1       2.351   0.710  -0.955  0.00  0.00    +0.023 C 
ATOM     18  C   LIG A   1       1.494  -0.234  -1.745  0.00  0.00    +0.098 C 
ATOM     19  C   LIG A   1       1.099  -0.672  -3.123  0.00  0.00    +0.193 C 
ATOM     20  C   LIG A   1       1.610  -1.558  -1.065  0.00  0.00    +0.146 C 
ATOM     21  O   LIG A   1       2.572  -2.310  -1.136  0.00  0.00    -0.296 OA
ATOM     22  C   LIG A   1       0.349  -3.153   0.364  0.00  0.00    +0.019 C 
ATOM     23  C   LIG A   1      -0.331  -2.942  -3.283  0.00  0.00    +0.015 C 
ENDROOT
BRANCH  13  24
ATOM     24  C   LIG A   1      -0.417   2.600   4.684  0.00  0.00    +0.031 A 
ATOM     25  C   LIG A   1      -1.661   3.197   4.776  0.00  0.00    +0.202 A 
ATOM     26  O   LIG A   1      -2.214   2.998   5.998  0.00  0.00    -0.471 OA
ATOM     27  C   LIG A   1      -1.313   2.299   6.730  0.00  0.00    +0.195 A 
ATOM     28  C   LIG A   1      -0.191   2.036   5.979  0.00  0.00    +0.048 A 
ENDBRANCH  13  24
BRANCH  19  29
ATOM     29  O   LIG A   1       1.992  -1.524  -3.853  0.00  0.00    -0.460 OA
BRANCH  29  30
ATOM     30  C   LIG A   1       3.235  -1.045  -4.110  0.00  0.00    +0.304 C 
ATOM     31  C   LIG A   1       3.882  -1.820  -5.216  0.00  0.00    +0.136 C 
ATOM     32  O   LIG A   1       3.715  -0.027  -3.613  0.00  0.00    -0.251 OA
ENDBRANCH  29  30
ENDBRANCH  19  29
BRANCH   3  33
ATOM     33  C   LIG A   1      -1.761  -0.302  -0.876  0.00  0.00    +0.125 C 
BRANCH  33  34
ATOM     34  C   LIG A   1      -3.158  -0.462  -1.442  0.00  0.00    +0.307 C 
ATOM     35  O   LIG A   1      -3.730   0.397  -2.122  0.00  0.00    -0.251 OA
BRANCH  34  36
ATOM     36  O   LIG A   1      -3.720  -1.599  -0.963  0.00  0.00    -0.468 OA
ATOM     37  C   LIG A   1      -5.144  -1.588  -0.855  0.00  0.00    +0.280 C 
ENDBRANCH  34  36
ENDBRANCH  33  34
ENDBRANCH   3  33
TORSDOF 6
