@<TRIPOS>MOLECULE
NuBBE_1914
 26 26 0 0 0
SMALL
GASTEIGER

@<TRIPOS>ATOM
      1 C          -1.6927   -0.1503    0.6684 C.2     1  LIG1       -0.0763
      2 C          -2.0962   -0.8884   -0.3803 C.2     1  LIG1       -0.0994
      3 C          -2.6815    0.7369    1.3838 C.3     1  LIG1       -0.0438
      4 C          -0.2725   -0.1509    1.2467 C.3     1  LIG1       -0.0167
      5 C           0.4925    1.1356    0.8888 C.3     1  LIG1       -0.0426
      6 C           0.9021    1.1823   -0.5869 C.3     1  LIG1       -0.0315
      7 C           1.4963   -0.1136   -1.0822 C.2     1  LIG1       -0.0765
      8 C           1.3739   -1.2599   -0.3898 C.2     1  LIG1       -0.0845
      9 C           0.6107   -1.3760    0.9022 C.3     1  LIG1       -0.0280
     10 C           2.2247   -0.0459   -2.3927 C.3     1  LIG1       -0.0438
     11 H          -3.1210   -0.8530   -0.7385 H       1  LIG1        0.0534
     12 H          -1.4235   -1.5392   -0.9285 H       1  LIG1        0.0534
     13 H          -3.6917    0.6469    0.9699 H       1  LIG1        0.0274
     14 H          -2.3879    1.7878    1.3057 H       1  LIG1        0.0274
     15 H          -2.7368    0.4669    2.4435 H       1  LIG1        0.0274
     16 H          -0.3967   -0.1745    2.3391 H       1  LIG1        0.0348
     17 H           1.3991    1.1863    1.5077 H       1  LIG1        0.0274
     18 H          -0.0891    2.0311    1.1351 H       1  LIG1        0.0274
     19 H           1.6301    1.9929   -0.7130 H       1  LIG1        0.0310
     20 H           0.0342    1.4337   -1.2084 H       1  LIG1        0.0310
     21 H           1.8283   -2.1750   -0.7623 H       1  LIG1        0.0572
     22 H           1.3513   -1.5105    1.7018 H       1  LIG1        0.0313
     23 H           0.0080   -2.2919    0.8916 H       1  LIG1        0.0313
     24 H           3.0727    0.6427   -2.3213 H       1  LIG1        0.0274
     25 H           1.5531    0.3087   -3.1812 H       1  LIG1        0.0274
     26 H           2.6126   -1.0229   -2.6992 H       1  LIG1        0.0274
@<TRIPOS>BOND
     1     1     2    2
     2     1     3    1
     3     1     4    1
     4     4     5    1
     5     5     6    1
     6     6     7    1
     7     7     8    2
     8     8     9    1
     9     4     9    1
    10     7    10    1
    11     2    11    1
    12     2    12    1
    13     3    13    1
    14     3    14    1
    15     3    15    1
    16     4    16    1
    17     5    17    1
    18     5    18    1
    19     6    19    1
    20     6    20    1
    21     8    21    1
    22     9    22    1
    23     9    23    1
    24    10    24    1
    25    10    25    1
    26    10    26    1
