REMARK  Name = NuBBE_2034
REMARK  5 active torsions:
REMARK  status: ('A' for Active; 'I' for Inactive)
REMARK    1  A    between atoms: C_1  and  C_2
REMARK    2  A    between atoms: C_7  and  C_9
REMARK    3  A    between atoms: C_14  and  O_15
REMARK    4  A    between atoms: C_19  and  C_23
REMARK    5  A    between atoms: C_21  and  O_22
REMARK                            x       y       z     vdW  Elec       q    Type
REMARK                         _______ _______ _______ _____ _____    ______ ____
ROOT
ATOM      1  C   LIG A   1      -2.176  -2.685   0.266  0.00  0.00    +0.051 C 
ATOM      2  C   LIG A   1      -0.677  -2.816   0.278  0.00  0.00    +0.033 A 
ATOM      3  C   LIG A   1       0.148  -1.679   0.209  0.00  0.00    +0.131 A 
ATOM      4  C   LIG A   1       1.551  -1.796   0.164  0.00  0.00    -0.002 A 
ATOM      5  C   LIG A   1       2.408  -0.558   0.070  0.00  0.00    +0.043 C 
ATOM      6  C   LIG A   1       1.597   0.659  -0.343  0.00  0.00    +0.054 C 
ATOM      7  C   LIG A   1       0.309   0.678   0.470  0.00  0.00    +0.207 C 
ATOM      8  O   LIG A   1      -0.496  -0.466   0.147  0.00  0.00    -0.483 OA
ATOM      9  C   LIG A   1       2.141  -3.076   0.233  0.00  0.00    -0.040 A 
ATOM     10  C   LIG A   1       1.317  -4.209   0.283  0.00  0.00    +0.049 A 
ATOM     11  C   LIG A   1      -0.071  -4.074   0.296  0.00  0.00    +0.123 A 
ATOM     12  C   LIG A   1       3.634  -3.261   0.208  0.00  0.00    +0.044 C 
ENDROOT
BRANCH   7  13
ATOM     13  C   LIG A   1      -0.479   1.947   0.188  0.00  0.00    +0.038 A 
ATOM     14  C   LIG A   1      -1.465   1.979  -0.817  0.00  0.00    +0.060 A 
ATOM     15  C   LIG A   1      -2.137   3.162  -1.042  0.00  0.00    +0.167 A 
ATOM     16  C   LIG A   1      -1.863   4.298  -0.320  0.00  0.00    +0.170 A 
ATOM     17  C   LIG A   1      -0.901   4.321   0.665  0.00  0.00    +0.095 A 
ATOM     18  C   LIG A   1      -0.207   3.133   0.909  0.00  0.00    +0.127 A 
ATOM     19  O   LIG A   1      -2.634   5.353  -0.700  0.00  0.00    -0.453 OA
ATOM     20  C   LIG A   1      -3.430   4.746  -1.740  0.00  0.00    +0.466 C 
ATOM     21  O   LIG A   1      -3.113   3.358  -1.968  0.00  0.00    -0.453 OA
BRANCH  18  22
ATOM     22  O   LIG A   1       0.773   3.106   1.865  0.00  0.00    -0.506 OA
ATOM     23  H   LIG A   1       0.806   3.974   2.302  0.00  0.00    +0.292 HD
ENDBRANCH  18  22
ENDBRANCH   7  13
BRANCH  11  24
ATOM     24  O   LIG A   1      -0.861  -5.191   0.325  0.00  0.00    -0.506 OA
ATOM     25  H   LIG A   1      -0.293  -5.977   0.326  0.00  0.00    +0.292 HD
ENDBRANCH  11  24
TORSDOF 3
