REMARK  Name = NuBBE_1796
REMARK  19 active torsions:
REMARK  status: ('A' for Active; 'I' for Inactive)
REMARK    1  A    between atoms: C_4  and  C_5
REMARK    2  A    between atoms: C_5  and  C_6
REMARK    3  A    between atoms: C_6  and  O_7
REMARK    4  A    between atoms: C_6  and  C_11
REMARK    5  A    between atoms: O_7  and  C_8
REMARK    6  A    between atoms: C_8  and  C_9
REMARK    7  A    between atoms: C_11  and  O_12
REMARK    8  A    between atoms: O_12  and  C_13
REMARK    9  A    between atoms: C_13  and  C_14
REMARK   10  A    between atoms: C_17  and  C_18
REMARK   11  A    between atoms: C_18  and  C_19
REMARK   12  A    between atoms: C_19  and  C_20
REMARK   13  A    between atoms: C_20  and  C_21
REMARK   14  A    between atoms: C_21  and  C_22
REMARK   15  A    between atoms: C_22  and  C_23
REMARK   16  A    between atoms: C_23  and  C_24
REMARK   17  A    between atoms: C_24  and  C_25
REMARK   18  A    between atoms: C_25  and  C_26
REMARK   19  A    between atoms: C_26  and  C_27
REMARK                            x       y       z     vdW  Elec       q    Type
REMARK                         _______ _______ _______ _____ _____    ______ ____
ROOT
ATOM      1  O   LIG A   1      -3.229  -1.052   2.302  0.00  0.00    -0.251 OA
ATOM      2  C   LIG A   1      -2.022  -1.158   2.054  0.00  0.00    +0.311 C 
ATOM      3  O   LIG A   1      -1.450  -2.271   1.510  0.00  0.00    -0.461 OA
ATOM      4  C   LIG A   1      -0.989  -0.090   2.277  0.00  0.00    +0.105 C 
ATOM      5  C   LIG A   1       0.019  -0.496   1.229  0.00  0.00    +0.059 C 
ATOM      6  C   LIG A   1      -0.062  -2.003   1.263  0.00  0.00    +0.177 C 
ENDROOT
BRANCH   6   7
ATOM      7  C   LIG A   1       0.348  -2.599  -0.075  0.00  0.00    +0.045 C 
BRANCH   7   8
ATOM      8  C   LIG A   1       1.814  -2.325  -0.424  0.00  0.00    +0.003 C 
BRANCH   8   9
ATOM      9  C   LIG A   1       2.200  -2.885  -1.795  0.00  0.00    +0.000 C 
BRANCH   9  10
ATOM     10  C   LIG A   1       1.417  -2.278  -2.961  0.00  0.00    -0.000 C 
BRANCH  10  11
ATOM     11  C   LIG A   1       1.672  -0.777  -3.134  0.00  0.00    -0.000 C 
BRANCH  11  12
ATOM     12  C   LIG A   1       0.964  -0.197  -4.349  0.00  0.00    -0.000 C 
BRANCH  12  13
ATOM     13  C   LIG A   1      -0.557  -0.330  -4.291  0.00  0.00    -0.000 C 
BRANCH  13  14
ATOM     14  C   LIG A   1      -1.224   0.262  -5.531  0.00  0.00    -0.000 C 
BRANCH  14  15
ATOM     15  C   LIG A   1      -0.758  -0.430  -6.814  0.00  0.00    -0.003 C 
ATOM     16  C   LIG A   1      -1.463   0.108  -8.042  0.00  0.00    +0.004 C 
ENDBRANCH  14  15
ENDBRANCH  13  14
ENDBRANCH  12  13
ENDBRANCH  11  12
ENDBRANCH  10  11
ENDBRANCH   9  10
ENDBRANCH   8   9
ENDBRANCH   7   8
ENDBRANCH   6   7
BRANCH   4  17
ATOM     17  C   LIG A   1      -0.448  -0.091   3.723  0.00  0.00    +0.063 C 
BRANCH  17  18
ATOM     18  C   LIG A   1       0.619   0.993   4.019  0.00  0.00    +0.214 C 
BRANCH  18  19
ATOM     19  C   LIG A   1       1.153   0.941   5.469  0.00  0.00    +0.276 C 
BRANCH  19  20
ATOM     20  O   LIG A   1       0.099   1.126   6.433  0.00  0.00    -0.461 OA
BRANCH  20  21
ATOM     21  C   LIG A   1      -0.076   2.403   6.877  0.00  0.00    +0.304 C 
ATOM     22  C   LIG A   1      -1.262   2.494   7.790  0.00  0.00    +0.136 C 
ATOM     23  O   LIG A   1       0.600   3.370   6.556  0.00  0.00    -0.251 OA
ENDBRANCH  20  21
ENDBRANCH  19  20
ENDBRANCH  18  19
BRANCH  18  24
ATOM     24  O   LIG A   1      -0.018   2.270   3.806  0.00  0.00    -0.458 OA
BRANCH  24  25
ATOM     25  C   LIG A   1       0.103   2.814   2.567  0.00  0.00    +0.304 C 
ATOM     26  C   LIG A   1      -1.024   3.767   2.322  0.00  0.00    +0.136 C 
ATOM     27  O   LIG A   1       0.919   2.475   1.720  0.00  0.00    -0.251 OA
ENDBRANCH  24  25
ENDBRANCH  18  24
ENDBRANCH  17  18
ENDBRANCH   4  17
TORSDOF 16
