@<TRIPOS>MOLECULE
NuBBE_1738
 26 27 0 0 0
SMALL
GASTEIGER

@<TRIPOS>ATOM
      1 C          -1.6157    0.2755   -0.4166 C.3     1  LIG1       -0.0402
      2 C          -2.7875   -0.0170    0.5256 C.3     1  LIG1       -0.0621
      3 C          -1.6750    1.7343   -0.8730 C.3     1  LIG1       -0.0621
      4 C          -0.3082   -0.1488    0.2369 C.3     1  LIG1       -0.0164
      5 C           1.0330    0.5188   -0.0525 C.3     1  LIG1       -0.0134
      6 C           0.3601    0.7361    1.2755 C.3     1  LIG1       -0.0393
      7 C           1.9920   -0.5925   -0.2049 C.2     1  LIG1       -0.0729
      8 C           1.4345   -1.8046   -0.0346 C.2     1  LIG1       -0.0842
      9 C          -0.0355   -1.6598    0.2707 C.3     1  LIG1       -0.0280
     10 C           3.4243   -0.3210   -0.5079 C.3     1  LIG1       -0.0435
     11 H          -1.7509   -0.3370   -1.3178 H       1  LIG1        0.0301
     12 H          -2.7082    0.5666    1.4493 H       1  LIG1        0.0233
     13 H          -2.8140   -1.0757    0.8046 H       1  LIG1        0.0233
     14 H          -3.7433    0.2263    0.0495 H       1  LIG1        0.0233
     15 H          -1.5652    2.4323   -0.0375 H       1  LIG1        0.0233
     16 H          -2.6363    1.9464   -1.3543 H       1  LIG1        0.0233
     17 H          -0.8929    1.9540   -1.6060 H       1  LIG1        0.0233
     18 H           1.0985    1.3333   -0.7594 H       1  LIG1        0.0351
     19 H          -0.0426    1.7206    1.4798 H       1  LIG1        0.0277
     20 H           0.7851    0.2675    2.1575 H       1  LIG1        0.0277
     21 H           1.9476   -2.7525   -0.0953 H       1  LIG1        0.0572
     22 H          -0.2710   -2.0710    1.2577 H       1  LIG1        0.0313
     23 H          -0.6209   -2.1919   -0.4863 H       1  LIG1        0.0313
     24 H           3.8681    0.3011    0.2758 H       1  LIG1        0.0274
     25 H           3.5187    0.2055   -1.4629 H       1  LIG1        0.0274
     26 H           4.0055   -1.2464   -0.5738 H       1  LIG1        0.0274
@<TRIPOS>BOND
     1     1     2    1
     2     1     3    1
     3     1     4    1
     4     4     5    1
     5     5     6    1
     6     4     6    1
     7     5     7    1
     8     7     8    2
     9     8     9    1
    10     4     9    1
    11     7    10    1
    12     1    11    1
    13     2    12    1
    14     2    13    1
    15     2    14    1
    16     3    15    1
    17     3    16    1
    18     3    17    1
    19     5    18    1
    20     6    19    1
    21     6    20    1
    22     8    21    1
    23     9    22    1
    24     9    23    1
    25    10    24    1
    26    10    25    1
    27    10    26    1
