@<TRIPOS>MOLECULE
NuBBE_2283
 47 50 0 0 0
SMALL
GASTEIGER

@<TRIPOS>ATOM
      1 C          -1.9190    1.4009    1.6496 C.3     1  LIG1       -0.0220
      2 C          -1.6314    0.7579    2.9871 C.2     1  LIG1       -0.0902
      3 C          -0.8723    1.2910    3.9545 C.2     1  LIG1       -0.1026
      4 C          -1.0494    0.9760    0.4199 C.3     1  LIG1        0.0406
      5 C           0.3880    1.2857    0.6832 C.2     1  LIG1        0.1089
      6 C           1.0025    2.4314    0.3605 C.2     1  LIG1        0.0215
      7 C           0.2443    3.5153   -0.3024 C.2     1  LIG1        0.1877
      8 O           0.7626    4.6406   -0.3436 O.2     1  LIG1       -0.2898
      9 C          -1.1562    3.2203   -0.8900 C.3     1  LIG1        0.1211
     10 H          -1.8867    3.7630   -0.2774 H       1  LIG1        0.0679
     11 C          -1.4943    1.7207   -0.8556 C.3     1  LIG1       -0.0062
     12 O          -1.3456    3.5905   -2.2611 O.3     1  LIG1       -0.3719
     13 C          -1.1627    4.9691   -2.5441 C.3     1  LIG1        0.0374
     14 O           1.0952    0.2235    1.1975 O.2     1  LIG1       -0.4875
     15 C           0.3204   -0.9706    0.9193 C.3     1  LIG1        0.1283
     16 H           0.0567   -1.4107    1.8887 H       1  LIG1        0.0787
     17 C          -0.9250   -0.5326    0.1276 C.3     1  LIG1        0.0103
     18 H          -0.6936   -0.6630   -0.9405 H       1  LIG1        0.0347
     19 C          -2.1713   -1.3850    0.3560 C.3     1  LIG1       -0.0578
     20 C           1.2032   -1.9403    0.1399 C.ar    1  LIG1       -0.0034
     21 C           1.0124   -3.3271    0.2597 C.ar    1  LIG1       -0.0095
     22 C           1.8388   -4.1665   -0.4642 C.ar    1  LIG1        0.1666
     23 C           2.8247   -3.6849   -1.2927 C.ar    1  LIG1        0.1662
     24 C           3.0409   -2.3367   -1.4494 C.ar    1  LIG1       -0.0158
     25 C           2.2192   -1.4631   -0.7310 C.ar    1  LIG1       -0.0514
     26 O           3.5261   -4.6757   -1.9040 O.3     1  LIG1       -0.4526
     27 C           2.8707   -5.8410   -1.3651 C.3     1  LIG1        0.2332
     28 O           1.7975   -5.5268   -0.4515 O.3     1  LIG1       -0.4526
     29 H          -1.8473    2.4900    1.7819 H       1  LIG1        0.0317
     30 H          -2.9771    1.2138    1.4245 H       1  LIG1        0.0317
     31 H          -2.1212   -0.1891    3.2000 H       1  LIG1        0.0567
     32 H          -0.3557    2.2382    3.8345 H       1  LIG1        0.0532
     33 H          -0.7387    0.7723    4.9007 H       1  LIG1        0.0532
     34 H           2.0476    2.6060    0.5561 H       1  LIG1        0.0687
     35 H          -1.0156    1.2643   -1.7354 H       1  LIG1        0.0304
     36 H          -2.5705    1.5818   -1.0276 H       1  LIG1        0.0304
     37 H          -1.5279    5.1519   -3.5594 H       1  LIG1        0.0524
     38 H          -0.1023    5.2331   -2.5315 H       1  LIG1        0.0524
     39 H          -1.7312    5.5945   -1.8513 H       1  LIG1        0.0524
     40 H          -2.5482   -1.3316    1.3784 H       1  LIG1        0.0234
     41 H          -1.9647   -2.4392    0.1453 H       1  LIG1        0.0234
     42 H          -2.9794   -1.0690   -0.3132 H       1  LIG1        0.0234
     43 H           0.2471   -3.7439    0.9054 H       1  LIG1        0.0659
     44 H           3.8247   -1.9653   -2.0997 H       1  LIG1        0.0655
     45 H           2.3860   -0.3931   -0.8444 H       1  LIG1        0.0623
     46 H           3.6156   -6.4491   -0.8387 H       1  LIG1        0.1166
     47 H           2.4627   -6.4274   -2.1964 H       1  LIG1        0.1166
@<TRIPOS>BOND
     1     1     2    1
     2     2     3    2
     3     4     5    1
     4     5     6    2
     5     6     7    1
     6     7     9    1
     7     9    11    1
     8     4    11    1
     9    12    13    1
    10     5    14    1
    11    14    15    1
    12    15    17    1
    13     4    17    1
    14    20    21   ar
    15    21    22   ar
    16    22    23   ar
    17    23    24   ar
    18    24    25   ar
    19    20    25   ar
    20    23    26    1
    21    26    27    1
    22    27    28    1
    23    22    28    1
    24     1     4    1
    25     7     8    2
    26    17    18    1
    27    17    19    1
    28     9    12    1
    29     9    10    1
    30    15    20    1
    31    15    16    1
    32     1    29    1
    33     1    30    1
    34     2    31    1
    35     3    32    1
    36     3    33    1
    37     6    34    1
    38    11    35    1
    39    11    36    1
    40    13    37    1
    41    13    38    1
    42    13    39    1
    43    19    40    1
    44    19    41    1
    45    19    42    1
    46    21    43    1
    47    24    44    1
    48    25    45    1
    49    27    46    1
    50    27    47    1
