@<TRIPOS>MOLECULE
NuBBE_2124
 18 17 0 0 0
SMALL
GASTEIGER

@<TRIPOS>ATOM
      1 C          -2.3679    1.2852   -1.8498 C.2     1  LIG1       -0.1026
      2 C          -1.5800    0.2379   -1.5726 C.2     1  LIG1       -0.0911
      3 C          -1.1097   -0.1220   -0.1919 C.3     1  LIG1       -0.0350
      4 C           0.4183   -0.1326   -0.1011 C.3     1  LIG1       -0.0499
      5 C           0.8904   -0.4898    1.3096 C.3     1  LIG1       -0.0556
      6 C           2.4082   -0.5034    1.4042 C.3     1  LIG1       -0.0653
      7 H          -2.6835    1.4877   -2.8682 H       1  LIG1        0.0532
      8 H          -2.7171    1.9584   -1.0737 H       1  LIG1        0.0532
      9 H          -1.2639   -0.4123   -2.3865 H       1  LIG1        0.0566
     10 H          -1.5008   -1.1158    0.0573 H       1  LIG1        0.0307
     11 H          -1.5182    0.5766    0.5486 H       1  LIG1        0.0307
     12 H           0.8139    0.8521   -0.3806 H       1  LIG1        0.0268
     13 H           0.8273   -0.8570   -0.8169 H       1  LIG1        0.0268
     14 H           0.5041   -1.4755    1.5941 H       1  LIG1        0.0263
     15 H           0.4927    0.2347    2.0298 H       1  LIG1        0.0263
     16 H           2.8365   -1.2517    0.7298 H       1  LIG1        0.0230
     17 H           2.7228   -0.7464    2.4241 H       1  LIG1        0.0230
     18 H           2.8269    0.4740    1.1438 H       1  LIG1        0.0230
@<TRIPOS>BOND
     1     1     2    2
     2     2     3    1
     3     3     4    1
     4     4     5    1
     5     5     6    1
     6     1     7    1
     7     1     8    1
     8     2     9    1
     9     3    10    1
    10     3    11    1
    11     4    12    1
    12     4    13    1
    13     5    14    1
    14     5    15    1
    15     6    16    1
    16     6    17    1
    17     6    18    1
