REMARK  Name = NuBBE_587
REMARK  4 active torsions:
REMARK  status: ('A' for Active; 'I' for Inactive)
REMARK    1  A    between atoms: O_1  and  C_2
REMARK    2  A    between atoms: C_2  and  C_20
REMARK    3  A    between atoms: C_3  and  C_5
REMARK    4  A    between atoms: C_6  and  C_8
REMARK                            x       y       z     vdW  Elec       q    Type
REMARK                         _______ _______ _______ _____ _____    ______ ____
ROOT
ATOM      1  C   LIG A   1       0.700  -0.163  -0.591  0.00  0.00    +0.123 C 
ATOM      2  C   LIG A   1       1.383  -1.551  -0.371  0.00  0.00    +0.037 C 
ATOM      3  C   LIG A   1       2.850  -1.566  -0.868  0.00  0.00    +0.012 C 
ATOM      4  C   LIG A   1       1.337  -2.035   1.091  0.00  0.00    +0.063 C 
ATOM      5  C   LIG A   1      -0.019  -2.584   1.531  0.00  0.00    +0.016 C 
ATOM      6  C   LIG A   1       1.784  -0.968   2.072  0.00  0.00    +0.167 C 
ATOM      7  O   LIG A   1       2.141  -1.264   3.211  0.00  0.00    -0.292 OA
ATOM      8  C   LIG A   1       1.226   0.850   0.411  0.00  0.00    +0.044 A 
ATOM      9  C   LIG A   1       1.734   0.462   1.666  0.00  0.00    +0.028 A 
ATOM     10  C   LIG A   1       2.199   1.426   2.594  0.00  0.00    +0.015 A 
ATOM     11  C   LIG A   1       2.158   2.788   2.296  0.00  0.00    +0.050 A 
ATOM     12  C   LIG A   1       1.644   3.154   1.075  0.00  0.00    +0.167 A 
ATOM     13  C   LIG A   1       1.193   2.221   0.167  0.00  0.00    +0.173 A 
ATOM     14  O   LIG A   1       0.707   2.816  -0.964  0.00  0.00    -0.452 OA
ATOM     15  C   LIG A   1       0.923   4.212  -0.666  0.00  0.00    +0.466 C 
ATOM     16  O   LIG A   1       1.510   4.431   0.629  0.00  0.00    -0.453 OA
ENDROOT
BRANCH   1  17
ATOM     17  C   LIG A   1      -0.836  -0.271  -0.647  0.00  0.00    -0.008 A 
ATOM     18  C   LIG A   1      -1.691   0.332   0.313  0.00  0.00    +0.010 A 
ATOM     19  C   LIG A   1      -3.085   0.219   0.230  0.00  0.00    +0.050 A 
ATOM     20  C   LIG A   1      -3.612  -0.496  -0.821  0.00  0.00    +0.166 A 
ATOM     21  O   LIG A   1      -4.934  -0.706  -1.058  0.00  0.00    -0.453 OA
ATOM     22  C   LIG A   1      -4.869  -1.495  -2.265  0.00  0.00    +0.466 C 
ATOM     23  O   LIG A   1      -3.521  -1.738  -2.720  0.00  0.00    -0.453 OA
ATOM     24  C   LIG A   1      -2.808  -1.083  -1.764  0.00  0.00    +0.167 A 
ATOM     25  C   LIG A   1      -1.433  -0.988  -1.708  0.00  0.00    +0.056 A 
ENDBRANCH   1  17
BRANCH   1  26
ATOM     26  O   LIG A   1       1.089   0.272  -1.907  0.00  0.00    -0.379 OA
ATOM     27  H   LIG A   1       0.682   1.149  -2.040  0.00  0.00    +0.211 HD
ENDBRANCH   1  26
TORSDOF 2
