@<TRIPOS>MOLECULE
NuBBE_1596
 26 27 0 0 0
SMALL
GASTEIGER

@<TRIPOS>ATOM
      1 C          -2.1689   -0.3714    0.4929 C.3     1  LIG1       -0.0106
      2 C          -2.7571   -0.4044   -0.9182 C.3     1  LIG1       -0.0505
      3 C          -4.2772   -0.3818   -0.8934 C.3     1  LIG1       -0.0649
      4 C          -0.6614   -0.3834    0.4577 C.ar    1  LIG1        0.0420
      5 N          -0.0393    0.8197    0.4069 N.ar    1  LIG1       -0.2516
      6 C           1.3044    0.8507    0.3384 C.ar    1  LIG1        0.0713
      7 C           2.0861   -0.3228    0.3131 C.ar    1  LIG1        0.0004
      8 C           1.4215   -1.5527    0.3666 C.ar    1  LIG1       -0.0509
      9 C           0.0333   -1.5864    0.4373 C.ar    1  LIG1       -0.0398
     10 C           3.4879   -0.2414    0.2329 C.ar    1  LIG1       -0.0526
     11 C           4.1192    0.9994    0.1788 C.ar    1  LIG1       -0.0611
     12 C           3.3542    2.1598    0.2067 C.ar    1  LIG1       -0.0597
     13 C           1.9607    2.0735    0.2862 C.ar    1  LIG1       -0.0357
     14 H          -2.5318   -1.2236    1.0808 H       1  LIG1        0.0328
     15 H          -2.5045    0.5323    1.0168 H       1  LIG1        0.0328
     16 H          -2.4215   -1.3055   -1.4460 H       1  LIG1        0.0266
     17 H          -2.3947    0.4542   -1.4966 H       1  LIG1        0.0266
     18 H          -4.6744   -1.2473   -0.3538 H       1  LIG1        0.0230
     19 H          -4.6722   -0.4080   -1.9140 H       1  LIG1        0.0230
     20 H          -4.6490    0.5268   -0.4092 H       1  LIG1        0.0230
     21 H           1.9778   -2.4861    0.3489 H       1  LIG1        0.0625
     22 H          -0.4912   -2.5354    0.4704 H       1  LIG1        0.0636
     23 H           4.0926   -1.1450    0.2102 H       1  LIG1        0.0624
     24 H           5.2025    1.0597    0.1149 H       1  LIG1        0.0618
     25 H           3.8348    3.1339    0.1656 H       1  LIG1        0.0618
     26 H           1.3683    2.9853    0.3064 H       1  LIG1        0.0639
@<TRIPOS>BOND
     1     1     2    1
     2     2     3    1
     3     1     4    1
     4     4     5   ar
     5     5     6   ar
     6     6     7   ar
     7     7     8   ar
     8     8     9   ar
     9     4     9   ar
    10     7    10   ar
    11    10    11   ar
    12    11    12   ar
    13    12    13   ar
    14     6    13   ar
    15     1    14    1
    16     1    15    1
    17     2    16    1
    18     2    17    1
    19     3    18    1
    20     3    19    1
    21     3    20    1
    22     8    21    1
    23     9    22    1
    24    10    23    1
    25    11    24    1
    26    12    25    1
    27    13    26    1
