REMARK  Name = NuBBE_149
REMARK  4 active torsions:
REMARK  status: ('A' for Active; 'I' for Inactive)
REMARK    1  A    between atoms: O_1  and  C_2
REMARK    2  A    between atoms: C_2  and  C_3
REMARK    3  A    between atoms: C_8  and  C_9
REMARK    4  A    between atoms: C_8  and  C_14
REMARK                            x       y       z     vdW  Elec       q    Type
REMARK                         _______ _______ _______ _____ _____    ______ ____
ROOT
ATOM      1  C   LIG A   1      -1.573  -1.709   1.676  0.00  0.00    +0.060 A 
ATOM      2  C   LIG A   1      -1.988  -0.398   1.933  0.00  0.00    +0.018 A 
ATOM      3  C   LIG A   1      -1.372   0.662   1.265  0.00  0.00    +0.047 A 
ATOM      4  C   LIG A   1      -0.340   0.416   0.356  0.00  0.00    +0.129 A 
ATOM      5  O   LIG A   1       0.196   1.518  -0.246  0.00  0.00    -0.482 OA
ATOM      6  C   LIG A   1       1.257   1.345  -1.208  0.00  0.00    +0.123 C 
ATOM      7  C   LIG A   1       0.741   1.924  -2.531  0.00  0.00    +0.060 C 
ATOM      8  C   LIG A   1       1.719  -0.077  -1.433  0.00  0.00    +0.020 C 
ATOM      9  C   LIG A   1       1.180  -1.133  -0.817  0.00  0.00    +0.011 C 
ATOM     10  C   LIG A   1       0.093  -0.891   0.117  0.00  0.00    +0.017 A 
ATOM     11  C   LIG A   1      -0.523  -1.955   0.783  0.00  0.00    +0.026 A 
ATOM     12  C   LIG A   1       2.436   2.185  -0.702  0.00  0.00    +0.060 C 
ENDROOT
BRANCH   1  13
ATOM     13  C   LIG A   1      -2.200  -2.863   2.357  0.00  0.00    +0.337 C 
ATOM     14  O   LIG A   1      -1.568  -3.827   2.751  0.00  0.00    -0.245 OA
BRANCH  13  15
ATOM     15  O   LIG A   1      -3.543  -2.761   2.443  0.00  0.00    -0.477 OA
ATOM     16  H   LIG A   1      -3.929  -2.026   1.931  0.00  0.00    +0.295 HD
ENDBRANCH  13  15
ENDBRANCH   1  13
TORSDOF 2
