REMARK  Name = NuBBE_1847
REMARK  9 active torsions:
REMARK  status: ('A' for Active; 'I' for Inactive)
REMARK    1  A    between atoms: O_1  and  C_2
REMARK    2  A    between atoms: C_3  and  C_4
REMARK    3  A    between atoms: C_4  and  C_5
REMARK    4  A    between atoms: C_6  and  C_7
REMARK    5  A    between atoms: C_9  and  O_10
REMARK    6  A    between atoms: O_10  and  C_11
REMARK    7  A    between atoms: C_12  and  O_13
REMARK    8  A    between atoms: O_13  and  C_14
REMARK    9  A    between atoms: C_20  and  O_21
REMARK                            x       y       z     vdW  Elec       q    Type
REMARK                         _______ _______ _______ _____ _____    ______ ____
ROOT
ATOM      1  C   LIG A   1       1.529   1.803  -1.623  0.00  0.00    +0.190 C 
ATOM      2  O   LIG A   1       1.037   2.622  -2.389  0.00  0.00    -0.287 OA
ENDROOT
BRANCH   1   4
ATOM      3  C   LIG A   1       3.750   2.017  -2.725  0.00  0.00    +0.131 A 
ATOM      4  C   LIG A   1       3.009   1.650  -1.588  0.00  0.00    +0.063 A 
ATOM      5  C   LIG A   1       3.692   1.175  -0.458  0.00  0.00    +0.019 A 
ATOM      6  C   LIG A   1       5.089   1.064  -0.473  0.00  0.00    +0.046 A 
ATOM      7  C   LIG A   1       5.798   1.436  -1.611  0.00  0.00    +0.120 A 
ATOM      8  C   LIG A   1       5.138   1.911  -2.737  0.00  0.00    +0.091 A 
BRANCH   3   9
ATOM      9  O   LIG A   1       3.168   2.475  -3.879  0.00  0.00    -0.506 OA
ATOM     10  H   LIG A   1       2.215   2.635  -3.699  0.00  0.00    +0.292 HD
ENDBRANCH   3   9
BRANCH   7  11
ATOM     11  O   LIG A   1       7.157   1.349  -1.662  0.00  0.00    -0.507 OA
ATOM     12  H   LIG A   1       7.489   1.013  -0.814  0.00  0.00    +0.292 HD
ENDBRANCH   7  11
ENDBRANCH   1   4
BRANCH   1  13
ATOM     13  C   LIG A   1       0.686   0.902  -0.790  0.00  0.00    +0.052 C 
ATOM     14  C   LIG A   1      -0.650   1.011  -0.866  0.00  0.00    +0.012 C 
BRANCH  14  15
ATOM     15  C   LIG A   1      -1.601   0.176  -0.118  0.00  0.00    -0.021 A 
ATOM     16  C   LIG A   1      -1.317  -0.338   1.153  0.00  0.00    +0.057 A 
ATOM     17  C   LIG A   1      -2.267  -1.075   1.880  0.00  0.00    +0.162 A 
ATOM     18  C   LIG A   1      -3.538  -1.296   1.325  0.00  0.00    +0.162 A 
ATOM     19  C   LIG A   1      -3.828  -0.777   0.058  0.00  0.00    +0.050 A 
ATOM     20  C   LIG A   1      -2.870  -0.050  -0.656  0.00  0.00    +0.012 A 
BRANCH  17  21
ATOM     21  O   LIG A   1      -1.783  -1.491   3.095  0.00  0.00    -0.491 OA
ATOM     22  C   LIG A   1      -2.623  -2.288   3.917  0.00  0.00    +0.277 C 
ENDBRANCH  17  21
BRANCH  18  23
ATOM     23  O   LIG A   1      -4.484  -1.943   2.073  0.00  0.00    -0.491 OA
ATOM     24  C   LIG A   1      -5.449  -2.708   1.363  0.00  0.00    +0.277 C 
ENDBRANCH  18  23
ENDBRANCH  14  15
ENDBRANCH   1  13
TORSDOF 7
