REMARK  Name = NuBBE_1541
REMARK  3 active torsions:
REMARK  status: ('A' for Active; 'I' for Inactive)
REMARK    1  A    between atoms: C_1  and  C_2
REMARK    2  A    between atoms: C_2  and  C_3
REMARK    3  A    between atoms: C_16  and  C_18
REMARK                            x       y       z     vdW  Elec       q    Type
REMARK                         _______ _______ _______ _____ _____    ______ ____
ROOT
ATOM      1  C   LIG A   1      -1.585   1.514   0.441  0.00  0.00    +0.011 C 
ATOM      2  C   LIG A   1      -0.255   1.985  -0.116  0.00  0.00    -0.028 C 
ATOM      3  C   LIG A   1      -0.332   3.460  -0.448  0.00  0.00    +0.011 C 
ATOM      4  C   LIG A   1       0.541   0.900  -0.879  0.00  0.00    +0.002 C 
ATOM      5  C   LIG A   1       1.193   1.607   0.273  0.00  0.00    -0.001 C 
ATOM      6  C   LIG A   1       1.486   1.181   1.673  0.00  0.00    +0.009 C 
ATOM      7  C   LIG A   1       2.124  -0.192   1.873  0.00  0.00    +0.031 C 
ATOM      8  C   LIG A   1       1.371  -1.432   1.413  0.00  0.00    -0.073 C 
ATOM      9  C   LIG A   1       1.836  -2.620   1.783  0.00  0.00    +0.008 C 
ATOM     10  C   LIG A   1       0.105  -1.196   0.598  0.00  0.00    +0.018 C 
ATOM     11  C   LIG A   1       0.388  -0.610  -0.809  0.00  0.00    +0.003 C 
ATOM     12  C   LIG A   1      -0.657  -1.219  -1.781  0.00  0.00    -0.010 C 
ATOM     13  C   LIG A   1      -1.526  -0.273  -2.619  0.00  0.00    +0.008 C 
ATOM     14  C   LIG A   1      -1.503  -2.202  -0.969  0.00  0.00    +0.004 C 
ATOM     15  C   LIG A   1      -0.854  -2.371   0.395  0.00  0.00    +0.008 C 
ENDROOT
TORSDOF 0
