@<TRIPOS>MOLECULE
NuBBE_1561
 92 96 0 0 0
SMALL
GASTEIGER

@<TRIPOS>ATOM
      1 C           0.2556   -0.7956    0.5931 C.3     1  LIG1       -0.0590
      2 C           1.0914   -0.3260   -0.6072 C.3     1  LIG1       -0.0259
      3 C           2.4803   -1.0010   -0.5307 C.3     1  LIG1       -0.0320
      4 C           2.9200   -1.0184   -2.0013 C.3     1  LIG1       -0.0492
      5 C           1.6526   -1.2241   -2.8302 C.3     1  LIG1       -0.0492
      6 C           0.4437   -0.9544   -1.9096 C.3     1  LIG1       -0.0328
      7 H           0.0459   -1.9450   -1.6383 H       1  LIG1        0.0309
      8 C          -0.7249   -0.2136   -2.6632 C.3     1  LIG1       -0.0405
      9 H          -0.2956    0.6573   -3.1779 H       1  LIG1        0.0301
     10 C          -1.8363    0.3057   -1.7489 C.3     1  LIG1       -0.0621
     11 C          -1.3562   -1.1357   -3.7642 C.3     1  LIG1       -0.0499
     12 C          -2.6014   -0.5352   -4.4682 C.3     1  LIG1       -0.0497
     13 C          -3.1687   -1.3283   -5.6969 C.3     1  LIG1       -0.0389
     14 H          -3.5490   -2.2822   -5.3052 H       1  LIG1        0.0303
     15 C          -4.4058   -0.5408   -6.2395 C.3     1  LIG1       -0.0528
     16 C          -5.2460   -1.2331   -7.3163 C.3     1  LIG1       -0.0650
     17 C          -2.0569   -1.6665   -6.7396 C.3     1  LIG1       -0.0439
     18 C          -2.5249   -2.4459   -7.9729 C.3     1  LIG1       -0.0624
     19 C          -1.2813   -0.4257   -7.1912 C.3     1  LIG1       -0.0624
     20 H           2.3454   -2.0508   -0.2352 H       1  LIG1        0.0309
     21 C           3.5697   -0.3545    0.3874 C.3     1  LIG1       -0.0307
     22 H           4.4412   -0.1862   -0.2653 H       1  LIG1        0.0309
     23 C           3.2394    1.0338    0.9959 C.3     1  LIG1       -0.0285
     24 C           2.7434    1.0890    2.5180 C.3     1  LIG1       -0.0077
     25 C           2.6126   -0.2947    3.1754 C.2     1  LIG1       -0.0638
     26 C           1.8241   -0.4068    4.4725 C.3     1  LIG1        0.0061
     27 C           0.5566    0.4547    4.4767 C.3     1  LIG1        0.1071
     28 H          -0.1453    0.0058    3.7505 H       1  LIG1        0.0737
     29 O          -0.1808    0.4213    5.7096 O.3     1  LIG1       -0.4576
     30 C           0.3096    1.0700    6.8069 C.2     1  LIG1        0.3395
     31 C          -0.7808    1.2320    7.8159 C.ar    1  LIG1        0.0590
     32 C          -0.5213    2.0451    8.9229 C.ar    1  LIG1       -0.0478
     33 C          -1.5199    2.2224    9.9082 C.ar    1  LIG1       -0.0610
     34 C          -2.7597    1.6200    9.7443 C.ar    1  LIG1       -0.0617
     35 C          -3.0320    0.8497    8.6158 C.ar    1  LIG1       -0.0610
     36 C          -2.0449    0.6688    7.6469 C.ar    1  LIG1       -0.0478
     37 O           1.4369    1.5242    6.9477 O.2     1  LIG1       -0.2450
     38 C           0.8073    1.8840    4.0340 C.3     1  LIG1       -0.0146
     39 C           1.4289    1.9163    2.6519 C.3     1  LIG1       -0.0403
     40 C           3.2215   -1.3800    2.6640 C.2     1  LIG1       -0.0838
     41 C           4.0891   -1.3253    1.4522 C.3     1  LIG1       -0.0311
     42 C           3.8451    1.8292    3.3484 C.3     1  LIG1       -0.0556
     43 H           4.2218    1.5349    1.0288 H       1  LIG1        0.0312
     44 C           2.4629    1.8598   -0.0397 C.3     1  LIG1       -0.0486
     45 C           1.2321    1.2110   -0.6915 C.3     1  LIG1       -0.0468
     46 H           0.0529   -1.8727    0.5340 H       1  LIG1        0.0235
     47 H          -0.7007   -0.2719    0.6622 H       1  LIG1        0.0235
     48 H           0.7688   -0.6604    1.5369 H       1  LIG1        0.0235
     49 H           3.6521   -1.8126   -2.1832 H       1  LIG1        0.0268
     50 H           3.3915   -0.0709   -2.2892 H       1  LIG1        0.0268
     51 H           1.6146   -2.2532   -3.2065 H       1  LIG1        0.0268
     52 H           1.6656   -0.5591   -3.7001 H       1  LIG1        0.0268
     53 H          -2.4376   -0.5197   -1.3553 H       1  LIG1        0.0233
     54 H          -2.4988    0.9854   -2.2977 H       1  LIG1        0.0233
     55 H          -1.4686    0.8958   -0.9141 H       1  LIG1        0.0233
     56 H          -1.6357   -2.1014   -3.3247 H       1  LIG1        0.0268
     57 H          -0.5736   -1.3442   -4.4980 H       1  LIG1        0.0268
     58 H          -2.3638    0.4897   -4.7772 H       1  LIG1        0.0268
     59 H          -3.4167   -0.4497   -3.7350 H       1  LIG1        0.0268
     60 H          -4.0899    0.4447   -6.6039 H       1  LIG1        0.0265
     61 H          -5.0747   -0.3345   -5.3911 H       1  LIG1        0.0265
     62 H          -4.8539   -1.0126   -8.3130 H       1  LIG1        0.0230
     63 H          -6.2843   -0.8743   -7.3208 H       1  LIG1        0.0230
     64 H          -5.2863   -2.3178   -7.1757 H       1  LIG1        0.0230
     65 H          -1.3482   -2.3413   -6.2400 H       1  LIG1        0.0298
     66 H          -2.9682   -1.7872   -8.7250 H       1  LIG1        0.0232
     67 H          -3.2387   -3.2306   -7.7081 H       1  LIG1        0.0232
     68 H          -1.6733   -2.9398   -8.4596 H       1  LIG1        0.0232
     69 H          -1.9547    0.3325   -7.6009 H       1  LIG1        0.0232
     70 H          -0.5476   -0.6797   -7.9626 H       1  LIG1        0.0232
     71 H          -0.7287    0.0271   -6.3627 H       1  LIG1        0.0232
     72 H           2.4723   -0.1390    5.3149 H       1  LIG1        0.0346
     73 H           1.5351   -1.4511    4.6555 H       1  LIG1        0.0346
     74 H           0.4383    2.5292    9.0541 H       1  LIG1        0.0626
     75 H          -1.3088    2.8353   10.7757 H       1  LIG1        0.0618
     76 H          -3.5272    1.7523   10.5079 H       1  LIG1        0.0618
     77 H          -4.0077    0.3886    8.4905 H       1  LIG1        0.0618
     78 H          -2.2832    0.0688    6.7653 H       1  LIG1        0.0626
     79 H           1.4619    2.4134    4.7297 H       1  LIG1        0.0301
     80 H          -0.1359    2.4461    4.0236 H       1  LIG1        0.0301
     81 H           1.6275    2.9675    2.4144 H       1  LIG1        0.0275
     82 H           0.6511    1.5789    1.9603 H       1  LIG1        0.0275
     83 H           3.1446   -2.3441    3.1613 H       1  LIG1        0.0572
     84 H           4.1993   -2.3290    1.0257 H       1  LIG1        0.0310
     85 H           5.0963   -1.0226    1.7700 H       1  LIG1        0.0310
     86 H           4.8213    1.3364    3.2558 H       1  LIG1        0.0238
     87 H           3.6180    1.8625    4.4212 H       1  LIG1        0.0238
     88 H           3.9674    2.8661    3.0137 H       1  LIG1        0.0238
     89 H           3.1704    2.0771   -0.8536 H       1  LIG1        0.0268
     90 H           2.2114    2.8555    0.3424 H       1  LIG1        0.0268
     91 H           1.2725    1.5083   -1.7474 H       1  LIG1        0.0271
     92 H           0.3287    1.6934   -0.3032 H       1  LIG1        0.0271
@<TRIPOS>BOND
     1     2     3    1
     2     3     4    1
     3     4     5    1
     4     5     6    1
     5     2     6    1
     6     8    11    1
     7    11    12    1
     8    12    13    1
     9    13    14    1
    10    13    15    1
    11    15    16    1
    12    13    17    1
    13    17    18    1
    14    17    19    1
    15     3    21    1
    16    21    23    1
    17    23    24    1
    18    24    25    1
    19    25    26    1
    20    26    27    1
    21    29    30    1
    22    30    31    1
    23    31    32   ar
    24    32    33   ar
    25    33    34   ar
    26    34    35   ar
    27    35    36   ar
    28    31    36   ar
    29    30    37    2
    30    27    38    1
    31    38    39    1
    32    25    40    2
    33    40    41    1
    34    21    41    1
    35    39    24    1
    36    23    44    1
    37    44    45    1
    38     2    45    1
    39     1     2    1
    40     3    20    1
    41     6     7    1
    42     6     8    1
    43    21    22    1
    44    23    43    1
    45    24    42    1
    46    27    28    1
    47    27    29    1
    48     8    10    1
    49     8     9    1
    50     1    46    1
    51     1    47    1
    52     1    48    1
    53     4    49    1
    54     4    50    1
    55     5    51    1
    56     5    52    1
    57    10    53    1
    58    10    54    1
    59    10    55    1
    60    11    56    1
    61    11    57    1
    62    12    58    1
    63    12    59    1
    64    15    60    1
    65    15    61    1
    66    16    62    1
    67    16    63    1
    68    16    64    1
    69    17    65    1
    70    18    66    1
    71    18    67    1
    72    18    68    1
    73    19    69    1
    74    19    70    1
    75    19    71    1
    76    26    72    1
    77    26    73    1
    78    32    74    1
    79    33    75    1
    80    34    76    1
    81    35    77    1
    82    36    78    1
    83    38    79    1
    84    38    80    1
    85    39    81    1
    86    39    82    1
    87    40    83    1
    88    41    84    1
    89    41    85    1
    90    42    86    1
    91    42    87    1
    92    42    88    1
    93    44    89    1
    94    44    90    1
    95    45    91    1
    96    45    92    1
