REMARK  Name = NuBBE_851
REMARK  0 active torsions:
REMARK  status: ('A' for Active; 'I' for Inactive)
REMARK                            x       y       z     vdW  Elec       q    Type
REMARK                         _______ _______ _______ _____ _____    ______ ____
ROOT
ATOM      1  O   PRO A   1      -2.612   0.107  -0.647  0.00  0.00    -0.274 OA
ATOM      2  C   PRO A   1      -1.390   0.067  -0.523  0.00  0.00    +0.237 C 
ATOM      3  CA  PRO A   1      -0.557  -1.205  -0.747  0.00  0.00    +0.162 C 
ATOM      4  N   PRO A   1       0.666  -1.180   0.052  0.00  0.00    -0.288 N 
ATOM      5  CD  PRO A   1       0.982  -2.460   0.639  0.00  0.00    +0.109 C 
ATOM      6  CG  PRO A   1      -0.131  -3.390   0.176  0.00  0.00    +0.021 C 
ATOM      7  CB  PRO A   1      -1.266  -2.464  -0.259  0.00  0.00    +0.033 C 
ATOM      8  N   PRO A   2      -0.619   1.179  -0.257  0.00  0.00    -0.288 N 
ATOM      9  CA  PRO A   2       0.832   1.201  -0.432  0.00  0.00    +0.162 C 
ATOM     10  CB  PRO A   2       1.255   2.467   0.306  0.00  0.00    +0.033 C 
ATOM     11  CG  PRO A   2       0.044   3.392   0.192  0.00  0.00    +0.021 C 
ATOM     12  CD  PRO A   2      -1.159   2.460   0.130  0.00  0.00    +0.109 C 
ATOM     13  C   PRO A   2       1.476  -0.067   0.148  0.00  0.00    +0.237 C 
ATOM     14  O   PRO A   2       2.627  -0.106   0.579  0.00  0.00    -0.274 OA
ENDROOT
TORSDOF 0
