@<TRIPOS>MOLECULE
NuBBE_2134
 19 19 0 0 0
SMALL
GASTEIGER

@<TRIPOS>ATOM
      1 C          -2.5317    0.0966    0.0360 C.3     1  LIG1       -0.0438
      2 C          -1.0285    0.1259    0.0188 C.2     1  LIG1       -0.0765
      3 C          -0.3492    1.2794    0.0186 C.2     1  LIG1       -0.0850
      4 C           1.1354    1.3925   -0.0150 C.3     1  LIG1       -0.0345
      5 C           1.9315    0.0915   -0.0235 C.3     1  LIG1       -0.0493
      6 C           1.1731   -1.2333   -0.0136 C.3     1  LIG1       -0.0491
      7 C          -0.3549   -1.2120   -0.0070 C.3     1  LIG1       -0.0320
      8 H          -2.9646    1.1025    0.0432 H       1  LIG1        0.0274
      9 H          -2.8923   -0.4283    0.9265 H       1  LIG1        0.0274
     10 H          -2.9103   -0.4214   -0.8512 H       1  LIG1        0.0274
     11 H          -0.8916    2.2230    0.0370 H       1  LIG1        0.0572
     12 H           1.4520    1.9932    0.8468 H       1  LIG1        0.0307
     13 H           1.4098    1.9778   -0.9018 H       1  LIG1        0.0307
     14 H           2.6165    0.1019    0.8354 H       1  LIG1        0.0268
     15 H           2.5977    0.1013   -0.8970 H       1  LIG1        0.0268
     16 H           1.5118   -1.8157    0.8543 H       1  LIG1        0.0268
     17 H           1.5040   -1.8254   -0.8778 H       1  LIG1        0.0268
     18 H          -0.6999   -1.7900    0.8606 H       1  LIG1        0.0310
     19 H          -0.7087   -1.7595   -0.8905 H       1  LIG1        0.0310
@<TRIPOS>BOND
     1     1     2    1
     2     2     3    2
     3     3     4    1
     4     4     5    1
     5     5     6    1
     6     6     7    1
     7     2     7    1
     8     1     8    1
     9     1     9    1
    10     1    10    1
    11     3    11    1
    12     4    12    1
    13     4    13    1
    14     5    14    1
    15     5    15    1
    16     6    16    1
    17     6    17    1
    18     7    18    1
    19     7    19    1
