@<TRIPOS>MOLECULE
NuBBE_1166
 77 81 0 0 0
SMALL
GASTEIGER

@<TRIPOS>ATOM
      1 O           0.7014   -5.2310   -2.8863 O.3     1  LIG1       -0.3864
      2 C           1.4736   -5.0538   -1.6857 C.3     1  LIG1        0.1152
      3 H           2.4104   -5.6002   -1.8636 H       1  LIG1        0.0648
      4 C           1.7688   -3.5574   -1.5450 C.3     1  LIG1        0.1120
      5 H           0.8580   -2.9824   -1.7502 H       1  LIG1        0.0647
      6 C           2.2794   -3.2609   -0.1253 C.3     1  LIG1        0.1144
      7 H           3.1864   -3.8479    0.0688 H       1  LIG1        0.0647
      8 O           1.3459   -3.6314    0.9004 O.3     1  LIG1       -0.3313
      9 C           0.2754   -4.5123    0.5275 C.3     1  LIG1        0.2308
     10 H          -0.0290   -5.0353    1.4424 H       1  LIG1        0.1084
     11 O          -0.8677   -3.8194    0.0022 O.3     1  LIG1       -0.4606
     12 C          -1.4964   -2.9232    0.8348 C.ar    1  LIG1        0.1310
     13 C          -1.2043   -2.7336    2.1891 C.ar    1  LIG1        0.0226
     14 C          -1.8218   -1.7041    2.9101 C.ar    1  LIG1        0.1343
     15 O          -1.4720   -1.5012    4.2121 O.3     1  LIG1       -0.5058
     16 C          -2.7099   -0.8534    2.2782 C.ar    1  LIG1        0.1007
     17 C          -3.0406   -1.0521    0.9393 C.ar    1  LIG1        0.1389
     18 O          -3.8721   -0.2363    0.2235 O.3     1  LIG1       -0.4828
     19 C          -4.2461    1.0427    0.7827 C.3     1  LIG1        0.1323
     20 H          -5.2825    0.9507    1.1375 H       1  LIG1        0.0789
     21 C          -4.2431    2.0491   -0.3697 C.ar    1  LIG1       -0.0033
     22 C          -3.9306    3.4055   -0.1744 C.ar    1  LIG1       -0.0098
     23 C          -3.9033    4.3055   -1.2433 C.ar    1  LIG1        0.1588
     24 O          -3.5157    5.5921   -0.9880 O.3     1  LIG1       -0.5033
     25 C          -4.2313    3.8828   -2.5336 C.ar    1  LIG1        0.1613
     26 C          -4.5423    2.5365   -2.7408 C.ar    1  LIG1       -0.0159
     27 C          -4.5605    1.6341   -1.6739 C.ar    1  LIG1       -0.0514
     28 O          -4.2458    4.6463   -3.6700 O.3     1  LIG1       -0.4915
     29 C          -4.5762    6.0178   -3.4838 C.3     1  LIG1        0.0790
     30 C          -3.3591    1.5042    1.9316 C.3     1  LIG1        0.0520
     31 C          -3.2310    0.3656    2.9062 C.2     1  LIG1        0.1740
     32 O          -3.4837    0.4792    4.0799 O.2     1  LIG1       -0.2917
     33 C          -2.4679   -2.1158    0.2317 C.ar    1  LIG1        0.0229
     34 C           0.7525   -5.6142   -0.4490 C.3     1  LIG1        0.1454
     35 H          -0.0998   -6.2279   -0.7594 H       1  LIG1        0.0683
     36 O           1.6654   -6.4979    0.2379 O.3     1  LIG1       -0.3829
     37 C           2.6810   -1.7759    0.0099 C.3     1  LIG1        0.0796
     38 O           3.1181   -1.4465    1.3376 O.3     1  LIG1       -0.3461
     39 C           3.4939   -0.0588    1.5150 C.3     1  LIG1        0.1879
     40 H           3.6808    0.0570    2.5899 H       1  LIG1        0.0937
     41 O           2.3830    0.7942    1.1895 O.3     1  LIG1       -0.3431
     42 C           2.6738    2.1729    0.9251 C.3     1  LIG1        0.0873
     43 H           1.7350    2.5899    0.5403 H       1  LIG1        0.0621
     44 C           2.9831    2.9438    2.2072 C.3     1  LIG1       -0.0361
     45 C           3.7627    2.3701   -0.1507 C.3     1  LIG1        0.1095
     46 H           4.5199    3.0950    0.1721 H       1  LIG1        0.0646
     47 O           3.2216    2.9027   -1.3748 O.3     1  LIG1       -0.3866
     48 C           4.4102    1.0403   -0.5249 C.3     1  LIG1        0.1140
     49 H           3.7200    0.4594   -1.1442 H       1  LIG1        0.0648
     50 O           5.5542    1.2966   -1.3500 O.3     1  LIG1       -0.3864
     51 C           4.7937    0.2725    0.7348 C.3     1  LIG1        0.1341
     52 H           5.3653   -0.6324    0.5022 H       1  LIG1        0.0671
     53 O           5.6756    1.0945    1.5282 O.3     1  LIG1       -0.3841
     54 O           2.7187   -3.1753   -2.5452 O.3     1  LIG1       -0.3865
     55 H           0.5711   -6.1891   -3.0134 H       1  LIG1        0.2100
     56 H          -0.4558   -3.3324    2.6920 H       1  LIG1        0.0691
     57 H          -0.9850   -2.2700    4.5492 H       1  LIG1        0.2922
     58 H          -3.6859    3.7786    0.8150 H       1  LIG1        0.0659
     59 H          -3.2305    5.6714   -0.0639 H       1  LIG1        0.2923
     60 H          -4.7776    2.1816   -3.7417 H       1  LIG1        0.0655
     61 H          -4.8087    0.5940   -1.8810 H       1  LIG1        0.0623
     62 H          -4.7299    6.4616   -4.4717 H       1  LIG1        0.0660
     63 H          -3.7533    6.5711   -3.0247 H       1  LIG1        0.0660
     64 H          -5.5075    6.1291   -2.9167 H       1  LIG1        0.0660
     65 H          -3.7836    2.3604    2.4635 H       1  LIG1        0.0385
     66 H          -2.3503    1.7687    1.5994 H       1  LIG1        0.0385
     67 H          -2.7344   -2.2708   -0.8112 H       1  LIG1        0.0691
     68 H           2.2705   -5.9461    0.7712 H       1  LIG1        0.2102
     69 H           3.5086   -1.6015   -0.6838 H       1  LIG1        0.0587
     70 H           1.8333   -1.1382   -0.2606 H       1  LIG1        0.0587
     71 H           3.8799    2.5710    2.7079 H       1  LIG1        0.0255
     72 H           2.1575    2.8474    2.9200 H       1  LIG1        0.0255
     73 H           3.1286    4.0090    1.9934 H       1  LIG1        0.0255
     74 H           2.7295    3.7130   -1.1565 H       1  LIG1        0.2100
     75 H           5.1898    1.8241   -2.0927 H       1  LIG1        0.2100
     76 H           6.4377    1.2922    0.9480 H       1  LIG1        0.2101
     77 H           2.3212   -3.4456   -3.3978 H       1  LIG1        0.2100
@<TRIPOS>BOND
     1     1     2    1
     2     2     3    1
     3     2     4    1
     4     4     6    1
     5     6     8    1
     6     8     9    1
     7    11    12    1
     8    12    13   ar
     9    13    14   ar
    10    14    15    1
    11    14    16   ar
    12    16    17   ar
    13    17    18    1
    14    18    19    1
    15    19    20    1
    16    19    21    1
    17    21    22   ar
    18    22    23   ar
    19    23    24    1
    20    23    25   ar
    21    25    26   ar
    22    26    27   ar
    23    21    27   ar
    24    25    28    1
    25    28    29    1
    26    19    30    1
    27    30    31    1
    28    16    31    1
    29    31    32    2
    30    17    33   ar
    31    12    33   ar
    32     9    34    1
    33    34    35    1
    34     2    34    1
    35    34    36    1
    36    37    38    1
    37    39    41    1
    38    41    42    1
    39    42    45    1
    40    45    46    1
    41    45    47    1
    42    45    48    1
    43    48    51    1
    44    39    51    1
    45     6    37    1
    46     6     7    1
    47     9    11    1
    48     9    10    1
    49     4    54    1
    50     4     5    1
    51    39    40    1
    52    39    38    1
    53    42    44    1
    54    42    43    1
    55    48    50    1
    56    48    49    1
    57    51    53    1
    58    51    52    1
    59     1    55    1
    60    13    56    1
    61    15    57    1
    62    22    58    1
    63    24    59    1
    64    26    60    1
    65    27    61    1
    66    29    62    1
    67    29    63    1
    68    29    64    1
    69    30    65    1
    70    30    66    1
    71    33    67    1
    72    36    68    1
    73    37    69    1
    74    37    70    1
    75    44    71    1
    76    44    72    1
    77    44    73    1
    78    47    74    1
    79    50    75    1
    80    53    76    1
    81    54    77    1
