@<TRIPOS>MOLECULE
NuBBE_1836
 53 55 0 0 0
SMALL
GASTEIGER

@<TRIPOS>ATOM
      1 O          -3.1474    2.0264    1.0833 O.3     1  LIG1       -0.4914
      2 C          -3.9728    3.1758    0.9317 C.3     1  LIG1        0.0790
      3 C          -1.8129    2.2509    1.2759 C.ar    1  LIG1        0.1624
      4 C          -0.9925    1.1375    1.4121 C.ar    1  LIG1        0.1664
      5 C           0.3756    1.2507    1.5698 C.ar    1  LIG1        0.0052
      6 C           1.0082   -0.0923    1.6456 C.3     1  LIG1        0.0262
      7 H           1.6907   -0.2298    0.7980 H       1  LIG1        0.0387
      8 C          -0.2434   -0.9955    1.5286 C.3     1  LIG1        0.1322
      9 H          -0.3941   -1.5796    2.4466 H       1  LIG1        0.0790
     10 O          -1.4322   -0.1632    1.3938 O.3     1  LIG1       -0.4797
     11 C          -0.1662   -1.9673    0.3601 C.ar    1  LIG1        0.0004
     12 C           0.3835   -3.2432    0.5217 C.ar    1  LIG1       -0.0094
     13 C           0.3878   -4.1854   -0.5252 C.ar    1  LIG1        0.1655
     14 O           0.9182   -5.3842   -0.1151 O.3     1  LIG1       -0.4913
     15 C           0.9664   -6.4808   -1.0150 C.3     1  LIG1        0.0790
     16 C          -0.1288   -3.8317   -1.7898 C.ar    1  LIG1        0.2035
     17 C          -0.6571   -2.5330   -1.9680 C.ar    1  LIG1        0.1655
     18 C          -0.6698   -1.6248   -0.8991 C.ar    1  LIG1       -0.0094
     19 O          -1.2457   -2.2214   -3.1680 O.3     1  LIG1       -0.4913
     20 C          -1.2682   -0.8473   -3.5362 C.3     1  LIG1        0.0790
     21 O          -0.1496   -4.8063   -2.7562 O.3     1  LIG1       -0.4885
     22 C          -0.0405   -4.4143   -4.1180 C.3     1  LIG1        0.0791
     23 C           1.7678   -0.3159    2.9489 C.3     1  LIG1       -0.0546
     24 C           0.9851    2.4964    1.6098 C.ar    1  LIG1       -0.0473
     25 C           0.1913    3.6462    1.4784 C.ar    1  LIG1       -0.0214
     26 C          -1.1998    3.5140    1.3288 C.ar    1  LIG1       -0.0091
     27 C           0.7740    4.9981    1.5262 C.2     1  LIG1       -0.0587
     28 C           2.0074    5.2929    1.0989 C.2     1  LIG1       -0.0865
     29 C           2.6220    6.6595    1.1248 C.3     1  LIG1       -0.0465
     30 H          -4.9917    2.8412    0.7153 H       1  LIG1        0.0660
     31 H          -3.6467    3.7953    0.0887 H       1  LIG1        0.0660
     32 H          -3.9998    3.7568    1.8597 H       1  LIG1        0.0660
     33 H           0.7889   -3.5416    1.4878 H       1  LIG1        0.0659
     34 H           1.7367   -6.3214   -1.7762 H       1  LIG1        0.0660
     35 H          -0.0095   -6.7066   -1.4537 H       1  LIG1        0.0660
     36 H           1.2524   -7.3664   -0.4377 H       1  LIG1        0.0660
     37 H          -1.1277   -0.6467   -1.0173 H       1  LIG1        0.0659
     38 H          -1.4766   -0.7983   -4.6091 H       1  LIG1        0.0660
     39 H          -0.2995   -0.3661   -3.3631 H       1  LIG1        0.0660
     40 H          -2.0731   -0.3184   -3.0167 H       1  LIG1        0.0660
     41 H           0.2045   -5.3099   -4.6977 H       1  LIG1        0.0660
     42 H           0.7658   -3.6890   -4.2677 H       1  LIG1        0.0660
     43 H          -0.9950   -4.0526   -4.5102 H       1  LIG1        0.0660
     44 H           2.6170    0.3716    3.0323 H       1  LIG1        0.0237
     45 H           2.1569   -1.3378    2.9990 H       1  LIG1        0.0237
     46 H           1.1277   -0.1515    3.8235 H       1  LIG1        0.0237
     47 H           2.0582    2.5664    1.7425 H       1  LIG1        0.0627
     48 H          -1.7957    4.4168    1.2379 H       1  LIG1        0.0661
     49 H           0.1314    5.7882    1.9174 H       1  LIG1        0.0620
     50 H           2.6519    4.5202    0.6735 H       1  LIG1        0.0569
     51 H           1.9390    7.4125    1.5295 H       1  LIG1        0.0272
     52 H           2.9016    6.9574    0.1104 H       1  LIG1        0.0272
     53 H           3.5263    6.6477    1.7398 H       1  LIG1        0.0272
@<TRIPOS>BOND
     1     1     2    1
     2     1     3    1
     3     3     4   ar
     4     4     5   ar
     5     5     6    1
     6     6     7    1
     7     6     8    1
     8     8    10    1
     9     4    10    1
    10    11    12   ar
    11    12    13   ar
    12    13    14    1
    13    14    15    1
    14    13    16   ar
    15    16    17   ar
    16    17    18   ar
    17    11    18   ar
    18    17    19    1
    19    19    20    1
    20    16    21    1
    21    21    22    1
    22     6    23    1
    23     5    24   ar
    24    24    25   ar
    25    25    26   ar
    26     3    26   ar
    27    25    27    1
    28    27    28    2
    29    28    29    1
    30     8    11    1
    31     8     9    1
    32     2    30    1
    33     2    31    1
    34     2    32    1
    35    12    33    1
    36    15    34    1
    37    15    35    1
    38    15    36    1
    39    18    37    1
    40    20    38    1
    41    20    39    1
    42    20    40    1
    43    22    41    1
    44    22    42    1
    45    22    43    1
    46    23    44    1
    47    23    45    1
    48    23    46    1
    49    24    47    1
    50    26    48    1
    51    27    49    1
    52    28    50    1
    53    29    51    1
    54    29    52    1
    55    29    53    1
