REMARK  Name = NuBBE_2355
REMARK  7 active torsions:
REMARK  status: ('A' for Active; 'I' for Inactive)
REMARK    1  A    between atoms: C_1  and  C_2
REMARK    2  A    between atoms: C_10  and  C_11
REMARK    3  A    between atoms: C_11  and  C_12
REMARK    4  A    between atoms: C_11  and  O_13
REMARK    5  A    between atoms: C_11  and  C_14
REMARK    6  A    between atoms: C_16  and  C_17
REMARK    7  A    between atoms: C_16  and  C_18
REMARK                            x       y       z     vdW  Elec       q    Type
REMARK                         _______ _______ _______ _____ _____    ______ ____
ROOT
ATOM      1  C   LIG A   1      -1.062  -0.631   1.901  0.00  0.00    +0.016 C 
ATOM      2  C   LIG A   1       0.105   0.258   1.408  0.00  0.00    -0.007 C 
ATOM      3  C   LIG A   1      -0.347   1.725   1.069  0.00  0.00    +0.005 C 
ATOM      4  C   LIG A   1      -1.239   1.759  -0.181  0.00  0.00    +0.009 C 
ATOM      5  C   LIG A   1      -0.471   1.239  -1.395  0.00  0.00    +0.031 C 
ATOM      6  C   LIG A   1       0.403   0.046  -1.108  0.00  0.00    -0.069 C 
ATOM      7  C   LIG A   1       0.651  -0.419   0.132  0.00  0.00    -0.064 C 
ATOM      8  C   LIG A   1       1.507  -1.661   0.273  0.00  0.00    +0.031 C 
ATOM      9  C   LIG A   1       1.164  -2.679  -0.811  0.00  0.00    +0.011 C 
ATOM     10  C   LIG A   1       1.265  -2.111  -2.245  0.00  0.00    +0.024 C 
ATOM     11  C   LIG A   1       1.061  -0.580  -2.314  0.00  0.00    +0.037 C 
ATOM     12  C   LIG A   1      -0.893   2.560   2.282  0.00  0.00    -0.031 C 
ATOM     13  C   LIG A   1      -0.649   4.064   1.986  0.00  0.00    +0.011 C 
ATOM     14  C   LIG A   1      -2.409   2.409   2.527  0.00  0.00    +0.011 C 
ATOM     15  C   LIG A   1      -0.135   2.189   3.583  0.00  0.00    +0.007 C 
ATOM     16  C   LIG A   1       1.254   1.629   3.307  0.00  0.00    +0.001 C 
ATOM     17  C   LIG A   1       1.201   0.317   2.519  0.00  0.00    +0.011 C 
ENDROOT
BRANCH  10  18
ATOM     18  C   LIG A   1       0.371  -2.901  -3.253  0.00  0.00    +0.064 C 
ATOM     19  C   LIG A   1       0.763  -2.608  -4.709  0.00  0.00    +0.041 C 
ATOM     20  C   LIG A   1      -1.129  -2.640  -3.069  0.00  0.00    +0.041 C 
BRANCH  18  21
ATOM     21  O   LIG A   1       0.575  -4.306  -3.050  0.00  0.00    -0.389 OA
ATOM     22  H   LIG A   1       1.520  -4.494  -3.182  0.00  0.00    +0.210 HD
ENDBRANCH  18  21
ENDBRANCH  10  18
TORSDOF 2
