@<TRIPOS>MOLECULE
NuBBE_2253
 87 90 0 0 0
SMALL
GASTEIGER

@<TRIPOS>ATOM
      1 C           1.3257   -1.5723   -0.4469 C.3     1  LIG1       -0.0588
      2 C           0.8351   -0.5540   -1.5288 C.3     1  LIG1       -0.0231
      3 C           0.9967    0.9240   -1.0263 C.3     1  LIG1       -0.0294
      4 H           0.6018    1.5451   -1.8420 H       1  LIG1        0.0312
      5 C           2.4829    1.4612   -0.8826 C.3     1  LIG1       -0.0252
      6 C           3.2104    0.7899    0.3070 C.3     1  LIG1       -0.0590
      7 C           3.1859    1.2242   -2.2715 C.3     1  LIG1       -0.0278
      8 H           2.5308    1.7153   -3.0094 H       1  LIG1        0.0312
      9 C           3.1540   -0.2662   -2.6668 C.3     1  LIG1       -0.0486
     10 C           1.7131   -0.7700   -2.7941 C.3     1  LIG1       -0.0466
     11 C           4.5774    1.9251   -2.4736 C.3     1  LIG1       -0.0056
     12 C           5.7173    1.2685   -1.6689 C.3     1  LIG1       -0.0572
     13 C           4.9949    1.8276   -3.9670 C.3     1  LIG1       -0.0572
     14 C           4.4670    3.4336   -2.0967 C.3     1  LIG1        0.0606
     15 H           5.4706    3.8748   -2.0708 H       1  LIG1        0.0599
     16 C           3.7951    3.6924   -0.7486 C.3     1  LIG1       -0.0258
     17 C           2.4392    2.9944   -0.6106 C.3     1  LIG1       -0.0447
     18 O           3.7553    4.1689   -3.0981 O.3     1  LIG1       -0.3912
     19 C           0.0667    1.2547    0.1643 C.3     1  LIG1       -0.0489
     20 C          -0.9552    0.1809    0.5332 C.3     1  LIG1       -0.0491
     21 C          -1.6593   -0.4787   -0.6594 C.3     1  LIG1       -0.0297
     22 H          -2.4311    0.2334   -0.9819 H       1  LIG1        0.0310
     23 C          -0.7120   -0.7781   -1.8788 C.3     1  LIG1       -0.0232
     24 C          -1.2257    0.1274   -3.0459 C.3     1  LIG1       -0.0588
     25 C          -1.0218   -2.2352   -2.3056 C.3     1  LIG1       -0.0465
     26 C          -2.3619   -2.5613   -1.6728 C.3     1  LIG1       -0.0468
     27 C          -2.3672   -1.8230   -0.3162 C.3     1  LIG1       -0.0090
     28 H          -1.7380   -2.3898    0.3826 H       1  LIG1        0.0331
     29 C          -3.8101   -1.7122    0.2737 C.3     1  LIG1        0.0667
     30 C          -3.9578   -0.8114    1.5216 C.3     1  LIG1       -0.0203
     31 C          -3.2490   -1.2850    2.8047 C.3     1  LIG1       -0.0292
     32 C          -3.4533   -0.4295    4.0564 C.2     1  LIG1       -0.0740
     33 C          -4.0910    0.7638    4.0078 C.2     1  LIG1       -0.0992
     34 C          -2.8456   -0.9819    5.3578 C.3     1  LIG1       -0.0258
     35 C          -3.0403   -0.0751    6.5873 C.3     1  LIG1       -0.0590
     36 C          -3.3661   -2.3829    5.7203 C.3     1  LIG1       -0.0590
     37 C          -4.3941   -3.1059    0.5637 C.3     1  LIG1       -0.0358
     38 O          -4.6422   -1.1128   -0.7383 O.3     1  LIG1       -0.3886
     39 H           2.2988   -2.0075   -0.6938 H       1  LIG1        0.0235
     40 H           0.6512   -2.4179   -0.3032 H       1  LIG1        0.0235
     41 H           1.4335   -1.1263    0.5426 H       1  LIG1        0.0235
     42 H           2.5607    0.6861    1.1803 H       1  LIG1        0.0235
     43 H           4.0569    1.3729    0.6711 H       1  LIG1        0.0235
     44 H           3.5947   -0.2026    0.0674 H       1  LIG1        0.0235
     45 H           3.7210   -0.8834   -1.9661 H       1  LIG1        0.0268
     46 H           3.6253   -0.4157   -3.6434 H       1  LIG1        0.0268
     47 H           1.7275   -1.8318   -3.0700 H       1  LIG1        0.0271
     48 H           1.2888   -0.2443   -3.6538 H       1  LIG1        0.0271
     49 H           5.7586    0.1869   -1.8307 H       1  LIG1        0.0236
     50 H           5.6471    1.4478   -0.5972 H       1  LIG1        0.0236
     51 H           6.6886    1.6741   -1.9771 H       1  LIG1        0.0236
     52 H           5.2987    0.8115   -4.2400 H       1  LIG1        0.0236
     53 H           5.8505    2.4800   -4.1772 H       1  LIG1        0.0236
     54 H           4.1799    2.1220   -4.6373 H       1  LIG1        0.0236
     55 H           3.6313    4.7707   -0.6266 H       1  LIG1        0.0290
     56 H           4.4615    3.3905    0.0650 H       1  LIG1        0.0290
     57 H           1.7301    3.4714   -1.2997 H       1  LIG1        0.0271
     58 H           2.0545    3.1933    0.3973 H       1  LIG1        0.0271
     59 H           2.8518    3.8188   -3.1600 H       1  LIG1        0.2098
     60 H          -0.4813    2.1746   -0.0819 H       1  LIG1        0.0268
     61 H           0.6297    1.4974    1.0704 H       1  LIG1        0.0268
     62 H          -1.6848    0.6661    1.1855 H       1  LIG1        0.0268
     63 H          -0.4858   -0.5773    1.1668 H       1  LIG1        0.0268
     64 H          -1.1780    1.1926   -2.8034 H       1  LIG1        0.0235
     65 H          -2.2791   -0.0870   -3.2677 H       1  LIG1        0.0235
     66 H          -0.6873   -0.0377   -3.9821 H       1  LIG1        0.0235
     67 H          -0.2782   -2.9603   -1.9682 H       1  LIG1        0.0271
     68 H          -1.0640   -2.3534   -3.3953 H       1  LIG1        0.0271
     69 H          -2.4805   -3.6430   -1.5559 H       1  LIG1        0.0269
     70 H          -3.1634   -2.2107   -2.3331 H       1  LIG1        0.0269
     71 H          -3.6587    0.2080    1.2585 H       1  LIG1        0.0296
     72 H          -5.0315   -0.7157    1.7396 H       1  LIG1        0.0296
     73 H          -2.1717   -1.3761    2.6284 H       1  LIG1        0.0311
     74 H          -3.6209   -2.2874    3.0300 H       1  LIG1        0.0311
     75 H          -4.4889    1.1806    3.0919 H       1  LIG1        0.0534
     76 H          -4.2295    1.3923    4.8786 H       1  LIG1        0.0534
     77 H          -1.7643   -1.0648    5.1935 H       1  LIG1        0.0340
     78 H          -4.1024    0.0166    6.8480 H       1  LIG1        0.0235
     79 H          -2.6401    0.9289    6.4090 H       1  LIG1        0.0235
     80 H          -2.5195   -0.4770    7.4619 H       1  LIG1        0.0235
     81 H          -4.4490   -2.3799    5.8846 H       1  LIG1        0.0235
     82 H          -2.8882   -2.7459    6.6382 H       1  LIG1        0.0235
     83 H          -3.1395   -3.1192    4.9436 H       1  LIG1        0.0235
     84 H          -5.4269   -3.0228    0.9234 H       1  LIG1        0.0257
     85 H          -3.8108   -3.6492    1.3126 H       1  LIG1        0.0257
     86 H          -4.4441   -3.7205   -0.3401 H       1  LIG1        0.0257
     87 H          -5.5704   -1.2055   -0.4633 H       1  LIG1        0.2102
@<TRIPOS>BOND
     1     1     2    1
     2     2     3    1
     3     3     4    1
     4     3     5    1
     5     5     6    1
     6     5     7    1
     7     7     8    1
     8     7     9    1
     9     9    10    1
    10     2    10    1
    11     7    11    1
    12    11    12    1
    13    11    13    1
    14    11    14    1
    15    14    15    1
    16    14    16    1
    17    16    17    1
    18     5    17    1
    19    14    18    1
    20     3    19    1
    21    19    20    1
    22    20    21    1
    23    21    22    1
    24    21    23    1
    25     2    23    1
    26    23    24    1
    27    23    25    1
    28    25    26    1
    29    26    27    1
    30    27    28    1
    31    21    27    1
    32    30    31    1
    33    31    32    1
    34    32    33    2
    35    32    34    1
    36    34    35    1
    37    34    36    1
    38    29    37    1
    39    29    38    1
    40    29    30    1
    41    29    27    1
    42     1    39    1
    43     1    40    1
    44     1    41    1
    45     6    42    1
    46     6    43    1
    47     6    44    1
    48     9    45    1
    49     9    46    1
    50    10    47    1
    51    10    48    1
    52    12    49    1
    53    12    50    1
    54    12    51    1
    55    13    52    1
    56    13    53    1
    57    13    54    1
    58    16    55    1
    59    16    56    1
    60    17    57    1
    61    17    58    1
    62    18    59    1
    63    19    60    1
    64    19    61    1
    65    20    62    1
    66    20    63    1
    67    24    64    1
    68    24    65    1
    69    24    66    1
    70    25    67    1
    71    25    68    1
    72    26    69    1
    73    26    70    1
    74    30    71    1
    75    30    72    1
    76    31    73    1
    77    31    74    1
    78    33    75    1
    79    33    76    1
    80    34    77    1
    81    35    78    1
    82    35    79    1
    83    35    80    1
    84    36    81    1
    85    36    82    1
    86    36    83    1
    87    37    84    1
    88    37    85    1
    89    37    86    1
    90    38    87    1
