REMARK  Name = NuBBE_1882
REMARK  18 active torsions:
REMARK  status: ('A' for Active; 'I' for Inactive)
REMARK    1  A    between atoms: C_4  and  O_34
REMARK    2  A    between atoms: C_5  and  O_6
REMARK    3  A    between atoms: O_6  and  C_7
REMARK    4  A    between atoms: C_8  and  O_32
REMARK    5  A    between atoms: C_12  and  C_13
REMARK    6  A    between atoms: C_15  and  O_16
REMARK    7  A    between atoms: O_16  and  C_17
REMARK    8  A    between atoms: C_17  and  C_18
REMARK    9  A    between atoms: C_20  and  O_27
REMARK   10  A    between atoms: C_22  and  O_23
REMARK   11  A    between atoms: O_23  and  C_24
REMARK   12  A    between atoms: C_24  and  C_25
REMARK   13  A    between atoms: O_27  and  C_28
REMARK   14  A    between atoms: C_29  and  O_30
REMARK   15  A    between atoms: O_30  and  C_31
REMARK   16  A    between atoms: O_32  and  C_33
REMARK   17  A    between atoms: O_34  and  C_35
REMARK   18  A    between atoms: C_35  and  C_36
REMARK                            x       y       z     vdW  Elec       q    Type
REMARK                         _______ _______ _______ _____ _____    ______ ____
ROOT
ATOM      1  O   LIG A   1      -3.401  -0.876   1.158  0.00  0.00    -0.283 OA
ATOM      2  C   LIG A   1      -2.260  -0.685   0.765  0.00  0.00    +0.238 A 
ATOM      3  C   LIG A   1      -1.274  -1.779   0.675  0.00  0.00    +0.114 A 
ATOM      4  C   LIG A   1      -1.592  -3.107   0.401  0.00  0.00    +0.191 A 
ATOM      5  C   LIG A   1      -0.579  -4.082   0.261  0.00  0.00    +0.205 A 
ATOM      6  C   LIG A   1       0.767  -3.709   0.454  0.00  0.00    +0.169 A 
ATOM      7  C   LIG A   1       1.075  -2.378   0.761  0.00  0.00    +0.096 A 
ATOM      8  C   LIG A   1       0.060  -1.428   0.841  0.00  0.00    +0.147 A 
ATOM      9  O   LIG A   1       0.433  -0.129   1.069  0.00  0.00    -0.451 OA
ATOM     10  C   LIG A   1      -0.411   0.831   0.538  0.00  0.00    +0.184 A 
ATOM     11  C   LIG A   1      -1.732   0.654   0.337  0.00  0.00    +0.211 A 
ENDROOT
BRANCH  10  12
ATOM     12  C   LIG A   1       0.321   2.015   0.078  0.00  0.00    +0.067 A 
ATOM     13  C   LIG A   1       0.891   1.960  -1.197  0.00  0.00    +0.065 A 
ATOM     14  C   LIG A   1       1.700   3.002  -1.645  0.00  0.00    +0.174 A 
ATOM     15  C   LIG A   1       1.974   4.108  -0.824  0.00  0.00    +0.166 A 
ATOM     16  C   LIG A   1       1.382   4.181   0.441  0.00  0.00    +0.096 A 
ATOM     17  C   LIG A   1       0.562   3.134   0.884  0.00  0.00    +0.146 A 
BRANCH  15  18
ATOM     18  O   LIG A   1       2.805   5.065  -1.347  0.00  0.00    -0.491 OA
ATOM     19  C   LIG A   1       3.598   5.790  -0.413  0.00  0.00    +0.277 C 
ENDBRANCH  15  18
BRANCH  14  20
ATOM     20  O   LIG A   1       2.386   2.933  -2.882  0.00  0.00    -0.422 OA
BRANCH  20  21
ATOM     21  C   LIG A   1       1.894   2.231  -3.981  0.00  0.00    +0.309 C 
ATOM     22  C   LIG A   1       2.906   2.299  -5.083  0.00  0.00    +0.136 C 
ATOM     23  O   LIG A   1       0.829   1.637  -4.064  0.00  0.00    -0.251 OA
ENDBRANCH  20  21
ENDBRANCH  14  20
BRANCH  17  24
ATOM     24  O   LIG A   1       0.133   3.067   2.228  0.00  0.00    -0.425 OA
BRANCH  24  25
ATOM     25  C   LIG A   1      -0.349   4.192   2.902  0.00  0.00    +0.309 C 
ATOM     26  C   LIG A   1      -0.327   3.869   4.370  0.00  0.00    +0.136 C 
ATOM     27  O   LIG A   1      -0.677   5.254   2.417  0.00  0.00    -0.251 OA
ENDBRANCH  24  25
ENDBRANCH  17  24
ENDBRANCH  10  12
BRANCH   5  28
ATOM     28  O   LIG A   1      -1.035  -5.327  -0.097  0.00  0.00    -0.488 OA
ATOM     29  C   LIG A   1      -0.299  -6.461   0.332  0.00  0.00    +0.277 C 
ENDBRANCH   5  28
BRANCH  11  30
ATOM     30  O   LIG A   1      -2.482   1.602  -0.334  0.00  0.00    -0.488 OA
ATOM     31  C   LIG A   1      -3.884   1.596  -0.112  0.00  0.00    +0.277 C 
ENDBRANCH  11  30
BRANCH   6  32
ATOM     32  O   LIG A   1       1.751  -4.641   0.259  0.00  0.00    -0.491 OA
ATOM     33  C   LIG A   1       2.932  -4.494   1.042  0.00  0.00    +0.277 C 
ENDBRANCH   6  32
BRANCH   4  34
ATOM     34  O   LIG A   1      -2.929  -3.539   0.490  0.00  0.00    -0.421 OA
BRANCH  34  35
ATOM     35  C   LIG A   1      -3.552  -3.982  -0.669  0.00  0.00    +0.309 C 
ATOM     36  C   LIG A   1      -4.626  -4.955  -0.262  0.00  0.00    +0.136 C 
ATOM     37  O   LIG A   1      -3.260  -3.688  -1.819  0.00  0.00    -0.251 OA
ENDBRANCH  34  35
ENDBRANCH   4  34
TORSDOF 11
