@<TRIPOS>MOLECULE
NuBBE_622
 30 33 0 0 0
SMALL
GASTEIGER

@<TRIPOS>ATOM
      1 C          -2.1012    2.6641   -0.8483 C.3     1  LIG1       -0.0325
      2 C          -0.6078    2.5190   -0.8803 C.2     1  LIG1        0.0411
      3 C           0.1781    1.4146   -0.7889 C.2     1  LIG1        0.0199
      4 C          -0.2488    0.0058   -0.7399 C.ar    1  LIG1        0.0668
      5 C           0.4607   -1.1783   -0.9119 C.ar    1  LIG1        0.1500
      6 C          -0.1420   -2.4143   -0.6187 C.ar    1  LIG1        0.0184
      7 C          -1.4754   -2.4316   -0.2031 C.ar    1  LIG1       -0.0476
      8 C          -1.9796   -1.2563    0.3447 C.ar    1  LIG1       -0.0185
      9 C          -1.1630   -0.1403    0.2820 C.ar    1  LIG1        0.1318
     10 O          -0.9473    0.6604    1.4118 O.3     1  LIG1       -0.4872
     11 C           0.5137    1.0150    1.5514 C.3     1  LIG1        0.1307
     12 C           1.1634    1.6736    0.2796 C.3     1  LIG1        0.1633
     13 O           1.2126    3.0965    0.3946 O.3     1  LIG1       -0.4498
     14 C           0.1537    3.6203   -0.2402 C.2     1  LIG1        0.3360
     15 O          -0.1846    4.8029   -0.2199 O.2     1  LIG1       -0.2453
     16 C           0.6943   -3.5853   -0.3848 C.ar    1  LIG1       -0.0443
     17 C           1.9908   -3.3845   -0.1242 C.ar    1  LIG1        0.0236
     18 C           2.6044   -2.0481   -0.2489 C.ar    1  LIG1        0.3372
     19 O           3.7116   -1.8139    0.2143 O.2     1  LIG1       -0.2452
     20 O           1.8745   -1.1036   -0.9718 O.2     1  LIG1       -0.4214
     21 H          -2.6395    1.7219   -0.9598 H       1  LIG1        0.0280
     22 H          -2.4574    3.3639   -1.6036 H       1  LIG1        0.0280
     23 H          -2.3972    3.0654    0.1351 H       1  LIG1        0.0280
     24 H          -2.0128   -3.3635   -0.0515 H       1  LIG1        0.0626
     25 H          -2.8874   -1.2603    0.9364 H       1  LIG1        0.0654
     26 H           1.0516    0.0901    1.8043 H       1  LIG1        0.0738
     27 H           0.5863    1.6979    2.4008 H       1  LIG1        0.0738
     28 H           2.1723    1.3044    0.0496 H       1  LIG1        0.0821
     29 H           0.2366   -4.5579   -0.2391 H       1  LIG1        0.0627
     30 H           2.6396   -4.1779    0.2303 H       1  LIG1        0.0689
@<TRIPOS>BOND
     1     1     2    1
     2     2     3    2
     3     3     4    1
     4     4     5   ar
     5     5     6   ar
     6     6     7   ar
     7     7     8   ar
     8     8     9   ar
     9     4     9   ar
    10     9    10    1
    11    10    11    1
    12    11    12    1
    13     3    12    1
    14    12    13    1
    15    13    14    1
    16     2    14    1
    17    14    15    2
    18     6    16   ar
    19    16    17   ar
    20    17    18   ar
    21    18    19    2
    22    18    20   ar
    23     5    20   ar
    24     1    21    1
    25     1    22    1
    26     1    23    1
    27     7    24    1
    28     8    25    1
    29    11    26    1
    30    11    27    1
    31    12    28    1
    32    16    29    1
    33    17    30    1
