@<TRIPOS>MOLECULE
NuBBE_851
 28 30 0 0 0
SMALL
GASTEIGER

@<TRIPOS>ATOM
      1 O          -2.6116    0.1068   -0.6466 O.2     1  PRO1       -0.2735
      2 C          -1.3897    0.0669   -0.5231 C.2     1  PRO1        0.2367
      3 CA         -0.5575   -1.2047   -0.7467 C.3     1  PRO1        0.1025
      4 HA         -0.2764   -1.2765   -1.8038 H       1  PRO1        0.0597
      5 N           0.6662   -1.1796    0.0520 N.am    1  PRO1       -0.2884
      6 CD          0.9817   -2.4598    0.6389 C.3     1  PRO1        0.0156
      7 CG         -0.1311   -3.3903    0.1759 C.3     1  PRO1       -0.0350
      8 CB         -1.2662   -2.4639   -0.2585 C.3     1  PRO1       -0.0243
      9 N          -0.6187    1.1790   -0.2568 N.am    2  PRO2       -0.2884
     10 CA          0.8321    1.2006   -0.4320 C.3     2  PRO2        0.1025
     11 HA          1.0475    1.2610   -1.5052 H       2  PRO2        0.0597
     12 CB          1.2547    2.4668    0.3061 C.3     2  PRO2       -0.0243
     13 CG          0.0437    3.3918    0.1915 C.3     2  PRO2       -0.0350
     14 CD         -1.1589    2.4603    0.1295 C.3     2  PRO2        0.0156
     15 C           1.4764   -0.0673    0.1485 C.2     2  PRO2        0.2367
     16 O           2.6266   -0.1061    0.5789 O.2     2  PRO2       -0.2735
     17 HD1         0.9949   -2.3409    1.7272 H       1  PRO1        0.0465
     18 HD2         1.9702   -2.7953    0.3100 H       1  PRO1        0.0465
     19 HG1        -0.4416   -4.0804    0.9670 H       1  PRO1        0.0281
     20 HG2         0.2096   -3.9892   -0.6757 H       1  PRO1        0.0281
     21 HB1        -1.9107   -2.2436    0.6016 H       1  PRO1        0.0288
     22 HB2        -1.8938   -2.9142   -1.0338 H       1  PRO1        0.0288
     23 HB1         2.1578    2.9139   -0.1208 H       2  PRO2        0.0288
     24 HB2         1.4584    2.2564    1.3634 H       2  PRO2        0.0288
     25 HG1         0.1097    3.9820   -0.7291 H       2  PRO2        0.0281
     26 HG2        -0.0237    4.0899    1.0321 H       2  PRO2        0.0281
     27 HD1        -1.9082    2.7919   -0.5959 H       2  PRO2        0.0465
     28 HD2        -1.6416    2.3444    1.1054 H       2  PRO2        0.0465
@<TRIPOS>BOND
     1     1     2    2
     2     2     3    1
     3     3     4    1
     4     3     5    1
     5     5     6    1
     6     6     7    1
     7     7     8    1
     8     3     8    1
     9     2     9   am
    10     9    10    1
    11    10    11    1
    12    10    12    1
    13    12    13    1
    14    13    14    1
    15     9    14    1
    16    10    15    1
    17     5    15   am
    18    15    16    2
    19     6    17    1
    20     6    18    1
    21     7    19    1
    22     7    20    1
    23     8    21    1
    24     8    22    1
    25    12    23    1
    26    12    24    1
    27    13    25    1
    28    13    26    1
    29    14    27    1
    30    14    28    1
