@<TRIPOS>MOLECULE
NuBBE_169
 77 77 0 0 0
SMALL
GASTEIGER

@<TRIPOS>ATOM
      1 C           2.3998   -0.5693    6.0965 C.3     1  LIG1       -0.0462
      2 C           1.1160   -0.2794    5.3140 C.3     1  LIG1        0.0423
      3 H           0.8177    0.7501    5.5443 H       1  LIG1        0.0494
      4 C          -0.0476   -1.2242    5.6949 C.3     1  LIG1        0.1215
      5 H          -0.2689   -1.1310    6.7654 H       1  LIG1        0.0751
      6 O           0.3578   -2.5665    5.3873 O.3     1  LIG1       -0.4289
      7 C           0.1733   -3.5320    6.2907 C.2     1  LIG1        0.5110
      8 O           0.8959   -4.5923    5.9011 O.3     1  LIG1       -0.4281
      9 C           0.3146   -5.9174    5.8577 C.3     1  LIG1        0.1086
     10 C          -0.7549   -5.9161    4.7616 C.3     1  LIG1       -0.0253
     11 C           1.4513   -6.8802    5.4649 C.3     1  LIG1       -0.0253
     12 C          -0.2639   -6.3676    7.1958 C.3     1  LIG1       -0.0253
     13 O          -0.5314   -3.4537    7.2934 O.2     1  LIG1       -0.2028
     14 C          -1.2776   -0.8193    4.8813 C.3     1  LIG1       -0.0127
     15 C          -0.9840   -0.7664    3.3764 C.3     1  LIG1       -0.0341
     16 C           0.3250   -0.0437    2.9938 C.3     1  LIG1        0.0081
     17 H           0.1635    1.0401    3.0610 H       1  LIG1        0.0460
     18 C           0.7874   -0.3896    1.5448 C.3     1  LIG1       -0.0375
     19 C          -0.2200   -0.0326    0.4385 C.3     1  LIG1       -0.0516
     20 C           0.2548   -0.4059   -0.9791 C.3     1  LIG1       -0.0530
     21 C          -0.7413    0.0037   -2.0907 C.3     1  LIG1       -0.0531
     22 C          -0.9837    1.5200   -2.2376 C.3     1  LIG1       -0.0531
     23 C          -1.9941    1.8628   -3.3484 C.3     1  LIG1       -0.0531
     24 C          -2.2543    3.3727   -3.5375 C.3     1  LIG1       -0.0531
     25 C          -1.0447    4.2426   -3.9488 C.3     1  LIG1       -0.0531
     26 C          -0.4828    3.8926   -5.3427 C.3     1  LIG1       -0.0530
     27 C           0.7254    4.7434   -5.7723 C.3     1  LIG1       -0.0527
     28 C           1.3113    4.3977   -7.1600 C.3     1  LIG1       -0.0464
     29 C           0.3582    4.5182   -8.3561 C.3     1  LIG1        0.0055
     30 C           1.0223    4.1156   -9.6700 C.2     1  LIG1        0.1303
     31 C           0.1683    4.1729  -10.9126 C.3     1  LIG1       -0.0061
     32 O           2.2064    3.7878   -9.7465 O.2     1  LIG1       -0.2977
     33 N           1.4481   -0.3871    3.8812 N.3     1  LIG1       -0.3074
     34 H           1.7287   -1.3541    3.6972 H       1  LIG1        0.1226
     35 H           2.9050   -1.4806    5.7550 H       1  LIG1        0.0246
     36 H           2.2011   -0.6739    7.1677 H       1  LIG1        0.0246
     37 H           3.1044    0.2614    5.9698 H       1  LIG1        0.0246
     38 H          -0.3395   -5.5568    3.8117 H       1  LIG1        0.0268
     39 H          -1.5701   -5.2299    5.0168 H       1  LIG1        0.0268
     40 H          -1.1780   -6.9122    4.6062 H       1  LIG1        0.0268
     41 H           1.8246   -6.6728    4.4553 H       1  LIG1        0.0268
     42 H           1.1237   -7.9259    5.4935 H       1  LIG1        0.0268
     43 H           2.3085   -6.7719    6.1402 H       1  LIG1        0.0268
     44 H          -1.1443   -5.7802    7.4707 H       1  LIG1        0.0268
     45 H           0.4705   -6.2552    7.9998 H       1  LIG1        0.0268
     46 H          -0.5808   -7.4156    7.1520 H       1  LIG1        0.0268
     47 H          -1.6227    0.1670    5.2207 H       1  LIG1        0.0302
     48 H          -2.1003   -1.5235    5.0545 H       1  LIG1        0.0302
     49 H          -1.8274   -0.2571    2.8926 H       1  LIG1        0.0281
     50 H          -0.9670   -1.7922    2.9918 H       1  LIG1        0.0281
     51 H           1.0265   -1.4604    1.4862 H       1  LIG1        0.0280
     52 H           1.7239    0.1488    1.3425 H       1  LIG1        0.0280
     53 H          -0.3990    1.0442    0.4878 H       1  LIG1        0.0266
     54 H          -1.1714   -0.5418    0.6227 H       1  LIG1        0.0266
     55 H           0.3839   -1.4968   -1.0366 H       1  LIG1        0.0265
     56 H           1.2429    0.0261   -1.1802 H       1  LIG1        0.0265
     57 H          -1.6914   -0.5162   -1.9172 H       1  LIG1        0.0265
     58 H          -0.3519   -0.3724   -3.0460 H       1  LIG1        0.0265
     59 H          -0.0282    1.9938   -2.4787 H       1  LIG1        0.0265
     60 H          -1.3394    1.9428   -1.2922 H       1  LIG1        0.0265
     61 H          -2.9556    1.3779   -3.1254 H       1  LIG1        0.0265
     62 H          -1.6527    1.4360   -4.2963 H       1  LIG1        0.0265
     63 H          -2.6839    3.7783   -2.6110 H       1  LIG1        0.0265
     64 H          -3.0352    3.4891   -4.3013 H       1  LIG1        0.0265
     65 H          -0.2652    4.1829   -3.1813 H       1  LIG1        0.0265
     66 H          -1.3776    5.2900   -3.9610 H       1  LIG1        0.0265
     67 H          -1.2851    4.0379   -6.0724 H       1  LIG1        0.0265
     68 H          -0.1965    2.8368   -5.3634 H       1  LIG1        0.0265
     69 H           1.5315    4.6162   -5.0364 H       1  LIG1        0.0265
     70 H           0.4550    5.8051   -5.7571 H       1  LIG1        0.0265
     71 H           1.7390    3.3875   -7.1319 H       1  LIG1        0.0269
     72 H           2.1569    5.0757   -7.3400 H       1  LIG1        0.0269
     73 H           0.0170    5.5531   -8.4643 H       1  LIG1        0.0341
     74 H          -0.5103    3.8652   -8.2276 H       1  LIG1        0.0341
     75 H           0.2844    5.1419  -11.4049 H       1  LIG1        0.0306
     76 H          -0.8831    4.0129  -10.6615 H       1  LIG1        0.0306
     77 H           0.4808    3.3731  -11.5904 H       1  LIG1        0.0306
@<TRIPOS>BOND
     1     2     4    1
     2     6     7    1
     3     7     8    1
     4     8     9    1
     5     9    10    1
     6     9    11    1
     7     9    12    1
     8     7    13    2
     9     4    14    1
    10    14    15    1
    11    15    16    1
    12    16    17    1
    13    16    18    1
    14    18    19    1
    15    19    20    1
    16    20    21    1
    17    21    22    1
    18    22    23    1
    19    23    24    1
    20    24    25    1
    21    25    26    1
    22    26    27    1
    23    27    28    1
    24    28    29    1
    25    29    30    1
    26    30    31    1
    27    30    32    2
    28    16    33    1
    29     2    33    1
    30    33    34    1
    31     2     3    1
    32     2     1    1
    33     4     6    1
    34     4     5    1
    35     1    35    1
    36     1    36    1
    37     1    37    1
    38    10    38    1
    39    10    39    1
    40    10    40    1
    41    11    41    1
    42    11    42    1
    43    11    43    1
    44    12    44    1
    45    12    45    1
    46    12    46    1
    47    14    47    1
    48    14    48    1
    49    15    49    1
    50    15    50    1
    51    18    51    1
    52    18    52    1
    53    19    53    1
    54    19    54    1
    55    20    55    1
    56    20    56    1
    57    21    57    1
    58    21    58    1
    59    22    59    1
    60    22    60    1
    61    23    61    1
    62    23    62    1
    63    24    63    1
    64    24    64    1
    65    25    65    1
    66    25    66    1
    67    26    67    1
    68    26    68    1
    69    27    69    1
    70    27    70    1
    71    28    71    1
    72    28    72    1
    73    29    73    1
    74    29    74    1
    75    31    75    1
    76    31    76    1
    77    31    77    1
