@<TRIPOS>MOLECULE
NuBBE_201
 56 57 0 0 0
SMALL
GASTEIGER

@<TRIPOS>ATOM
      1 O          -4.0510    0.0069    0.6948 O.2     1  LIG1       -0.2927
      2 C          -2.8969   -0.0550    1.1276 C.2     1  LIG1        0.1564
      3 C          -2.5743   -1.0448    2.1821 C.2     1  LIG1       -0.0197
      4 C          -1.3746   -1.0621    2.7963 C.2     1  LIG1       -0.0631
      5 C          -1.1207   -2.0684    3.8890 C.3     1  LIG1       -0.0429
      6 C          -0.2607   -0.0496    2.4345 C.3     1  LIG1       -0.0072
      7 C           1.1472   -0.6354    2.6701 C.3     1  LIG1       -0.0434
      8 C           2.2553    0.2762    2.1603 C.3     1  LIG1       -0.0492
      9 C           2.1630    0.4641    0.6430 C.3     1  LIG1       -0.0382
     10 H           2.2832   -0.5395    0.2207 H       1  LIG1        0.0303
     11 C           3.3816    1.2766    0.1789 C.3     1  LIG1       -0.0619
     12 C           0.7745    1.0285    0.1671 C.3     1  LIG1       -0.0255
     13 C           0.6943    2.5594    0.4021 C.3     1  LIG1       -0.0590
     14 C           0.6452    0.8405   -1.4040 C.3     1  LIG1       -0.0468
     15 C           0.7107   -0.6025   -1.9545 C.3     1  LIG1       -0.0499
     16 C           0.5754   -0.7020   -3.4925 C.3     1  LIG1       -0.0418
     17 C           0.6680   -2.1704   -3.9360 C.3     1  LIG1       -0.0623
     18 C          -0.7044   -0.0499   -4.0448 C.3     1  LIG1       -0.0271
     19 C          -2.0017   -0.6365   -3.4986 C.3     1  LIG1        0.0444
     20 O          -3.0968    0.0601   -4.0761 O.3     1  LIG1       -0.3950
     21 C          -0.4704    1.1518    3.3859 C.3     1  LIG1       -0.0556
     22 C          -0.4149    0.2755    0.9021 C.3     1  LIG1       -0.0193
     23 H          -0.4304   -0.7188    0.4353 H       1  LIG1        0.0319
     24 C          -1.8113    0.8770    0.6420 C.3     1  LIG1        0.0140
     25 H          -3.3757   -1.7300    2.4360 H       1  LIG1        0.0652
     26 H          -2.0160   -2.6554    4.1222 H       1  LIG1        0.0275
     27 H          -0.8101   -1.5692    4.8116 H       1  LIG1        0.0275
     28 H          -0.3421   -2.7767    3.5888 H       1  LIG1        0.0275
     29 H           1.2373   -1.6107    2.1724 H       1  LIG1        0.0274
     30 H           1.3183   -0.8169    3.7386 H       1  LIG1        0.0274
     31 H           3.2193   -0.1857    2.4095 H       1  LIG1        0.0268
     32 H           2.2418    1.2421    2.6758 H       1  LIG1        0.0268
     33 H           3.4332    2.2501    0.6781 H       1  LIG1        0.0233
     34 H           3.3813    1.4409   -0.9014 H       1  LIG1        0.0233
     35 H           4.3071    0.7424    0.4223 H       1  LIG1        0.0233
     36 H          -0.2671    2.9716    0.0782 H       1  LIG1        0.0235
     37 H           1.4547    3.0948   -0.1778 H       1  LIG1        0.0235
     38 H           0.8428    2.8328    1.4464 H       1  LIG1        0.0235
     39 H          -0.2957    1.3001   -1.7222 H       1  LIG1        0.0271
     40 H           1.4266    1.4247   -1.9061 H       1  LIG1        0.0271
     41 H          -0.0676   -1.2207   -1.4992 H       1  LIG1        0.0268
     42 H           1.6681   -1.0587   -1.6826 H       1  LIG1        0.0268
     43 H           1.4291   -0.1765   -3.9411 H       1  LIG1        0.0299
     44 H          -0.0567   -2.8006   -3.4092 H       1  LIG1        0.0232
     45 H           1.6650   -2.5765   -3.7356 H       1  LIG1        0.0232
     46 H           0.4806   -2.2687   -5.0111 H       1  LIG1        0.0232
     47 H          -0.7107   -0.1283   -5.1400 H       1  LIG1        0.0290
     48 H          -0.6870    1.0298   -3.8531 H       1  LIG1        0.0290
     49 H          -2.0643   -0.5251   -2.4129 H       1  LIG1        0.0557
     50 H          -2.0988   -1.6957   -3.7529 H       1  LIG1        0.0557
     51 H          -3.9009   -0.2678   -3.6361 H       1  LIG1        0.2094
     52 H          -0.3278    0.8470    4.4308 H       1  LIG1        0.0238
     53 H          -1.4814    1.5681    3.3222 H       1  LIG1        0.0238
     54 H           0.2291    1.9675    3.2077 H       1  LIG1        0.0238
     55 H          -1.9782    1.0282   -0.4275 H       1  LIG1        0.0348
     56 H          -1.9449    1.8417    1.1430 H       1  LIG1        0.0348
@<TRIPOS>BOND
     1     2     3    1
     2     3     4    2
     3     4     6    1
     4     6     7    1
     5     7     8    1
     6     8     9    1
     7     9    12    1
     8    14    15    1
     9    15    16    1
    10    16    17    1
    11    16    18    1
    12    18    19    1
    13    19    20    1
    14     6    22    1
    15    12    22    1
    16    22    24    1
    17     2    24    1
    18     1     2    2
    19     4     5    1
    20     6    21    1
    21    22    23    1
    22     9    11    1
    23     9    10    1
    24    12    14    1
    25    12    13    1
    26     3    25    1
    27     5    26    1
    28     5    27    1
    29     5    28    1
    30     7    29    1
    31     7    30    1
    32     8    31    1
    33     8    32    1
    34    11    33    1
    35    11    34    1
    36    11    35    1
    37    13    36    1
    38    13    37    1
    39    13    38    1
    40    14    39    1
    41    14    40    1
    42    15    41    1
    43    15    42    1
    44    16    43    1
    45    17    44    1
    46    17    45    1
    47    17    46    1
    48    18    47    1
    49    18    48    1
    50    19    49    1
    51    19    50    1
    52    20    51    1
    53    21    52    1
    54    21    53    1
    55    21    54    1
    56    24    55    1
    57    24    56    1
