@<TRIPOS>MOLECULE
NuBBE_2205
 61 62 0 0 0
SMALL
GASTEIGER

@<TRIPOS>ATOM
      1 C          -4.7023    2.7716    1.8580 C.2     1  LIG1        0.1895
      2 O          -5.4579    1.8572    2.1778 O.2     1  LIG1       -0.2872
      3 C          -5.1933    4.1696    1.6506 C.2     1  LIG1       -0.0155
      4 C          -6.3441    4.7070    2.1087 C.2     1  LIG1       -0.0721
      5 C          -7.3567    4.0265    2.9915 C.3     1  LIG1       -0.0436
      6 C          -6.7018    6.1289    1.7544 C.3     1  LIG1       -0.0436
      7 C          -3.2696    2.4615    1.5532 C.ar    1  LIG1        0.0633
      8 C          -2.9855    1.1829    1.0284 C.ar    1  LIG1       -0.0418
      9 C          -1.6670    0.7794    0.7380 C.ar    1  LIG1       -0.0182
     10 C          -1.3838   -0.6138    0.1859 C.3     1  LIG1        0.0816
     11 O          -0.2041   -0.5329   -0.6255 O.3     1  LIG1       -0.3647
     12 C           0.2603   -1.7347   -1.2405 C.3     1  LIG1        0.0816
     13 C          -0.7755   -2.3571   -2.1733 C.3     1  LIG1       -0.0345
     14 C           1.5414   -1.3812   -1.9835 C.ar    1  LIG1       -0.0182
     15 C           2.7532   -2.0066   -1.6369 C.ar    1  LIG1       -0.0418
     16 C           3.9582   -1.6956   -2.2939 C.ar    1  LIG1        0.0633
     17 C           5.2235   -2.4494   -2.0086 C.2     1  LIG1        0.1895
     18 O           6.1230   -2.4557   -2.8287 O.2     1  LIG1       -0.2872
     19 C           5.3273   -3.1321   -0.6800 C.2     1  LIG1       -0.0155
     20 C           6.1367   -4.1550   -0.3428 C.2     1  LIG1       -0.0721
     21 C           7.1573   -4.8053   -1.2366 C.3     1  LIG1       -0.0436
     22 C           6.0333   -4.7437    1.0405 C.3     1  LIG1       -0.0436
     23 C           3.9434   -0.7049   -3.2858 C.ar    1  LIG1        0.1277
     24 C           2.7450   -0.0982   -3.6621 C.ar    1  LIG1       -0.0191
     25 C           1.5511   -0.4404   -3.0221 C.ar    1  LIG1       -0.0526
     26 O           5.0705   -0.2547   -3.9209 O.3     1  LIG1       -0.5061
     27 C          -1.2395   -1.6256    1.3251 C.3     1  LIG1       -0.0345
     28 C          -0.6271    1.6844    0.9903 C.ar    1  LIG1       -0.0526
     29 C          -0.8907    2.9516    1.5134 C.ar    1  LIG1       -0.0191
     30 C          -2.2038    3.3366    1.8002 C.ar    1  LIG1        0.1277
     31 O          -2.4129    4.5703    2.3511 O.3     1  LIG1       -0.5061
     32 H          -4.5441    4.7799    1.0298 H       1  LIG1        0.0655
     33 H          -6.9462    3.1855    3.5540 H       1  LIG1        0.0274
     34 H          -8.2060    3.6762    2.3958 H       1  LIG1        0.0274
     35 H          -7.7435    4.7312    3.7381 H       1  LIG1        0.0274
     36 H          -5.9254    6.6154    1.1547 H       1  LIG1        0.0274
     37 H          -6.8367    6.7274    2.6618 H       1  LIG1        0.0274
     38 H          -7.6333    6.1549    1.1794 H       1  LIG1        0.0274
     39 H          -3.8110    0.4961    0.8423 H       1  LIG1        0.0629
     40 H          -2.2270   -0.8913   -0.4567 H       1  LIG1        0.0644
     41 H           0.5160   -2.4570   -0.4569 H       1  LIG1        0.0644
     42 H          -1.1876   -1.6161   -2.8663 H       1  LIG1        0.0258
     43 H          -1.6206   -2.7545   -1.6013 H       1  LIG1        0.0258
     44 H          -0.3494   -3.1838   -2.7504 H       1  LIG1        0.0258
     45 H           2.7295   -2.7610   -0.8557 H       1  LIG1        0.0629
     46 H           4.6563   -2.7490    0.0792 H       1  LIG1        0.0655
     47 H           7.7476   -4.0694   -1.7889 H       1  LIG1        0.0274
     48 H           6.6787   -5.4949   -1.9384 H       1  LIG1        0.0274
     49 H           7.8731   -5.3869   -0.6425 H       1  LIG1        0.0274
     50 H           5.3096   -4.2059    1.6635 H       1  LIG1        0.0274
     51 H           7.0000   -4.7002    1.5505 H       1  LIG1        0.0274
     52 H           5.7068   -5.7872    0.9841 H       1  LIG1        0.0274
     53 H           2.7403    0.6431   -4.4576 H       1  LIG1        0.0654
     54 H           0.6260    0.0426   -3.3308 H       1  LIG1        0.0622
     55 H           5.8353   -0.7795   -3.5997 H       1  LIG1        0.2922
     56 H          -0.3107   -1.4662    1.8843 H       1  LIG1        0.0258
     57 H          -1.2003   -2.6485    0.9344 H       1  LIG1        0.0258
     58 H          -2.0810   -1.5800    2.0238 H       1  LIG1        0.0258
     59 H           0.4035    1.4062    0.7724 H       1  LIG1        0.0622
     60 H          -0.0525    3.6186    1.6960 H       1  LIG1        0.0654
     61 H          -1.5560    5.0137    2.4748 H       1  LIG1        0.2922
@<TRIPOS>BOND
     1     1     2    2
     2     1     3    1
     3     3     4    2
     4     4     5    1
     5     4     6    1
     6     1     7    1
     7     7     8   ar
     8     8     9   ar
     9     9    10    1
    10    10    11    1
    11    11    12    1
    12    12    13    1
    13    12    14    1
    14    14    15   ar
    15    15    16   ar
    16    16    17    1
    17    17    18    2
    18    17    19    1
    19    19    20    2
    20    20    21    1
    21    20    22    1
    22    16    23   ar
    23    23    24   ar
    24    24    25   ar
    25    14    25   ar
    26    23    26    1
    27    10    27    1
    28     9    28   ar
    29    28    29   ar
    30    29    30   ar
    31     7    30   ar
    32    30    31    1
    33     3    32    1
    34     5    33    1
    35     5    34    1
    36     5    35    1
    37     6    36    1
    38     6    37    1
    39     6    38    1
    40     8    39    1
    41    10    40    1
    42    12    41    1
    43    13    42    1
    44    13    43    1
    45    13    44    1
    46    15    45    1
    47    19    46    1
    48    21    47    1
    49    21    48    1
    50    21    49    1
    51    22    50    1
    52    22    51    1
    53    22    52    1
    54    24    53    1
    55    25    54    1
    56    26    55    1
    57    27    56    1
    58    27    57    1
    59    27    58    1
    60    28    59    1
    61    29    60    1
    62    31    61    1
