@<TRIPOS>MOLECULE
NuBBE_2472
 70 71 0 0 0
SMALL
GASTEIGER

@<TRIPOS>ATOM
      1 C          -0.9551    1.6156    5.6071 C.3     1  LIG1        0.0790
      2 O           0.2336    2.3979    5.3120 O.3     1  LIG1       -0.4914
      3 C           0.6992    2.3146    4.0214 C.ar    1  LIG1        0.1625
      4 C           1.8525    2.9796    3.5301 C.ar    1  LIG1        0.1730
      5 O           2.7442    3.7136    4.3668 O.3     1  LIG1       -0.4223
      6 C           3.8244    4.4513    3.8230 C.2     1  LIG1        0.3093
      7 C           4.9265    4.5790    4.8183 C.3     1  LIG1        0.0336
      8 O           3.9338    4.9153    2.6903 O.2     1  LIG1       -0.2507
      9 C           2.2242    2.8028    2.1901 C.ar    1  LIG1       -0.0153
     10 C           1.4839    2.0048    1.3411 C.ar    1  LIG1       -0.0549
     11 C           0.3843    1.3126    1.8497 C.ar    1  LIG1       -0.0433
     12 C          -0.2644    0.1752    1.1515 C.3     1  LIG1       -0.0213
     13 C          -1.6183   -0.5903    1.2127 C.3     1  LIG1        0.0035
     14 H          -1.7785   -0.8007    2.2755 H       1  LIG1        0.0341
     15 C          -1.7844   -2.1124    0.5087 C.3     1  LIG1        0.0035
     16 H          -2.6841   -2.4124    1.0810 H       1  LIG1        0.0341
     17 C          -0.7941   -3.2036    0.9978 C.3     1  LIG1        0.0959
     18 O           0.4573   -3.3733    0.3404 O.3     1  LIG1       -0.4645
     19 C           1.1753   -2.3068    0.3518 C.2     1  LIG1        0.3040
     20 C           0.8671   -1.2238   -0.4547 C.3     1  LIG1        0.0332
     21 O           2.3787   -2.3533    0.8329 O.2     1  LIG1       -0.2512
     22 C          -2.3238   -2.3861   -0.9941 C.3     1  LIG1       -0.0213
     23 C          -1.5245   -2.3275   -2.3265 C.ar    1  LIG1       -0.0433
     24 C          -2.0616   -2.3314   -3.5704 C.ar    1  LIG1       -0.0549
     25 C          -1.2437   -1.9495   -4.6506 C.ar    1  LIG1       -0.0160
     26 C           0.1102   -1.4991   -4.5415 C.ar    1  LIG1        0.1615
     27 O           0.8338   -1.0797   -5.6157 O.3     1  LIG1       -0.4915
     28 C           0.4491   -1.6761   -6.8479 C.3     1  LIG1        0.0790
     29 C           0.7001   -1.5157   -3.3059 C.ar    1  LIG1        0.1617
     30 O           2.0217   -0.9708   -3.1251 O.3     1  LIG1       -0.4914
     31 C           2.5930   -0.0837   -2.0131 C.3     1  LIG1        0.0790
     32 C          -0.1334   -2.3176   -2.4329 C.ar    1  LIG1       -0.0131
     33 C          -2.6911    0.4214    0.7632 C.3     1  LIG1        0.0959
     34 O          -2.4361    0.8291   -0.5891 O.3     1  LIG1       -0.4645
     35 C          -3.5125    0.9351   -1.4124 C.2     1  LIG1        0.3040
     36 C          -3.2034    0.2521   -2.6950 C.3     1  LIG1        0.0332
     37 O          -4.6333    1.3162   -1.0896 O.2     1  LIG1       -0.2512
     38 C           0.0112    1.4907    3.1429 C.ar    1  LIG1       -0.0131
     39 H          -1.7002    1.5580    4.8002 H       1  LIG1        0.0660
     40 H          -1.5202    2.1019    6.3995 H       1  LIG1        0.0660
     41 H          -0.6809    0.5961    5.9132 H       1  LIG1        0.0660
     42 H           5.7765    5.0827    4.3394 H       1  LIG1        0.0342
     43 H           5.2595    3.5851    5.1246 H       1  LIG1        0.0342
     44 H           4.5845    5.1818    5.6568 H       1  LIG1        0.0342
     45 H           3.1213    3.2316    1.7622 H       1  LIG1        0.0656
     46 H           1.8385    1.9260    0.3153 H       1  LIG1        0.0621
     47 H           0.4777   -0.5683    1.4540 H       1  LIG1        0.0317
     48 H          -0.2796    0.6335    0.1654 H       1  LIG1        0.0317
     49 H          -1.2895   -4.1841    0.8984 H       1  LIG1        0.0700
     50 H          -0.5352   -3.0711    2.0348 H       1  LIG1        0.0700
     51 H           1.4045   -1.6123   -1.2870 H       1  LIG1        0.0342
     52 H           1.1865   -0.2055   -0.3807 H       1  LIG1        0.0342
     53 H          -0.2090   -1.0317   -0.7905 H       1  LIG1        0.0342
     54 H          -3.1812   -1.7083   -1.0477 H       1  LIG1        0.0317
     55 H          -2.8064   -3.3736   -0.9864 H       1  LIG1        0.0317
     56 H          -3.1070   -2.5539   -3.7393 H       1  LIG1        0.0621
     57 H          -1.7642   -1.9586   -5.5907 H       1  LIG1        0.0655
     58 H           1.1329   -2.4928   -7.0843 H       1  LIG1        0.0660
     59 H           0.4662   -0.8982   -7.6090 H       1  LIG1        0.0660
     60 H          -0.5505   -2.1038   -6.9008 H       1  LIG1        0.0660
     61 H           1.9414    0.7824   -1.7995 H       1  LIG1        0.0660
     62 H           3.6031    0.3349   -2.1506 H       1  LIG1        0.0660
     63 H           2.8616   -0.6429   -1.0867 H       1  LIG1        0.0660
     64 H           0.2205   -2.9330   -1.6300 H       1  LIG1        0.0658
     65 H          -2.6125    1.3017    1.4104 H       1  LIG1        0.0700
     66 H          -3.6802   -0.0223    0.8673 H       1  LIG1        0.0700
     67 H          -2.1165    0.1505   -2.7772 H       1  LIG1        0.0342
     68 H          -3.5732    0.7443   -3.5851 H       1  LIG1        0.0342
     69 H          -3.6968   -0.7219   -2.6429 H       1  LIG1        0.0342
     70 H          -0.8335    0.8790    3.4029 H       1  LIG1        0.0658
@<TRIPOS>BOND
     1     1     2    1
     2     2     3    1
     3     3     4   ar
     4     4     5    1
     5     5     6    1
     6     6     7    1
     7     6     8    2
     8     4     9   ar
     9     9    10   ar
    10    10    11   ar
    11    11    12    1
    12    15    17    1
    13    17    18    1
    14    18    19    1
    15    19    20    1
    16    19    21    2
    17    15    22    1
    18    22    23    1
    19    23    24   ar
    20    24    25   ar
    21    25    26   ar
    22    26    27    1
    23    27    28    1
    24    26    29   ar
    25    29    30    1
    26    30    31    1
    27    29    32   ar
    28    23    32   ar
    29    13    33    1
    30    33    34    1
    31    34    35    1
    32    35    36    1
    33    35    37    2
    34    11    38   ar
    35     3    38   ar
    36    13    14    1
    37    13    12    1
    38    15    16    1
    39    15    13    1
    40     1    39    1
    41     1    40    1
    42     1    41    1
    43     7    42    1
    44     7    43    1
    45     7    44    1
    46     9    45    1
    47    10    46    1
    48    12    47    1
    49    12    48    1
    50    17    49    1
    51    17    50    1
    52    20    51    1
    53    20    52    1
    54    20    53    1
    55    22    54    1
    56    22    55    1
    57    24    56    1
    58    25    57    1
    59    28    58    1
    60    28    59    1
    61    28    60    1
    62    31    61    1
    63    31    62    1
    64    31    63    1
    65    32    64    1
    66    33    65    1
    67    33    66    1
    68    36    67    1
    69    36    68    1
    70    36    69    1
    71    38    70    1
