REMARK  Name = NuBBE_1034
REMARK  10 active torsions:
REMARK  status: ('A' for Active; 'I' for Inactive)
REMARK    1  A    between atoms: O_1  and  C_2
REMARK    2  A    between atoms: C_5  and  C_38
REMARK    3  A    between atoms: C_8  and  C_9
REMARK    4  A    between atoms: C_8  and  C_10
REMARK    5  A    between atoms: C_13  and  C_37
REMARK    6  A    between atoms: C_18  and  C_35
REMARK    7  A    between atoms: C_21  and  C_32
REMARK    8  A    between atoms: C_23  and  C_30
REMARK    9  A    between atoms: C_25  and  C_26
REMARK   10  A    between atoms: C_32  and  O_33
REMARK                            x       y       z     vdW  Elec       q    Type
REMARK                         _______ _______ _______ _____ _____    ______ ____
ROOT
ATOM      1  C   LIG A   1      -2.292   0.246  -5.217  0.00  0.00    +0.120 C 
ATOM      2  C   LIG A   1      -1.916  -1.151  -4.738  0.00  0.00    +0.032 C 
ATOM      3  C   LIG A   1      -0.722  -1.135  -3.784  0.00  0.00    +0.010 C 
ATOM      4  C   LIG A   1      -0.897  -0.197  -2.541  0.00  0.00    -0.025 C 
ATOM      5  C   LIG A   1      -1.310   1.218  -3.086  0.00  0.00    +0.003 C 
ATOM      6  C   LIG A   1      -2.547   1.255  -4.060  0.00  0.00    -0.006 C 
ATOM      7  C   LIG A   1      -2.669   2.664  -4.705  0.00  0.00    +0.014 C 
ATOM      8  C   LIG A   1      -3.898   0.987  -3.367  0.00  0.00    +0.014 C 
ATOM      9  C   LIG A   1      -1.356   2.242  -1.942  0.00  0.00    +0.005 C 
ATOM     10  C   LIG A   1       0.030   2.445  -1.330  0.00  0.00    +0.008 C 
ATOM     11  C   LIG A   1       0.768   1.168  -0.829  0.00  0.00    -0.019 C 
ATOM     12  C   LIG A   1       0.514  -0.045  -1.816  0.00  0.00    +0.006 C 
ATOM     13  C   LIG A   1       1.114  -1.356  -1.273  0.00  0.00    +0.031 C 
ATOM     14  C   LIG A   1       1.160  -1.520   0.209  0.00  0.00    -0.026 C 
ATOM     15  C   LIG A   1       0.920  -0.585   1.146  0.00  0.00    -0.063 C 
ATOM     16  C   LIG A   1       0.486   0.847   0.749  0.00  0.00    -0.005 C 
ATOM     17  C   LIG A   1       1.245   1.874   1.659  0.00  0.00    +0.012 C 
ATOM     18  C   LIG A   1       1.185   1.591   3.164  0.00  0.00    +0.019 C 
ATOM     19  C   LIG A   1       1.690   0.175   3.527  0.00  0.00    +0.074 C 
ATOM     20  C   LIG A   1       0.964  -0.902   2.662  0.00  0.00    +0.035 C 
ATOM     21  C   LIG A   1       1.310  -2.368   3.119  0.00  0.00    -0.003 C 
ATOM     22  C   LIG A   1       0.996  -2.579   4.627  0.00  0.00    -0.011 C 
ATOM     23  C   LIG A   1      -0.512  -2.678   4.893  0.00  0.00    +0.008 C 
ATOM     24  C   LIG A   1       1.641  -1.495   5.502  0.00  0.00    +0.004 C 
ATOM     25  C   LIG A   1       1.343  -0.074   5.023  0.00  0.00    +0.019 C 
ATOM     26  C   LIG A   1       2.752  -2.834   2.846  0.00  0.00    +0.008 C 
ATOM     27  C   LIG A   1      -1.014   0.990   1.112  0.00  0.00    +0.016 C 
ATOM     28  C   LIG A   1       2.299   1.503  -1.001  0.00  0.00    +0.012 C 
ATOM     29  C   LIG A   1      -1.950  -0.849  -1.620  0.00  0.00    +0.012 C 
ENDROOT
BRANCH   1  30
ATOM     30  O   LIG A   1      -3.440   0.148  -6.059  0.00  0.00    -0.391 OA
ATOM     31  H   LIG A   1      -3.220  -0.457  -6.788  0.00  0.00    +0.210 HD
ENDBRANCH   1  30
BRANCH  19  32
ATOM     32  C   LIG A   1       3.207   0.191   3.300  0.00  0.00    +0.311 C 
ATOM     33  O   LIG A   1       3.801  -0.010   2.253  0.00  0.00    -0.250 OA
BRANCH  32  34
ATOM     34  O   LIG A   1       3.922   0.558   4.383  0.00  0.00    -0.480 OA
ATOM     35  H   LIG A   1       4.846   0.563   4.054  0.00  0.00    +0.295 HD
ENDBRANCH  32  34
ENDBRANCH  19  32
TORSDOF 3
