@<TRIPOS>MOLECULE
NuBBE_1953
 46 47 0 0 0
SMALL
GASTEIGER

@<TRIPOS>ATOM
      1 O          -1.5282   -0.7440    0.7786 O.3     1  LIG1       -0.4940
      2 C          -1.9423   -2.0798    1.0105 C.3     1  LIG1        0.0788
      3 C          -0.2172   -0.3025    0.8086 C.ar    1  LIG1        0.1377
      4 C           0.9195   -1.2583    0.7891 C.ar    1  LIG1        0.0442
      5 C           2.1349   -0.8670    0.1946 C.ar    1  LIG1        0.0972
      6 C           3.0546   -1.8842   -0.1809 C.ar    1  LIG1        0.1442
      7 O           4.1943   -1.5558   -0.8770 O.3     1  LIG1       -0.4930
      8 C           5.2913   -2.4550   -0.6978 C.3     1  LIG1        0.0789
      9 C           2.7644   -3.2295    0.1031 C.ar    1  LIG1       -0.0179
     10 C           1.6949   -3.5576    0.9065 C.ar    1  LIG1       -0.0575
     11 C           0.8336   -2.5546    1.3027 C.ar    1  LIG1       -0.0489
     12 N           2.3942    0.5453    0.1573 N.ar    1  LIG1       -0.3077
     13 C           1.4552    1.4799    0.6225 C.ar    1  LIG1        0.2584
     14 O           1.7384    2.6228    0.9028 O.2     1  LIG1       -0.2673
     15 C           0.0181    1.0170    0.6846 C.ar    1  LIG1        0.0620
     16 C          -1.0211    2.1462    0.6938 C.3     1  LIG1        0.0112
     17 C          -2.1127    2.3086   -0.4222 C.3     1  LIG1        0.0831
     18 C          -3.1952    1.2311   -0.5181 C.2     1  LIG1       -0.0511
     19 C          -4.3632    1.2706    0.1520 C.2     1  LIG1       -0.0973
     20 C          -2.9837    0.1185   -1.5160 C.3     1  LIG1       -0.0416
     21 O          -2.7096    3.6120   -0.1531 O.3     1  LIG1       -0.3752
     22 C          -3.7355    4.0363   -1.0442 C.3     1  LIG1        0.0372
     23 C           3.7392    1.0467   -0.0878 C.3     1  LIG1        0.0154
     24 H          -3.0066   -2.1835    0.7880 H       1  LIG1        0.0660
     25 H          -1.8250   -2.2868    2.0761 H       1  LIG1        0.0660
     26 H          -1.4336   -2.8129    0.3712 H       1  LIG1        0.0660
     27 H           6.1540   -2.0552   -1.2353 H       1  LIG1        0.0660
     28 H           5.0878   -3.4405   -1.1297 H       1  LIG1        0.0660
     29 H           5.5540   -2.5415    0.3632 H       1  LIG1        0.0660
     30 H           3.3767   -4.0515   -0.2467 H       1  LIG1        0.0655
     31 H           1.5068   -4.5845    1.2045 H       1  LIG1        0.0619
     32 H           0.0626   -2.8408    2.0035 H       1  LIG1        0.0625
     33 H          -0.4745    3.1015    0.6622 H       1  LIG1        0.0344
     34 H          -1.4960    2.1910    1.6846 H       1  LIG1        0.0344
     35 H          -1.6001    2.3980   -1.3886 H       1  LIG1        0.0646
     36 H          -4.6037    2.0762    0.8390 H       1  LIG1        0.0535
     37 H          -5.1354    0.5270   -0.0166 H       1  LIG1        0.0535
     38 H          -1.9786   -0.3053   -1.4753 H       1  LIG1        0.0275
     39 H          -3.1405    0.4776   -2.5353 H       1  LIG1        0.0275
     40 H          -3.6848   -0.7065   -1.3342 H       1  LIG1        0.0275
     41 H          -3.7331    5.1291   -1.0814 H       1  LIG1        0.0524
     42 H          -4.7161    3.7516   -0.6493 H       1  LIG1        0.0524
     43 H          -3.6091    3.6399   -2.0548 H       1  LIG1        0.0524
     44 H           3.9287    1.0348   -1.1652 H       1  LIG1        0.0457
     45 H           4.4829    0.4569    0.4566 H       1  LIG1        0.0457
     46 H           3.8597    2.0785    0.2539 H       1  LIG1        0.0457
@<TRIPOS>BOND
     1     1     2    1
     2     1     3    1
     3     3     4   ar
     4     4     5   ar
     5     5     6   ar
     6     6     7    1
     7     7     8    1
     8     6     9   ar
     9     9    10   ar
    10    10    11   ar
    11     4    11   ar
    12     5    12   ar
    13    12    13   ar
    14    13    14    2
    15    13    15   ar
    16     3    15   ar
    17    15    16    1
    18    16    17    1
    19    17    18    1
    20    18    19    2
    21    18    20    1
    22    17    21    1
    23    21    22    1
    24    12    23    1
    25     2    24    1
    26     2    25    1
    27     2    26    1
    28     8    27    1
    29     8    28    1
    30     8    29    1
    31     9    30    1
    32    10    31    1
    33    11    32    1
    34    16    33    1
    35    16    34    1
    36    17    35    1
    37    19    36    1
    38    19    37    1
    39    20    38    1
    40    20    39    1
    41    20    40    1
    42    22    41    1
    43    22    42    1
    44    22    43    1
    45    23    44    1
    46    23    45    1
    47    23    46    1
