@<TRIPOS>MOLECULE
NuBBE_1878
 52 54 0 0 0
SMALL
GASTEIGER

@<TRIPOS>ATOM
      1 O          -3.6257   -2.2116   -0.4027 O.2     1  LIG1       -0.2830
      2 C          -2.4998   -1.6916   -0.1327 C.ar    1  LIG1        0.2382
      3 C          -1.3575   -2.5376   -0.3247 C.ar    1  LIG1        0.1128
      4 C          -1.4503   -3.8958   -0.7063 C.ar    1  LIG1        0.1769
      5 C          -0.2973   -4.6792   -0.7517 C.ar    1  LIG1        0.2043
      6 O          -0.2672   -6.0264   -1.0394 O.3     1  LIG1       -0.4885
      7 C          -1.2924   -6.5265   -1.8920 C.3     1  LIG1        0.0791
      8 C           0.9588   -4.0856   -0.4640 C.ar    1  LIG1        0.1687
      9 C           1.0272   -2.7256   -0.1450 C.ar    1  LIG1        0.0270
     10 C          -0.1200   -1.9512   -0.0843 C.ar    1  LIG1        0.1468
     11 O           0.0323   -0.6333    0.1968 O.2     1  LIG1       -0.4505
     12 C          -1.0619    0.1871    0.4522 C.ar    1  LIG1        0.1844
     13 C          -0.6216    1.6308    0.7382 C.ar    1  LIG1        0.0665
     14 C          -1.5955    2.5882    1.0530 C.ar    1  LIG1       -0.0437
     15 C          -1.3020    3.9441    1.1848 C.ar    1  LIG1       -0.0154
     16 C          -0.0188    4.4408    0.9502 C.ar    1  LIG1        0.1652
     17 C           1.0301    3.5450    0.7116 C.ar    1  LIG1        0.2042
     18 O           2.2554    3.9825    0.2552 O.3     1  LIG1       -0.4885
     19 C           3.1190    4.7535    1.0971 C.3     1  LIG1        0.0791
     20 C           0.7399    2.1335    0.6415 C.ar    1  LIG1        0.1759
     21 O           1.7262    1.1743    0.4664 O.3     1  LIG1       -0.4906
     22 C           3.0958    1.5626    0.4999 C.3     1  LIG1        0.0790
     23 O           0.0254    5.8048    0.9854 O.3     1  LIG1       -0.4913
     24 C           0.8064    6.4768    0.0063 C.3     1  LIG1        0.0790
     25 C          -2.3516   -0.3057    0.3500 C.ar    1  LIG1        0.2108
     26 O          -3.4505    0.4625    0.6974 O.3     1  LIG1       -0.4883
     27 C          -4.7375    0.0858    0.1910 C.3     1  LIG1        0.0791
     28 O           2.0541   -4.9102   -0.4473 O.3     1  LIG1       -0.4912
     29 C           3.3105   -4.3373   -0.7909 C.3     1  LIG1        0.0790
     30 O          -2.6790   -4.4368   -0.9708 O.3     1  LIG1       -0.5027
     31 H          -0.9943   -7.5271   -2.2183 H       1  LIG1        0.0660
     32 H          -1.4096   -5.9070   -2.7887 H       1  LIG1        0.0660
     33 H          -2.2398   -6.6495   -1.3577 H       1  LIG1        0.0660
     34 H           1.9596   -2.2282    0.1035 H       1  LIG1        0.0692
     35 H          -2.6412    2.3368    1.1827 H       1  LIG1        0.0627
     36 H          -2.1244    4.6262    1.3988 H       1  LIG1        0.0655
     37 H           4.1051    4.7185    0.6123 H       1  LIG1        0.0660
     38 H           3.2190    4.3543    2.1107 H       1  LIG1        0.0660
     39 H           2.8679    5.8136    1.1407 H       1  LIG1        0.0660
     40 H           3.3744    2.0253   -0.4541 H       1  LIG1        0.0660
     41 H           3.7223    0.6732    0.6259 H       1  LIG1        0.0660
     42 H           3.3267    2.2010    1.3582 H       1  LIG1        0.0660
     43 H           0.1545    7.0141   -0.6889 H       1  LIG1        0.0660
     44 H           1.4596    5.8494   -0.6027 H       1  LIG1        0.0660
     45 H           1.4105    7.2127    0.5452 H       1  LIG1        0.0660
     46 H          -4.7232    0.0474   -0.9025 H       1  LIG1        0.0660
     47 H          -5.4524    0.8571    0.4931 H       1  LIG1        0.0660
     48 H          -5.1015   -0.8492    0.6296 H       1  LIG1        0.0660
     49 H           4.0904   -5.0108   -0.4230 H       1  LIG1        0.0660
     50 H           3.5093   -3.3657   -0.3333 H       1  LIG1        0.0660
     51 H           3.3981   -4.2636   -1.8790 H       1  LIG1        0.0660
     52 H          -3.3635   -3.7464   -0.8771 H       1  LIG1        0.2923
@<TRIPOS>BOND
     1     1     2    2
     2     2     3   ar
     3     3     4   ar
     4     4     5   ar
     5     5     6    1
     6     6     7    1
     7     5     8   ar
     8     8     9   ar
     9     9    10   ar
    10     3    10   ar
    11    10    11   ar
    12    11    12   ar
    13    12    13    1
    14    13    14   ar
    15    14    15   ar
    16    15    16   ar
    17    16    17   ar
    18    17    18    1
    19    18    19    1
    20    17    20   ar
    21    13    20   ar
    22    20    21    1
    23    21    22    1
    24    16    23    1
    25    23    24    1
    26    12    25   ar
    27     2    25   ar
    28    25    26    1
    29    26    27    1
    30     8    28    1
    31    28    29    1
    32     4    30    1
    33     7    31    1
    34     7    32    1
    35     7    33    1
    36     9    34    1
    37    14    35    1
    38    15    36    1
    39    19    37    1
    40    19    38    1
    41    19    39    1
    42    22    40    1
    43    22    41    1
    44    22    42    1
    45    24    43    1
    46    24    44    1
    47    24    45    1
    48    27    46    1
    49    27    47    1
    50    27    48    1
    51    29    49    1
    52    29    50    1
    53    29    51    1
    54    30    52    1
