REMARK  Name = NuBBE_1683
REMARK  17 active torsions:
REMARK  status: ('A' for Active; 'I' for Inactive)
REMARK    1  A    between atoms: C_1  and  C_2
REMARK    2  A    between atoms: C_2  and  C_3
REMARK    3  A    between atoms: C_3  and  C_4
REMARK    4  A    between atoms: C_4  and  C_5
REMARK    5  A    between atoms: C_5  and  C_6
REMARK    6  A    between atoms: C_6  and  C_7
REMARK    7  A    between atoms: C_8  and  C_9
REMARK    8  A    between atoms: C_9  and  C_10
REMARK    9  A    between atoms: C_10  and  C_11
REMARK   10  A    between atoms: C_11  and  C_12
REMARK   11  A    between atoms: C_12  and  C_13
REMARK   12  A    between atoms: C_13  and  C_14
REMARK   13  A    between atoms: C_14  and  C_15
REMARK   14  A    between atoms: C_15  and  C_16
REMARK   15  A    between atoms: C_18  and  O_19
REMARK   16  A    between atoms: C_20  and  C_21
REMARK   17  A    between atoms: C_22  and  O_23
REMARK                            x       y       z     vdW  Elec       q    Type
REMARK                         _______ _______ _______ _____ _____    ______ ____
ROOT
ATOM      1  C   LIG A   1       1.693  -1.810   2.656  0.00  0.00    +0.000 C 
ENDROOT
BRANCH   1   2
ATOM      2  C   LIG A   1       1.837  -0.685   1.619  0.00  0.00    +0.000 C 
BRANCH   2   3
ATOM      3  C   LIG A   1       0.879   0.495   1.811  0.00  0.00    +0.000 C 
BRANCH   3   4
ATOM      4  C   LIG A   1       1.039   1.634   0.818  0.00  0.00    +0.004 C 
BRANCH   4   5
ATOM      5  C   LIG A   1       2.366   2.324   1.020  0.00  0.00    +0.027 C 
BRANCH   5   7
ATOM      6  C   LIG A   1       3.083   3.488  -1.095  0.00  0.00    -0.031 C 
ATOM      7  C   LIG A   1       2.554   3.513   0.123  0.00  0.00    -0.031 C 
BRANCH   6   8
ATOM      8  C   LIG A   1       3.557   2.280  -1.881  0.00  0.00    +0.027 C 
BRANCH   8   9
ATOM      9  C   LIG A   1       2.479   1.691  -2.800  0.00  0.00    +0.004 C 
BRANCH   9  10
ATOM     10  C   LIG A   1       1.969   2.685  -3.848  0.00  0.00    +0.000 C 
BRANCH  10  11
ATOM     11  C   LIG A   1       0.951   2.047  -4.799  0.00  0.00    -0.000 C 
BRANCH  11  13
ATOM     12  C   LIG A   1       1.426   3.550  -6.823  0.00  0.00    +0.004 C 
ATOM     13  C   LIG A   1       0.393   3.034  -5.831  0.00  0.00    -0.003 C 
ENDBRANCH  11  13
ENDBRANCH  10  11
ENDBRANCH   9  10
ENDBRANCH   8   9
ENDBRANCH   6   8
ENDBRANCH   5   7
ENDBRANCH   4   5
ENDBRANCH   3   4
ENDBRANCH   2   3
ENDBRANCH   1   2
BRANCH   1  14
ATOM     14  C   LIG A   1       0.402  -2.633   2.588  0.00  0.00    +0.005 C 
BRANCH  14  15
ATOM     15  C   LIG A   1      -0.845  -1.863   3.020  0.00  0.00    +0.035 C 
BRANCH  15  16
ATOM     16  C   LIG A   1      -2.155  -2.587   2.988  0.00  0.00    -0.041 A 
ATOM     17  C   LIG A   1      -3.167  -2.145   3.848  0.00  0.00    +0.049 A 
ATOM     18  C   LIG A   1      -4.424  -2.735   3.803  0.00  0.00    +0.123 A 
ATOM     19  C   LIG A   1      -4.700  -3.764   2.898  0.00  0.00    +0.032 A 
ATOM     20  C   LIG A   1      -6.052  -4.404   2.857  0.00  0.00    +0.051 C 
ATOM     21  C   LIG A   1      -3.704  -4.137   1.989  0.00  0.00    +0.123 A 
ATOM     22  C   LIG A   1      -2.446  -3.549   2.019  0.00  0.00    +0.049 A 
BRANCH  18  23
ATOM     23  O   LIG A   1      -5.402  -2.300   4.652  0.00  0.00    -0.506 OA
ATOM     24  H   LIG A   1      -5.059  -1.552   5.168  0.00  0.00    +0.292 HD
ENDBRANCH  18  23
BRANCH  21  25
ATOM     25  O   LIG A   1      -3.971  -5.096   1.051  0.00  0.00    -0.506 OA
ATOM     26  H   LIG A   1      -3.173  -5.235   0.515  0.00  0.00    +0.292 HD
ENDBRANCH  21  25
ENDBRANCH  15  16
ENDBRANCH  14  15
ENDBRANCH   1  14
TORSDOF 15
