REMARK  Name = NuBBE_2498
REMARK  6 active torsions:
REMARK  status: ('A' for Active; 'I' for Inactive)
REMARK    1  A    between atoms: C_1  and  C_2
REMARK    2  A    between atoms: C_2  and  C_3
REMARK    3  A    between atoms: C_4  and  C_5
REMARK    4  A    between atoms: C_14  and  C_15
REMARK    5  A    between atoms: C_14  and  C_16
REMARK    6  A    between atoms: C_20  and  C_21
REMARK                            x       y       z     vdW  Elec       q    Type
REMARK                         _______ _______ _______ _____ _____    ______ ____
ROOT
ATOM      1  C   LIG A   1       0.306   2.712   0.063  0.00  0.00    -0.041 A 
ATOM      2  C   LIG A   1       0.034   3.291   1.326  0.00  0.00    -0.047 A 
ATOM      3  C   LIG A   1       0.108   4.775   1.572  0.00  0.00    +0.044 C 
ATOM      4  C   LIG A   1      -0.347   2.467   2.387  0.00  0.00    +0.004 A 
ATOM      5  C   LIG A   1      -0.462   1.091   2.217  0.00  0.00    +0.005 A 
ATOM      6  C   LIG A   1      -0.210   0.478   0.977  0.00  0.00    -0.037 A 
ATOM      7  C   LIG A   1       0.203   1.296  -0.105  0.00  0.00    -0.040 A 
ATOM      8  C   LIG A   1       0.467   0.689  -1.469  0.00  0.00    +0.036 C 
ATOM      9  C   LIG A   1       0.610  -0.827  -1.498  0.00  0.00    +0.010 C 
ATOM     10  C   LIG A   1      -0.490  -1.474  -0.654  0.00  0.00    +0.009 C 
ATOM     11  C   LIG A   1      -0.675  -3.014  -0.917  0.00  0.00    -0.013 C 
ATOM     12  C   LIG A   1      -1.466  -3.200  -2.236  0.00  0.00    +0.015 C 
ATOM     13  C   LIG A   1       0.649  -3.788  -1.077  0.00  0.00    +0.015 C 
ATOM     14  C   LIG A   1      -1.502  -3.662   0.179  0.00  0.00    -0.025 C 
ATOM     15  C   LIG A   1      -1.934  -3.025   1.276  0.00  0.00    -0.030 C 
ATOM     16  C   LIG A   1      -1.596  -1.597   1.596  0.00  0.00    +0.038 C 
ATOM     17  C   LIG A   1      -0.334  -1.061   0.851  0.00  0.00    +0.000 C 
ATOM     18  C   LIG A   1       0.927  -1.650   1.535  0.00  0.00    +0.016 C 
ENDROOT
BRANCH   1  20
ATOM     19  C   LIG A   1       2.236   3.801  -1.159  0.00  0.00    +0.009 C 
ATOM     20  C   LIG A   1       0.726   3.606  -1.094  0.00  0.00    +0.032 C 
ENDBRANCH   1  20
TORSDOF 1
