REMARK  Name = NuBBE_474
REMARK  6 active torsions:
REMARK  status: ('A' for Active; 'I' for Inactive)
REMARK    1  A    between atoms: C_2  and  C_3
REMARK    2  A    between atoms: C_2  and  O_20
REMARK    3  A    between atoms: C_6  and  O_19
REMARK    4  A    between atoms: C_10  and  O_16
REMARK    5  A    between atoms: C_13  and  C_15
REMARK    6  A    between atoms: O_20  and  C_21
REMARK                            x       y       z     vdW  Elec       q    Type
REMARK                         _______ _______ _______ _____ _____    ______ ____
ROOT
ATOM      1  C   LIG A   1      -0.278   0.172   1.274  0.00  0.00    +0.077 C 
ATOM      2  C   LIG A   1      -0.464   1.503   1.229  0.00  0.00    +0.201 C 
ATOM      3  O   LIG A   1       0.268   2.391   0.482  0.00  0.00    -0.470 OA
ATOM      4  C   LIG A   1       1.501   1.864  -0.008  0.00  0.00    +0.308 C 
ATOM      5  C   LIG A   1       1.361   0.470  -0.618  0.00  0.00    +0.071 C 
ATOM      6  C   LIG A   1       0.787  -0.503   0.436  0.00  0.00    +0.067 C 
ATOM      7  C   LIG A   1       0.287  -1.684  -0.422  0.00  0.00    +0.123 C 
ATOM      8  C   LIG A   1       0.097  -1.166  -1.851  0.00  0.00    +0.035 C 
ATOM      9  C   LIG A   1       0.374   0.340  -1.796  0.00  0.00    -0.002 C 
ATOM     10  C   LIG A   1       0.893   0.858  -3.131  0.00  0.00    +0.008 C 
ENDROOT
BRANCH   1  12
ATOM     11  O   LIG A   1      -0.800  -1.818   2.484  0.00  0.00    -0.245 OA
ATOM     12  C   LIG A   1      -1.092  -0.668   2.192  0.00  0.00    +0.338 C 
BRANCH  12  13
ATOM     13  O   LIG A   1      -2.195  -0.003   2.614  0.00  0.00    -0.465 OA
ATOM     14  C   LIG A   1      -3.038  -0.729   3.511  0.00  0.00    +0.280 C 
ENDBRANCH  12  13
ENDBRANCH   1  12
BRANCH   7  15
ATOM     15  O   LIG A   1       1.293  -2.696  -0.437  0.00  0.00    -0.391 OA
ATOM     16  H   LIG A   1       0.916  -3.475  -0.882  0.00  0.00    +0.210 HD
ENDBRANCH   7  15
BRANCH   4  17
ATOM     17  O   LIG A   1       2.026   2.781  -0.951  0.00  0.00    -0.357 OA
ATOM     18  H   LIG A   1       1.238   3.213  -1.323  0.00  0.00    +0.213 HD
ENDBRANCH   4  17
TORSDOF 4
