@<TRIPOS>MOLECULE
NuBBE_1291
 70 74 0 0 0
SMALL
GASTEIGER

@<TRIPOS>ATOM
      1 C          -4.8771    0.5915   -1.5345 C.3     1  LIG1       -0.0320
      2 C          -3.3638    0.7935   -1.7171 C.3     1  LIG1        0.0889
      3 C          -2.5734   -0.0177   -0.6155 C.3     1  LIG1        0.0434
      4 C          -1.6866   -1.2526   -1.1161 C.3     1  LIG1        0.0435
      5 C          -2.2361   -2.5216   -0.3684 C.3     1  LIG1       -0.0517
      6 C          -0.1091   -1.1608   -0.7707 C.3     1  LIG1       -0.0064
      7 H          -0.0665   -1.5889    0.2415 H       1  LIG1        0.0325
      8 C           0.8366   -2.1344   -1.5914 C.3     1  LIG1        0.0495
      9 C           1.0723   -1.8367   -3.0848 C.2     1  LIG1        0.3071
     10 O           2.2076   -2.5175   -3.4823 O.3     1  LIG1       -0.4679
     11 C           2.5816   -2.3079   -4.8547 C.3     1  LIG1        0.0817
     12 O           0.4269   -1.1107   -3.8022 O.2     1  LIG1       -0.2509
     13 C           0.5076    0.2673   -0.5602 C.3     1  LIG1        0.0255
     14 C           1.3741    0.5349    0.6569 C.2     1  LIG1       -0.0328
     15 C           2.3276    0.0044    1.4395 C.2     1  LIG1       -0.0628
     16 C           2.6807   -1.4042    1.7367 C.3     1  LIG1       -0.0429
     17 C           3.2336    1.1617    1.9069 C.3     1  LIG1        0.0109
     18 H           4.2154    1.0271    1.4264 H       1  LIG1        0.0396
     19 C           3.4693    1.3215    3.3712 C.ar    1  LIG1       -0.0025
     20 C           4.6191    1.8433    3.9411 C.ar    1  LIG1        0.0954
     21 O           4.5115    1.9027    5.2905 O.2     1  LIG1       -0.4707
     22 C           3.2838    1.4207    5.6041 C.ar    1  LIG1        0.0920
     23 C           2.6056    1.0499    4.4664 C.ar    1  LIG1       -0.0202
     24 C           2.5458    2.4040    1.2739 C.3     1  LIG1       -0.0121
     25 C           1.1141    1.9196    1.1574 C.3     1  LIG1        0.0819
     26 O           0.2098    2.4956    0.2436 O.3     1  LIG1       -0.3645
     27 C           1.3711    0.7447   -1.7655 C.3     1  LIG1       -0.0530
     28 C          -0.5177    1.3881   -0.3619 C.3     1  LIG1        0.1060
     29 H          -0.8112    1.7846   -1.3381 H       1  LIG1        0.0642
     30 C          -1.8058    0.9365    0.3501 C.3     1  LIG1        0.1365
     31 H          -2.4146    1.8211    0.5552 H       1  LIG1        0.0764
     32 O          -1.6383    0.2098    1.5981 O.3     1  LIG1       -0.4585
     33 C          -2.1743    0.8327    2.6903 C.2     1  LIG1        0.3043
     34 C          -2.5754   -0.1790    3.7550 C.3     1  LIG1        0.0332
     35 O          -2.3746    2.0103    2.8188 O.2     1  LIG1       -0.2512
     36 O          -3.1347    2.1932   -1.5583 O.3     1  LIG1       -0.3844
     37 C          -3.0141    0.4935   -3.1331 C.2     1  LIG1       -0.0494
     38 C          -2.3781   -0.6003   -3.5468 C.2     1  LIG1       -0.0199
     39 C          -1.9531   -1.6249   -2.5849 C.2     1  LIG1        0.1625
     40 O          -1.8068   -2.7734   -3.0102 O.2     1  LIG1       -0.2921
     41 H          -5.1652   -0.4588   -1.6499 H       1  LIG1        0.0260
     42 H          -5.4479    1.1866   -2.2583 H       1  LIG1        0.0260
     43 H          -5.1962    0.9354   -0.5432 H       1  LIG1        0.0260
     44 H          -3.3557   -0.4653    0.0175 H       1  LIG1        0.0378
     45 H          -2.3022   -2.3662    0.7128 H       1  LIG1        0.0239
     46 H          -1.6002   -3.3996   -0.5349 H       1  LIG1        0.0239
     47 H          -3.2386   -2.7883   -0.7317 H       1  LIG1        0.0239
     48 H           0.4777   -3.1689   -1.4858 H       1  LIG1        0.0381
     49 H           1.8249   -2.0995   -1.1037 H       1  LIG1        0.0381
     50 H           2.9622   -3.2389   -5.2686 H       1  LIG1        0.0661
     51 H           3.3681   -1.5461   -4.9124 H       1  LIG1        0.0661
     52 H           1.7348   -1.9873   -5.4869 H       1  LIG1        0.0661
     53 H           2.0572   -2.1113    1.1880 H       1  LIG1        0.0275
     54 H           2.4854   -1.5852    2.8024 H       1  LIG1        0.0275
     55 H           3.7330   -1.6214    1.5451 H       1  LIG1        0.0275
     56 H           5.5524    2.2142    3.5361 H       1  LIG1        0.1032
     57 H           3.0444    1.4113    6.6577 H       1  LIG1        0.1029
     58 H           1.6060    0.6424    4.4292 H       1  LIG1        0.0652
     59 H           2.9798    2.6179    0.2860 H       1  LIG1        0.0302
     60 H           2.6456    3.3209    1.8640 H       1  LIG1        0.0302
     61 H           0.6205    1.8976    2.1384 H       1  LIG1        0.0644
     62 H           1.7218    1.7785   -1.6583 H       1  LIG1        0.0239
     63 H           0.7765    0.7568   -2.6830 H       1  LIG1        0.0239
     64 H           2.2695    0.1364   -1.9049 H       1  LIG1        0.0239
     65 H          -2.9912   -1.0783    3.2928 H       1  LIG1        0.0342
     66 H          -3.3735    0.2543    4.3705 H       1  LIG1        0.0342
     67 H          -1.7297   -0.4340    4.3953 H       1  LIG1        0.0342
     68 H          -3.6085    2.6852   -2.2502 H       1  LIG1        0.2106
     69 H          -3.3417    1.1950   -3.8975 H       1  LIG1        0.0601
     70 H          -2.1920   -0.8051   -4.5935 H       1  LIG1        0.0650
@<TRIPOS>BOND
     1     2     3    1
     2     3     4    1
     3     4     5    1
     4     4     6    1
     5     6     7    1
     6     6     8    1
     7     8     9    1
     8     9    10    1
     9    10    11    1
    10     9    12    2
    11     6    13    1
    12    13    14    1
    13    14    15    2
    14    15    16    1
    15    15    17    1
    16    17    18    1
    17    17    19    1
    18    19    20   ar
    19    20    21   ar
    20    21    22   ar
    21    22    23   ar
    22    19    23   ar
    23    17    24    1
    24    24    25    1
    25    14    25    1
    26    25    26    1
    27    13    27    1
    28    13    28    1
    29    28    29    1
    30    26    28    1
    31    28    30    1
    32    30    31    1
    33     3    30    1
    34    30    32    1
    35    32    33    1
    36    33    34    1
    37    33    35    2
    38     2    37    1
    39    37    38    2
    40    38    39    1
    41     4    39    1
    42    39    40    2
    43     2    36    1
    44     2     1    1
    45     1    41    1
    46     1    42    1
    47     1    43    1
    48     3    44    1
    49     5    45    1
    50     5    46    1
    51     5    47    1
    52     8    48    1
    53     8    49    1
    54    11    50    1
    55    11    51    1
    56    11    52    1
    57    16    53    1
    58    16    54    1
    59    16    55    1
    60    20    56    1
    61    22    57    1
    62    23    58    1
    63    24    59    1
    64    24    60    1
    65    25    61    1
    66    27    62    1
    67    27    63    1
    68    27    64    1
    69    34    65    1
    70    34    66    1
    71    34    67    1
    72    36    68    1
    73    37    69    1
    74    38    70    1
