@<TRIPOS>MOLECULE
NuBBE_330
 63 64 0 0 0
SMALL
GASTEIGER

@<TRIPOS>ATOM
      1 O          -3.2472   -3.0119    3.2951 O.2     1  LIG1       -0.2452
      2 C          -3.2285   -2.6903    2.1339 C.2     1  LIG1        0.3381
      3 O          -4.1346   -3.0560    1.1981 O.3     1  LIG1       -0.4646
      4 C          -4.5519   -4.4142    1.2775 C.3     1  LIG1        0.0820
      5 C          -2.1493   -1.9074    1.4716 C.2     1  LIG1        0.0749
      6 C          -1.0104   -1.8048    2.1830 C.2     1  LIG1        0.0981
      7 O           0.0848   -1.0529    1.8472 O.2     1  LIG1       -0.4701
      8 C          -0.0356   -0.1384    0.7479 C.3     1  LIG1        0.2102
      9 H           0.3813    0.8148    1.0847 H       1  LIG1        0.1060
     10 O           0.7303   -0.5654   -0.3948 O.3     1  LIG1       -0.3094
     11 C           2.1471   -0.6174   -0.1248 C.3     1  LIG1        0.1918
     12 H           2.3095   -1.3767    0.6488 H       1  LIG1        0.0939
     13 C           2.8961   -1.0333   -1.4261 C.3     1  LIG1        0.1342
     14 H           2.4327   -0.5492   -2.2941 H       1  LIG1        0.0671
     15 O           2.7748   -2.4521   -1.6565 O.3     1  LIG1       -0.3841
     16 O           2.5849    0.6622    0.3530 O.3     1  LIG1       -0.3404
     17 C           3.9988    0.7286    0.5699 C.3     1  LIG1        0.1130
     18 H           4.3243   -0.1155    1.1950 H       1  LIG1        0.0647
     19 C           4.3087    2.0172    1.3369 C.3     1  LIG1        0.0730
     20 O           5.7050    2.1423    1.5828 O.3     1  LIG1       -0.3924
     21 C           4.6892    0.6705   -0.7985 C.3     1  LIG1        0.1119
     22 H           4.2979    1.4495   -1.4636 H       1  LIG1        0.0647
     23 O           6.1102    0.8276   -0.7655 O.3     1  LIG1       -0.3865
     24 C           4.3960   -0.7065   -1.3873 C.3     1  LIG1        0.1141
     25 H           4.9336   -1.4742   -0.8154 H       1  LIG1        0.0648
     26 O           4.9397   -0.7930   -2.7170 O.3     1  LIG1       -0.3864
     27 C          -1.5072    0.1276    0.3075 C.3     1  LIG1        0.0659
     28 C          -2.1963   -1.2482    0.1070 C.3     1  LIG1        0.0158
     29 H          -1.5142   -1.8621   -0.5049 H       1  LIG1        0.0363
     30 C          -3.4888   -1.2283   -0.7540 C.3     1  LIG1        0.0526
     31 C          -3.2537   -0.7863   -2.1901 C.2     1  LIG1        0.3074
     32 O          -2.7938    0.4856   -2.2340 O.3     1  LIG1       -0.4679
     33 C          -1.9679    0.8401   -3.3482 C.3     1  LIG1        0.0817
     34 O          -3.4444   -1.4951   -3.1626 O.2     1  LIG1       -0.2508
     35 C          -2.1858    1.1258    1.3018 C.3     1  LIG1        0.1093
     36 H          -2.0269    0.7474    2.3169 H       1  LIG1        0.0736
     37 O          -1.4621    2.3937    1.3017 O.3     1  LIG1       -0.4613
     38 C          -1.3557    3.1341    0.1622 C.2     1  LIG1        0.3042
     39 C          -0.2277    4.1263    0.3246 C.3     1  LIG1        0.0332
     40 O          -1.9651    2.9674   -0.8677 O.2     1  LIG1       -0.2512
     41 C          -3.6960    1.3565    1.2147 C.3     1  LIG1       -0.0272
     42 H          -1.3986    0.6251   -0.6465 H       1  LIG1        0.0403
     43 H          -5.1443   -4.6110    0.3793 H       1  LIG1        0.0661
     44 H          -5.1632   -4.6117    2.1606 H       1  LIG1        0.0661
     45 H          -3.6745   -5.0687    1.2484 H       1  LIG1        0.0661
     46 H          -0.8261   -2.2911    3.1362 H       1  LIG1        0.1029
     47 H           3.4067   -2.6534   -2.3759 H       1  LIG1        0.2101
     48 H           3.7734    2.0181    2.2939 H       1  LIG1        0.0584
     49 H           3.9769    2.8940    0.7729 H       1  LIG1        0.0584
     50 H           5.8229    2.8951    2.1909 H       1  LIG1        0.2095
     51 H           6.2985    1.6335   -0.2399 H       1  LIG1        0.2100
     52 H           5.8423   -0.4174   -2.6432 H       1  LIG1        0.2100
     53 H          -3.8659   -2.2513   -0.8683 H       1  LIG1        0.0384
     54 H          -4.3066   -0.6510   -0.3261 H       1  LIG1        0.0384
     55 H          -1.8511    0.0339   -4.0763 H       1  LIG1        0.0661
     56 H          -0.9729    1.0925   -2.9612 H       1  LIG1        0.0661
     57 H          -2.3824    1.7288   -3.8271 H       1  LIG1        0.0661
     58 H          -0.4672    5.0354   -0.2315 H       1  LIG1        0.0342
     59 H           0.7009    3.6892   -0.0635 H       1  LIG1        0.0342
     60 H          -0.0889    4.3941    1.3746 H       1  LIG1        0.0342
     61 H          -4.2562    0.4414    1.4325 H       1  LIG1        0.0265
     62 H          -4.0150    1.7481    0.2450 H       1  LIG1        0.0265
     63 H          -4.0103    2.0885    1.9686 H       1  LIG1        0.0265
@<TRIPOS>BOND
     1     1     2    2
     2     2     3    1
     3     3     4    1
     4     2     5    1
     5     5     6    2
     6     6     7    1
     7     7     8    1
     8    11    13    1
     9    11    16    1
    10    16    17    1
    11    17    18    1
    12    17    19    1
    13    19    20    1
    14    17    21    1
    15    21    24    1
    16    24    25    1
    17    13    24    1
    18    24    26    1
    19     8    27    1
    20    27    28    1
    21     5    28    1
    22    30    31    1
    23    31    32    1
    24    32    33    1
    25    31    34    2
    26    27    35    1
    27    35    36    1
    28    35    37    1
    29    37    38    1
    30    38    39    1
    31    38    40    2
    32    35    41    1
    33    27    42    1
    34    11    12    1
    35    11    10    1
    36     8    10    1
    37     8     9    1
    38    13    15    1
    39    13    14    1
    40    21    23    1
    41    21    22    1
    42    28    30    1
    43    28    29    1
    44     4    43    1
    45     4    44    1
    46     4    45    1
    47     6    46    1
    48    15    47    1
    49    19    48    1
    50    19    49    1
    51    20    50    1
    52    23    51    1
    53    26    52    1
    54    30    53    1
    55    30    54    1
    56    33    55    1
    57    33    56    1
    58    33    57    1
    59    39    58    1
    60    39    59    1
    61    39    60    1
    62    41    61    1
    63    41    62    1
    64    41    63    1
