REMARK  Name = NuBBE_1378
REMARK  6 active torsions:
REMARK  status: ('A' for Active; 'I' for Inactive)
REMARK    1  A    between atoms: C_1  and  C_2
REMARK    2  A    between atoms: C_2  and  C_3
REMARK    3  A    between atoms: C_3  and  C_4
REMARK    4  A    between atoms: C_4  and  C_5
REMARK    5  A    between atoms: C_5  and  C_6
REMARK    6  A    between atoms: C_6  and  C_7
REMARK                            x       y       z     vdW  Elec       q    Type
REMARK                         _______ _______ _______ _____ _____    ______ ____
ROOT
ATOM      1  C   LIG A   1       0.374  -0.010   0.253  0.00  0.00    +0.000 C 
ENDROOT
BRANCH   1   2
ATOM      2  C   LIG A   1      -1.077  -0.297  -0.149  0.00  0.00    -0.000 C 
BRANCH   2   4
ATOM      3  C   LIG A   1      -2.713  -2.056  -0.942  0.00  0.00    +0.004 C 
ATOM      4  C   LIG A   1      -1.272  -1.762  -0.549  0.00  0.00    -0.003 C 
ENDBRANCH   2   4
ENDBRANCH   1   2
BRANCH   1   5
ATOM      5  C   LIG A   1       0.575   1.463   0.628  0.00  0.00    +0.007 C 
BRANCH   5   6
ATOM      6  C   LIG A   1       1.999   1.769   1.088  0.00  0.00    +0.071 C 
BRANCH   6   7
ATOM      7  C   LIG A   1       3.003   1.566  -0.017  0.00  0.00    +0.223 C 
ATOM      8  O   LIG A   1       4.003   0.860   0.101  0.00  0.00    -0.301 OA
ENDBRANCH   6   7
ENDBRANCH   5   6
ENDBRANCH   1   5
TORSDOF 5
