REMARK  Name = NuBBE_679
REMARK  12 active torsions:
REMARK  status: ('A' for Active; 'I' for Inactive)
REMARK    1  A    between atoms: C_1  and  C_2
REMARK    2  A    between atoms: C_2  and  O_4
REMARK    3  A    between atoms: C_2  and  C_5
REMARK    4  A    between atoms: C_5  and  C_7
REMARK    5  A    between atoms: C_5  and  C_8
REMARK    6  A    between atoms: C_8  and  C_9
REMARK    7  A    between atoms: C_14  and  C_15
REMARK    8  A    between atoms: C_16  and  C_17
REMARK    9  A    between atoms: C_17  and  C_19
REMARK   10  A    between atoms: C_17  and  C_20
REMARK   11  A    between atoms: C_20  and  C_21
REMARK   12  A    between atoms: C_26  and  C_30
REMARK                            x       y       z     vdW  Elec       q    Type
REMARK                         _______ _______ _______ _____ _____    ______ ____
ROOT
ATOM      1  C   LIG A   1      -0.482   0.092  -2.933  0.00  0.00    +0.110 C 
ATOM      2  C   LIG A   1       0.508  -0.499  -2.260  0.00  0.00    +0.031 C 
ATOM      3  C   LIG A   1       0.762  -0.739  -0.858  0.00  0.00    +0.025 C 
ATOM      4  C   LIG A   1       0.921   0.230   0.059  0.00  0.00    +0.204 C 
ATOM      5  O   LIG A   1       1.193  -0.005   1.398  0.00  0.00    -0.463 OA
ATOM      6  C   LIG A   1       1.125  -1.319   1.877  0.00  0.00    +0.128 C 
ATOM      7  C   LIG A   1       1.035  -2.373   1.040  0.00  0.00    +0.055 C 
ATOM      8  C   LIG A   1       1.059  -2.106  -0.394  0.00  0.00    -0.008 C 
ATOM      9  C   LIG A   1       1.354  -3.061  -1.295  0.00  0.00    +0.059 C 
ATOM     10  C   LIG A   1       1.444  -1.224  -3.162  0.00  0.00    +0.199 C 
ATOM     11  O   LIG A   1       0.892  -1.017  -4.455  0.00  0.00    -0.442 OA
ATOM     12  C   LIG A   1      -0.158  -0.162  -4.353  0.00  0.00    +0.344 C 
ATOM     13  O   LIG A   1      -0.715   0.323  -5.309  0.00  0.00    -0.245 OA
ATOM     14  C   LIG A   1       2.849  -0.618  -3.153  0.00  0.00    +0.070 C 
ATOM     15  C   LIG A   1       1.489  -2.719  -2.750  0.00  0.00    +0.204 C 
ATOM     16  O   LIG A   1       1.672  -3.632  -3.552  0.00  0.00    -0.288 OA
ENDROOT
BRANCH   1  17
ATOM     17  C   LIG A   1      -1.704   0.791  -2.449  0.00  0.00    +0.176 C 
ATOM     18  O   LIG A   1      -1.764   1.177  -1.277  0.00  0.00    -0.291 OA
BRANCH  17  19
ATOM     19  C   LIG A   1      -2.885   1.016  -3.406  0.00  0.00    +0.085 C 
ATOM     20  C   LIG A   1      -4.163   0.376  -2.845  0.00  0.00    +0.018 C 
BRANCH  19  22
ATOM     21  C   LIG A   1      -1.887   3.233  -4.254  0.00  0.00    +0.038 C 
ATOM     22  C   LIG A   1      -3.109   2.512  -3.695  0.00  0.00    +0.122 C 
BRANCH  22  23
ATOM     23  O   LIG A   1      -4.159   2.627  -4.662  0.00  0.00    -0.391 OA
ATOM     24  H   LIG A   1      -4.334   3.572  -4.806  0.00  0.00    +0.210 HD
ENDBRANCH  22  23
ENDBRANCH  19  22
ENDBRANCH  17  19
ENDBRANCH   1  17
BRANCH   6  25
ATOM     25  C   LIG A   1       1.106  -1.430   3.326  0.00  0.00    +0.042 C 
ATOM     26  C   LIG A   1       1.649  -0.528   4.168  0.00  0.00    -0.020 C 
BRANCH  26  27
ATOM     27  C   LIG A   1       1.569  -0.608   5.680  0.00  0.00    +0.008 C 
ATOM     28  C   LIG A   1       2.961  -0.705   6.320  0.00  0.00    +0.012 C 
BRANCH  27  29
ATOM     29  C   LIG A   1       0.826   0.599   6.290  0.00  0.00    +0.004 C 
ATOM     30  C   LIG A   1      -0.627   0.713   5.849  0.00  0.00    +0.004 C 
ENDBRANCH  27  29
ENDBRANCH  26  27
ENDBRANCH   6  25
TORSDOF 7
