@<TRIPOS>MOLECULE
NuBBE_2379
 56 59 0 0 0
SMALL
GASTEIGER

@<TRIPOS>ATOM
      1 C          -1.5179    2.5237   -2.3315 C.3     1  LIG1       -0.0306
      2 C          -1.1097    1.5893   -1.1157 C.3     1  LIG1       -0.0123
      3 C          -0.0197    0.4796   -1.4445 C.3     1  LIG1        0.0998
      4 C           1.2753    1.2718   -1.7482 C.2     1  LIG1        0.3187
      5 O           1.9799    1.1626   -2.7751 O.2     1  LIG1       -0.2498
      6 O           1.5877    2.1568   -0.7501 O.3     1  LIG1       -0.4559
      7 C           0.7868    2.0264    0.4567 C.3     1  LIG1        0.1288
      8 H           1.2062    2.6750    1.2315 H       1  LIG1        0.0785
      9 C           0.8029    0.5760    0.8496 C.ar    1  LIG1        0.0010
     10 C           0.3213   -0.3150   -0.1311 C.ar    1  LIG1        0.0217
     11 C           0.3112   -1.6914    0.1711 C.ar    1  LIG1        0.1664
     12 C           0.7522   -2.1248    1.4637 C.ar    1  LIG1        0.1652
     13 C           1.2450   -1.2001    2.4282 C.ar    1  LIG1        0.0009
     14 C           1.7592   -1.6190    3.8076 C.3     1  LIG1       -0.0179
     15 C           0.6385   -1.5648    4.8500 C.3     1  LIG1       -0.0585
     16 C           2.9345   -0.7645    4.3244 C.3     1  LIG1       -0.0585
     17 C           1.2387    0.1572    2.1042 C.ar    1  LIG1       -0.0477
     18 O           0.8710   -3.4548    1.8068 O.3     1  LIG1       -0.4912
     19 C          -0.3577   -4.1693    1.9084 C.3     1  LIG1        0.0790
     20 O          -0.2152   -2.5360   -0.7670 O.3     1  LIG1       -0.4911
     21 C           0.5793   -3.6591   -1.1485 C.3     1  LIG1        0.0790
     22 C          -0.6690    2.3652    0.1541 C.3     1  LIG1       -0.0068
     23 C          -0.4718   -0.3491   -2.6609 C.3     1  LIG1       -0.0327
     24 C          -1.1753    0.4360   -3.7821 C.3     1  LIG1       -0.0512
     25 C          -1.0554    1.9459   -3.6881 C.3     1  LIG1       -0.0475
     26 C          -3.0618    2.6488   -2.3337 C.3     1  LIG1       -0.0595
     27 C          -0.9736    3.9745   -2.2716 C.3     1  LIG1       -0.0595
     28 H          -2.0146    1.0293   -0.8267 H       1  LIG1        0.0321
     29 H           2.1379   -2.6463    3.7489 H       1  LIG1        0.0345
     30 H           0.2534   -0.5453    4.9731 H       1  LIG1        0.0235
     31 H           1.0155   -1.8929    5.8255 H       1  LIG1        0.0235
     32 H          -0.2018   -2.2100    4.5766 H       1  LIG1        0.0235
     33 H           2.6432    0.2742    4.5237 H       1  LIG1        0.0235
     34 H           3.7594   -0.7539    3.6049 H       1  LIG1        0.0235
     35 H           3.3121   -1.1591    5.2746 H       1  LIG1        0.0235
     36 H           1.5873    0.9049    2.8084 H       1  LIG1        0.0626
     37 H          -0.1959   -4.9959    2.6103 H       1  LIG1        0.0660
     38 H          -0.6240   -4.6292    0.9554 H       1  LIG1        0.0660
     39 H          -1.1833   -3.5560    2.2801 H       1  LIG1        0.0660
     40 H           0.9024   -3.5308   -2.1860 H       1  LIG1        0.0660
     41 H          -0.0608   -4.5495   -1.1243 H       1  LIG1        0.0660
     42 H           1.4618   -3.8349   -0.5285 H       1  LIG1        0.0660
     43 H          -0.7830    3.4454    0.0750 H       1  LIG1        0.0307
     44 H          -1.3098    2.0721    0.9990 H       1  LIG1        0.0307
     45 H          -1.1814   -1.1210   -2.3626 H       1  LIG1        0.0279
     46 H           0.3897   -0.8775   -3.0937 H       1  LIG1        0.0279
     47 H          -2.2389    0.1670   -3.7879 H       1  LIG1        0.0266
     48 H          -0.7865    0.1076   -4.7543 H       1  LIG1        0.0266
     49 H          -1.6318    2.4015   -4.5051 H       1  LIG1        0.0271
     50 H          -0.0170    2.2344   -3.8899 H       1  LIG1        0.0271
     51 H          -3.5452    1.6770   -2.4779 H       1  LIG1        0.0235
     52 H          -3.4086    3.3122   -3.1347 H       1  LIG1        0.0235
     53 H          -3.4216    3.0626   -1.3844 H       1  LIG1        0.0235
     54 H           0.1092    3.9978   -2.1159 H       1  LIG1        0.0235
     55 H          -1.4538    4.5661   -1.4840 H       1  LIG1        0.0235
     56 H          -1.1765    4.5094   -3.2079 H       1  LIG1        0.0235
@<TRIPOS>BOND
     1     1     2    1
     2     2     3    1
     3     3     4    1
     4     4     6    1
     5     6     7    1
     6     7     9    1
     7     9    10   ar
     8     3    10    1
     9    10    11   ar
    10    11    12   ar
    11    12    13   ar
    12    14    15    1
    13    14    16    1
    14    13    17   ar
    15     9    17   ar
    16    18    19    1
    17    20    21    1
    18     7    22    1
    19     2    22    1
    20     3    23    1
    21    23    24    1
    22    24    25    1
    23     1    25    1
    24     1    26    1
    25     1    27    1
    26     4     5    2
    27     7     8    1
    28    11    20    1
    29    12    18    1
    30    13    14    1
    31     2    28    1
    32    14    29    1
    33    15    30    1
    34    15    31    1
    35    15    32    1
    36    16    33    1
    37    16    34    1
    38    16    35    1
    39    17    36    1
    40    19    37    1
    41    19    38    1
    42    19    39    1
    43    21    40    1
    44    21    41    1
    45    21    42    1
    46    22    43    1
    47    22    44    1
    48    23    45    1
    49    23    46    1
    50    24    47    1
    51    24    48    1
    52    25    49    1
    53    25    50    1
    54    26    51    1
    55    26    52    1
    56    26    53    1
    57    27    54    1
    58    27    55    1
    59    27    56    1
