@<TRIPOS>MOLECULE
NuBBE_174
 83 83 0 0 0
SMALL
GASTEIGER

@<TRIPOS>ATOM
      1 C           0.2556   -4.2586    3.7528 C.3     1  LIG1       -0.0444
      2 C           0.0503   -3.2403    2.6376 C.3     1  LIG1        0.0660
      3 H          -0.5255   -3.8253    1.9112 H       1  LIG1        0.0514
      4 C           1.4070   -2.8427    2.0252 C.3     1  LIG1        0.1233
      5 H           1.9593   -3.7529    1.8004 H       1  LIG1        0.0751
      6 O           2.1421   -2.0379    3.0210 O.3     1  LIG1       -0.4289
      7 C           3.3682   -2.5108    3.3009 C.2     1  LIG1        0.5110
      8 O           3.7887   -2.2432    4.5983 O.3     1  LIG1       -0.4281
      9 C           4.6463   -3.2340    5.2494 C.3     1  LIG1        0.1086
     10 C           3.8497   -4.5255    5.4396 C.3     1  LIG1       -0.0253
     11 C           5.9893   -3.5260    4.5623 C.3     1  LIG1       -0.0253
     12 C           4.9867   -2.6747    6.6583 C.3     1  LIG1       -0.0253
     13 O           4.0063   -3.1864    2.5332 O.2     1  LIG1       -0.2028
     14 C           1.1362   -2.0990    0.7015 C.3     1  LIG1       -0.0125
     15 C          -0.3725   -1.9545    0.3666 C.3     1  LIG1       -0.0323
     16 C          -1.1764   -1.2883    1.5145 C.3     1  LIG1        0.0320
     17 H          -2.2421   -1.5271    1.3963 H       1  LIG1        0.0480
     18 C          -0.9790    0.2592    1.3638 C.3     1  LIG1       -0.0357
     19 C          -1.5743    0.9492    0.0970 C.3     1  LIG1       -0.0516
     20 C          -1.3155    2.4794    0.0978 C.3     1  LIG1       -0.0530
     21 C          -1.6787    3.1812   -1.2231 C.3     1  LIG1       -0.0531
     22 C          -3.1692    3.0294   -1.5665 C.3     1  LIG1       -0.0531
     23 C          -3.6143    3.7102   -2.8516 C.3     1  LIG1       -0.0531
     24 C          -2.8649    3.2292   -4.0772 C.3     1  LIG1       -0.0531
     25 C          -2.9497    1.7215   -4.4334 C.3     1  LIG1       -0.0531
     26 C          -2.1978    1.1475   -5.6699 C.3     1  LIG1       -0.0530
     27 C          -2.4447    1.8407   -7.0069 C.3     1  LIG1       -0.0527
     28 C          -2.1372    3.3358   -7.1359 C.3     1  LIG1       -0.0464
     29 C          -0.6904    3.8019   -6.8497 C.3     1  LIG1        0.0055
     30 C           0.0600    3.4690   -5.5502 C.2     1  LIG1        0.1303
     31 C           1.3356    4.0615   -5.2293 C.3     1  LIG1       -0.0061
     32 O          -0.2930    2.5927   -4.6861 O.2     1  LIG1       -0.2977
     33 N          -0.6958   -1.9324    2.8597 N.3     1  LIG1       -0.1720
     34 S          -1.5159   -1.6579    4.3104 S.O2    1  LIG1        0.0296
     35 O          -0.9453   -2.4823    5.3825 O.2     1  LIG1       -0.1583
     36 C          -1.0197   -0.0110    4.7171 C.3     1  LIG1        0.0707
     37 O          -2.9330   -1.6786    4.0627 O.2     1  LIG1       -0.1583
     38 H           0.8848   -3.8974    4.5671 H       1  LIG1        0.0246
     39 H           0.7629   -5.1422    3.3357 H       1  LIG1        0.0246
     40 H          -0.6942   -4.6297    4.1508 H       1  LIG1        0.0246
     41 H           3.7908   -5.0814    4.4978 H       1  LIG1        0.0268
     42 H           2.8222   -4.3062    5.7475 H       1  LIG1        0.0268
     43 H           4.3008   -5.1846    6.1884 H       1  LIG1        0.0268
     44 H           5.8642   -4.0436    3.6085 H       1  LIG1        0.0268
     45 H           6.6094   -4.1855    5.1824 H       1  LIG1        0.0268
     46 H           6.5514   -2.6075    4.3648 H       1  LIG1        0.0268
     47 H           4.0884   -2.4043    7.2201 H       1  LIG1        0.0268
     48 H           5.6129   -1.7779    6.5952 H       1  LIG1        0.0268
     49 H           5.5437   -3.4173    7.2513 H       1  LIG1        0.0268
     50 H           1.5628   -2.7121   -0.1022 H       1  LIG1        0.0302
     51 H           1.6409   -1.1300    0.6649 H       1  LIG1        0.0302
     52 H          -0.8054   -2.9407    0.1489 H       1  LIG1        0.0282
     53 H          -0.4870   -1.4165   -0.5768 H       1  LIG1        0.0282
     54 H           0.0911    0.4904    1.4131 H       1  LIG1        0.0281
     55 H          -1.4701    0.7883    2.1686 H       1  LIG1        0.0281
     56 H          -2.6587    0.7811    0.0798 H       1  LIG1        0.0266
     57 H          -1.1639    0.5305   -0.8267 H       1  LIG1        0.0266
     58 H          -0.2551    2.6722    0.3038 H       1  LIG1        0.0265
     59 H          -1.8853    2.9513    0.9078 H       1  LIG1        0.0265
     60 H          -1.0366    2.7755   -2.0136 H       1  LIG1        0.0265
     61 H          -1.4271    4.2491   -1.1478 H       1  LIG1        0.0265
     62 H          -3.7673    3.4446   -0.7496 H       1  LIG1        0.0265
     63 H          -3.4188    1.9699   -1.6505 H       1  LIG1        0.0265
     64 H          -3.4411    4.7937   -2.7691 H       1  LIG1        0.0265
     65 H          -4.6887    3.5794   -3.0183 H       1  LIG1        0.0265
     66 H          -1.8599    3.5853   -3.8929 H       1  LIG1        0.0265
     67 H          -3.2717    3.8359   -4.8741 H       1  LIG1        0.0265
     68 H          -4.0089    1.4868   -4.5863 H       1  LIG1        0.0265
     69 H          -2.6237    1.1229   -3.5736 H       1  LIG1        0.0265
     70 H          -2.4932    0.0915   -5.7705 H       1  LIG1        0.0265
     71 H          -1.1215    1.0125   -5.5278 H       1  LIG1        0.0265
     72 H          -3.4985    1.6741   -7.2653 H       1  LIG1        0.0265
     73 H          -1.8629    1.3174   -7.7774 H       1  LIG1        0.0265
     74 H          -2.8615    3.9405   -6.5945 H       1  LIG1        0.0269
     75 H          -2.3813    3.6142   -8.1735 H       1  LIG1        0.0269
     76 H          -0.7077    4.9018   -6.9422 H       1  LIG1        0.0341
     77 H          -0.0623    3.4250   -7.6616 H       1  LIG1        0.0341
     78 H           1.5648    4.9512   -5.8311 H       1  LIG1        0.0306
     79 H           2.0754    3.2683   -5.3992 H       1  LIG1        0.0306
     80 H           1.3414    4.3279   -4.1673 H       1  LIG1        0.0306
     81 H          -1.3533    0.6609    3.9440 H       1  LIG1        0.0479
     82 H           0.0654    0.0181    4.8308 H       1  LIG1        0.0479
     83 H          -1.5140    0.2977    5.6403 H       1  LIG1        0.0479
@<TRIPOS>BOND
     1     2     4    1
     2     6     7    1
     3     7     8    1
     4     8     9    1
     5     9    10    1
     6     9    11    1
     7     9    12    1
     8     7    13    2
     9     4    14    1
    10    14    15    1
    11    15    16    1
    12    16    17    1
    13    16    18    1
    14    18    19    1
    15    19    20    1
    16    20    21    1
    17    21    22    1
    18    22    23    1
    19    23    24    1
    20    24    25    1
    21    25    26    1
    22    26    27    1
    23    27    28    1
    24    28    29    1
    25    29    30    1
    26    30    31    1
    27    30    32    2
    28    16    33    1
    29     2    33    1
    30    33    34    1
    31    34    35    2
    32    34    36    1
    33    34    37    2
    34     2     3    1
    35     2     1    1
    36     4     6    1
    37     4     5    1
    38     1    38    1
    39     1    39    1
    40     1    40    1
    41    10    41    1
    42    10    42    1
    43    10    43    1
    44    11    44    1
    45    11    45    1
    46    11    46    1
    47    12    47    1
    48    12    48    1
    49    12    49    1
    50    14    50    1
    51    14    51    1
    52    15    52    1
    53    15    53    1
    54    18    54    1
    55    18    55    1
    56    19    56    1
    57    19    57    1
    58    20    58    1
    59    20    59    1
    60    21    60    1
    61    21    61    1
    62    22    62    1
    63    22    63    1
    64    23    64    1
    65    23    65    1
    66    24    66    1
    67    24    67    1
    68    25    68    1
    69    25    69    1
    70    26    70    1
    71    26    71    1
    72    27    72    1
    73    27    73    1
    74    28    74    1
    75    28    75    1
    76    29    76    1
    77    29    77    1
    78    31    78    1
    79    31    79    1
    80    31    80    1
    81    36    81    1
    82    36    82    1
    83    36    83    1
