REMARK  Name = NuBBE_937
REMARK  4 active torsions:
REMARK  status: ('A' for Active; 'I' for Inactive)
REMARK    1  A    between atoms: O_1  and  C_2
REMARK    2  A    between atoms: O_1  and  C_3
REMARK    3  A    between atoms: C_12  and  O_13
REMARK    4  A    between atoms: O_13  and  C_14
REMARK                            x       y       z     vdW  Elec       q    Type
REMARK                         _______ _______ _______ _____ _____    ______ ____
ROOT
ATOM      1  C   LIG A   1      -1.324   0.430   0.005  0.00  0.00    +0.142 A 
ATOM      2  C   LIG A   1      -0.584  -0.784   0.001  0.00  0.00    +0.046 A 
ATOM      3  C   LIG A   1       0.836  -0.733  -0.025  0.00  0.00    +0.120 A 
ATOM      4  N   LIG A   1       1.505   0.430  -0.064  0.00  0.00    -0.208 NA
ATOM      5  C   LIG A   1       0.771   1.543  -0.037  0.00  0.00    +0.231 A 
ATOM      6  C   LIG A   1      -0.615   1.646   0.009  0.00  0.00    +0.082 A 
ATOM      7  C   LIG A   1      -0.886   3.042   0.067  0.00  0.00    +0.055 A 
ATOM      8  C   LIG A   1       0.329   3.684   0.030  0.00  0.00    +0.198 A 
ATOM      9  O   LIG A   1       1.337   2.782  -0.035  0.00  0.00    -0.445 OA
ATOM     10  C   LIG A   1       1.534  -1.956  -0.021  0.00  0.00    +0.146 A 
ATOM     11  C   LIG A   1       0.860  -3.186  -0.036  0.00  0.00    +0.048 A 
ATOM     12  C   LIG A   1      -0.523  -3.231  -0.017  0.00  0.00    +0.004 A 
ATOM     13  C   LIG A   1      -1.236  -2.039   0.008  0.00  0.00    +0.014 A 
ENDROOT
BRANCH   1  14
ATOM     14  O   LIG A   1      -2.704   0.312   0.104  0.00  0.00    -0.494 OA
ATOM     15  C   LIG A   1      -3.462   1.310  -0.568  0.00  0.00    +0.277 C 
ENDBRANCH   1  14
BRANCH  10  16
ATOM     16  O   LIG A   1       2.904  -2.123  -0.046  0.00  0.00    -0.493 OA
ATOM     17  C   LIG A   1       3.690  -1.103   0.559  0.00  0.00    +0.277 C 
ENDBRANCH  10  16
TORSDOF 2
