@<TRIPOS>MOLECULE
NuBBE_1257
 73 76 0 0 0
SMALL
GASTEIGER

@<TRIPOS>ATOM
      1 H          -3.1534    0.3655    0.3681 H       1  LIG1        0.0342
      2 C          -3.0058    0.5034   -0.7123 C.3     1  LIG1        0.0021
      3 C          -4.1165    1.4768   -1.1888 C.3     1  LIG1        0.1143
      4 C          -3.9975    2.8563   -0.5397 C.3     1  LIG1       -0.0028
      5 C          -5.4335    3.3204   -0.4269 C.3     1  LIG1        0.0486
      6 C          -6.1736    2.0215   -0.2856 C.2     1  LIG1        0.3077
      7 O          -5.3772    0.9883   -0.7046 O.3     1  LIG1       -0.4580
      8 O          -7.3133    1.8959    0.1025 O.2     1  LIG1       -0.2508
      9 C          -4.2287    1.5933   -2.7218 C.3     1  LIG1       -0.0246
     10 C          -3.1390   -0.9034   -1.3183 C.3     1  LIG1       -0.0458
     11 C          -1.8334   -1.2005   -2.0326 C.3     1  LIG1       -0.0465
     12 C          -0.7475   -0.2702   -1.4413 C.3     1  LIG1       -0.0232
     13 C          -1.5449    0.9770   -0.9780 C.3     1  LIG1       -0.0287
     14 C          -0.9369    1.7420    0.2129 C.3     1  LIG1       -0.0490
     15 C           0.5413    1.5135    0.5573 C.3     1  LIG1       -0.0489
     16 C           1.1846    0.1577    0.1718 C.3     1  LIG1       -0.0292
     17 C           2.4031   -0.2979    1.0857 C.3     1  LIG1       -0.0217
     18 C           1.9709   -0.6450    2.5575 C.3     1  LIG1       -0.0367
     19 C           3.0881   -1.0752    3.5197 C.3     1  LIG1        0.0453
     20 C           2.5266   -1.3741    4.8819 C.2     1  LIG1        0.3047
     21 O           2.5249   -0.3025    5.6946 O.3     1  LIG1       -0.4806
     22 O           2.0837   -2.4466    5.2593 O.2     1  LIG1       -0.2510
     23 C           3.0941   -1.5424    0.3865 C.3     1  LIG1       -0.0147
     24 H           3.7585   -2.0044    1.1261 H       1  LIG1        0.0351
     25 C           4.0506   -1.2479   -0.7930 C.2     1  LIG1       -0.0761
     26 C           5.5080   -1.0528   -0.4310 C.3     1  LIG1       -0.0438
     27 C           3.7340   -1.2380   -2.0988 C.2     1  LIG1       -0.0994
     28 C           2.0514   -2.6473    0.0933 C.3     1  LIG1       -0.0455
     29 C           0.8150   -2.2288   -0.7090 C.3     1  LIG1       -0.0463
     30 C           0.1203   -0.9170   -0.2457 C.3     1  LIG1       -0.0231
     31 C          -0.7831   -1.3355    0.9470 C.3     1  LIG1       -0.0588
     32 C           3.3953    0.8930    1.2008 C.3     1  LIG1       -0.0587
     33 H           1.7143    0.3922   -0.7579 H       1  LIG1        0.0312
     34 H          -1.5768    1.6939   -1.8083 H       1  LIG1        0.0310
     35 C           0.1275    0.1921   -2.6522 C.3     1  LIG1       -0.0588
     36 H          -3.3673    3.5532   -1.0997 H       1  LIG1        0.0309
     37 H          -3.5877    2.7731    0.4736 H       1  LIG1        0.0309
     38 H          -5.7722    3.8290   -1.3312 H       1  LIG1        0.0379
     39 H          -5.5767    3.9526    0.4496 H       1  LIG1        0.0379
     40 H          -4.9929    2.3230   -3.0115 H       1  LIG1        0.0268
     41 H          -4.5536    0.6513   -3.1749 H       1  LIG1        0.0268
     42 H          -3.2873    1.8962   -3.1866 H       1  LIG1        0.0268
     43 H          -3.9852   -1.0215   -2.0004 H       1  LIG1        0.0269
     44 H          -3.3237   -1.6376   -0.5278 H       1  LIG1        0.0269
     45 H          -1.5760   -2.2614   -1.9744 H       1  LIG1        0.0271
     46 H          -1.9884   -0.9905   -3.0993 H       1  LIG1        0.0271
     47 H          -1.5201    1.5513    1.1215 H       1  LIG1        0.0268
     48 H          -1.0754    2.8182    0.0391 H       1  LIG1        0.0268
     49 H           0.6510    1.7039    1.6301 H       1  LIG1        0.0268
     50 H           1.1222    2.3082    0.0683 H       1  LIG1        0.0268
     51 H           1.4553    0.2156    3.0011 H       1  LIG1        0.0276
     52 H           1.2453   -1.4527    2.5695 H       1  LIG1        0.0276
     53 H           3.8660   -0.3139    3.6276 H       1  LIG1        0.0378
     54 H           3.5850   -1.9912    3.1857 H       1  LIG1        0.0378
     55 H           2.1385   -0.6397    6.5302 H       1  LIG1        0.2951
     56 H           6.1515   -1.0263   -1.3181 H       1  LIG1        0.0274
     57 H           5.8617   -1.8773    0.1956 H       1  LIG1        0.0274
     58 H           5.6664   -0.1127    0.1001 H       1  LIG1        0.0274
     59 H           4.4854   -1.0573   -2.8631 H       1  LIG1        0.0534
     60 H           2.7398   -1.4030   -2.4766 H       1  LIG1        0.0534
     61 H           1.7140   -3.0675    1.0492 H       1  LIG1        0.0271
     62 H           2.5359   -3.4862   -0.4232 H       1  LIG1        0.0271
     63 H           0.0985   -3.0608   -0.6561 H       1  LIG1        0.0271
     64 H           1.0711   -2.1885   -1.7650 H       1  LIG1        0.0271
     65 H          -0.2949   -2.0467    1.6134 H       1  LIG1        0.0235
     66 H          -1.6626   -1.8846    0.6142 H       1  LIG1        0.0235
     67 H          -1.1173   -0.5006    1.5629 H       1  LIG1        0.0235
     68 H           3.6410    1.3158    0.2210 H       1  LIG1        0.0235
     69 H           4.3312    0.5950    1.6816 H       1  LIG1        0.0235
     70 H           2.9800    1.7066    1.8061 H       1  LIG1        0.0235
     71 H          -0.5009    0.5695   -3.4699 H       1  LIG1        0.0235
     72 H           0.7183   -0.6198   -3.0773 H       1  LIG1        0.0235
     73 H           0.7929    1.0243   -2.4045 H       1  LIG1        0.0235
@<TRIPOS>BOND
     1     3     4    1
     2     4     5    1
     3     5     6    1
     4     6     7    1
     5     6     8    2
     6     7     3    1
     7     3     9    1
     8     2    10    1
     9    10    11    1
    10    11    12    1
    11    12    13    1
    12    13    14    1
    13    14    15    1
    14    15    16    1
    15    16    17    1
    16    18    19    1
    17    19    20    1
    18    20    21    1
    19    20    22    2
    20    17    23    1
    21    25    26    1
    22    25    27    2
    23    23    28    1
    24    28    29    1
    25    29    30    1
    26    30    16    1
    27     2    13    1
    28    30    12    1
    29    12    35    1
    30    13    34    1
    31    16    33    1
    32    30    31    1
    33     2     3    1
    34     2     1    1
    35    17    32    1
    36    17    18    1
    37    23    25    1
    38    23    24    1
    39     4    36    1
    40     4    37    1
    41     5    38    1
    42     5    39    1
    43     9    40    1
    44     9    41    1
    45     9    42    1
    46    10    43    1
    47    10    44    1
    48    11    45    1
    49    11    46    1
    50    14    47    1
    51    14    48    1
    52    15    49    1
    53    15    50    1
    54    18    51    1
    55    18    52    1
    56    19    53    1
    57    19    54    1
    58    21    55    1
    59    26    56    1
    60    26    57    1
    61    26    58    1
    62    27    59    1
    63    27    60    1
    64    28    61    1
    65    28    62    1
    66    29    63    1
    67    29    64    1
    68    31    65    1
    69    31    66    1
    70    31    67    1
    71    32    68    1
    72    32    69    1
    73    32    70    1
    74    35    71    1
    75    35    72    1
    76    35    73    1
