REMARK  Name = NuBBE_976
REMARK  13 active torsions:
REMARK  status: ('A' for Active; 'I' for Inactive)
REMARK    1  A    between atoms: C_2  and  C_24
REMARK    2  A    between atoms: N_3  and  C_4
REMARK    3  A    between atoms: C_4  and  C_5
REMARK    4  A    between atoms: C_5  and  C_6
REMARK    5  A    between atoms: C_9  and  O_10
REMARK    6  A    between atoms: O_10  and  C_11
REMARK    7  A    between atoms: C_11  and  C_12
REMARK    8  A    between atoms: C_13  and  C_14
REMARK    9  A    between atoms: C_13  and  C_15
REMARK   10  A    between atoms: C_15  and  C_16
REMARK   11  A    between atoms: C_16  and  C_17
REMARK   12  A    between atoms: C_18  and  C_19
REMARK   13  A    between atoms: C_18  and  C_20
REMARK                            x       y       z     vdW  Elec       q    Type
REMARK                         _______ _______ _______ _____ _____    ______ ____
ROOT
ATOM      1  C   LIG A   1      -2.175  -0.726   0.609  0.00  0.00    -0.046 A 
ATOM      2  C   LIG A   1      -1.435  -0.664  -0.574  0.00  0.00    +0.007 A 
ATOM      3  C   LIG A   1      -0.045  -0.672  -0.554  0.00  0.00    +0.046 A 
ATOM      4  C   LIG A   1       0.642  -0.767   0.652  0.00  0.00    +0.121 A 
ATOM      5  C   LIG A   1      -0.082  -0.877   1.840  0.00  0.00    +0.046 A 
ATOM      6  C   LIG A   1      -1.482  -0.852   1.822  0.00  0.00    +0.007 A 
ENDROOT
BRANCH   1   7
ATOM      7  C   LIG A   1      -3.686  -0.732   0.586  0.00  0.00    +0.054 C 
BRANCH   7   8
ATOM      8  C   LIG A   1      -4.292   0.066  -0.576  0.00  0.00    +0.109 C 
BRANCH   8  11
ATOM      9  O   LIG A   1      -5.903  -1.818  -1.900  0.00  0.00    -0.270 OA
ATOM     10  C   LIG A   1      -6.437  -0.944  -1.225  0.00  0.00    +0.244 C 
ATOM     11  N   LIG A   1      -5.736   0.038  -0.555  0.00  0.00    -0.311 N 
ATOM     12  H   LIG A   1      -6.221   0.797  -0.098  0.00  0.00    +0.149 HD
BRANCH  10  13
ATOM     13  C   LIG A   1      -7.913  -0.885  -1.111  0.00  0.00    +0.037 A 
ATOM     14  C   LIG A   1      -8.543  -0.359   0.027  0.00  0.00    +0.013 A 
ATOM     15  C   LIG A   1      -9.936  -0.336   0.101  0.00  0.00    +0.001 A 
ATOM     16  C   LIG A   1     -10.699  -0.841  -0.950  0.00  0.00    +0.000 A 
ATOM     17  C   LIG A   1     -10.075  -1.375  -2.079  0.00  0.00    +0.001 A 
ATOM     18  C   LIG A   1      -8.683  -1.400  -2.158  0.00  0.00    +0.013 A 
ENDBRANCH  10  13
ENDBRANCH   8  11
ENDBRANCH   7   8
ENDBRANCH   1   7
BRANCH   4  19
ATOM     19  O   LIG A   1       2.007  -0.803   0.764  0.00  0.00    -0.488 OA
BRANCH  19  20
ATOM     20  C   LIG A   1       2.703  -0.185  -0.323  0.00  0.00    +0.257 C 
BRANCH  20  21
ATOM     21  C   LIG A   1       4.174  -0.297  -0.087  0.00  0.00    +0.012 C 
ATOM     22  C   LIG A   1       5.139  -0.323  -1.031  0.00  0.00    -0.073 C 
ATOM     23  C   LIG A   1       4.899  -0.273  -2.516  0.00  0.00    +0.038 C 
BRANCH  22  24
ATOM     24  C   LIG A   1       6.596  -0.364  -0.613  0.00  0.00    +0.034 C 
BRANCH  24  25
ATOM     25  C   LIG A   1       7.231   1.030  -0.491  0.00  0.00    +0.031 C 
BRANCH  25  26
ATOM     26  C   LIG A   1       6.543   1.895   0.534  0.00  0.00    -0.028 C 
ATOM     27  C   LIG A   1       6.817   1.979   1.850  0.00  0.00    -0.080 C 
ATOM     28  C   LIG A   1       7.907   1.213   2.546  0.00  0.00    +0.038 C 
ATOM     29  C   LIG A   1       5.986   2.849   2.755  0.00  0.00    +0.038 C 
ENDBRANCH  25  26
ENDBRANCH  24  25
ENDBRANCH  22  24
ENDBRANCH  20  21
ENDBRANCH  19  20
ENDBRANCH   4  19
TORSDOF 10
