REMARK  Name = NuBBE_430
REMARK  13 active torsions:
REMARK  status: ('A' for Active; 'I' for Inactive)
REMARK    1  A    between atoms: C_1  and  C_2
REMARK    2  A    between atoms: C_6  and  C_41
REMARK    3  A    between atoms: C_9  and  C_40
REMARK    4  A    between atoms: C_10  and  C_39
REMARK    5  A    between atoms: C_15  and  C_16
REMARK    6  A    between atoms: C_15  and  C_37
REMARK    7  A    between atoms: C_16  and  O_17
REMARK    8  A    between atoms: C_18  and  O_36
REMARK    9  A    between atoms: C_20  and  O_35
REMARK   10  A    between atoms: C_23  and  C_34
REMARK   11  A    between atoms: C_31  and  C_32
REMARK   12  A    between atoms: C_31  and  O_33
REMARK   13  A    between atoms: C_37  and  O_38
REMARK                            x       y       z     vdW  Elec       q    Type
REMARK                         _______ _______ _______ _____ _____    ______ ____
ROOT
ATOM      1  C   LIG A   1      -4.942  -1.536   4.970  0.00  0.00    +0.010 C 
ATOM      2  C   LIG A   1      -4.252  -0.424   4.157  0.00  0.00    +0.018 C 
ATOM      3  C   LIG A   1      -5.343   0.332   3.395  0.00  0.00    +0.006 C 
ATOM      4  C   LIG A   1      -4.752   1.439   2.543  0.00  0.00    +0.007 C 
ATOM      5  C   LIG A   1      -3.717   0.929   1.514  0.00  0.00    -0.023 C 
ATOM      6  C   LIG A   1      -3.111   2.187   0.857  0.00  0.00    +0.008 C 
ATOM      7  C   LIG A   1      -2.085   1.855  -0.214  0.00  0.00    +0.012 C 
ATOM      8  C   LIG A   1      -0.943   0.874   0.216  0.00  0.00    -0.005 C 
ATOM      9  C   LIG A   1      -0.284   0.187  -1.108  0.00  0.00    -0.019 C 
ATOM     10  C   LIG A   1       0.187   1.231  -2.172  0.00  0.00    +0.008 C 
ATOM     11  C   LIG A   1       1.678   1.514  -2.295  0.00  0.00    +0.005 C 
ATOM     12  C   LIG A   1       2.485   0.209  -2.343  0.00  0.00    +0.008 C 
ATOM     13  C   LIG A   1       3.922   0.353  -2.976  0.00  0.00    +0.049 C 
ATOM     14  C   LIG A   1       4.626  -1.034  -2.915  0.00  0.00    +0.154 C 
ATOM     15  C   LIG A   1       4.621  -1.670  -1.523  0.00  0.00    +0.144 C 
ATOM     16  C   LIG A   1       3.191  -1.850  -1.015  0.00  0.00    +0.041 C 
ATOM     17  C   LIG A   1       2.363  -0.528  -0.958  0.00  0.00    -0.022 C 
ATOM     18  C   LIG A   1       0.822  -0.896  -0.777  0.00  0.00    +0.006 C 
ATOM     19  C   LIG A   1       0.480  -1.748   0.465  0.00  0.00    +0.031 C 
ATOM     20  C   LIG A   1      -0.742  -1.383   1.254  0.00  0.00    -0.026 C 
ATOM     21  C   LIG A   1      -1.419  -0.214   1.217  0.00  0.00    -0.061 C 
ATOM     22  C   LIG A   1      -2.559   0.158   2.230  0.00  0.00    +0.053 C 
ATOM     23  C   LIG A   1      -3.104  -0.957   3.233  0.00  0.00    +0.073 C 
ATOM     24  C   LIG A   1      -1.978  -1.498   4.153  0.00  0.00    +0.042 C 
ATOM     25  C   LIG A   1       2.916   0.279   0.238  0.00  0.00    +0.012 C 
ATOM     26  C   LIG A   1      -1.415  -0.636  -1.856  0.00  0.00    +0.012 C 
ATOM     27  C   LIG A   1       0.072   1.737   1.001  0.00  0.00    +0.016 C 
ATOM     28  C   LIG A   1      -4.449   0.086   0.444  0.00  0.00    +0.012 C 
ENDROOT
BRANCH  23  29
ATOM     29  O   LIG A   1      -3.649  -2.061   2.497  0.00  0.00    -0.388 OA
ATOM     30  H   LIG A   1      -3.160  -2.145   1.661  0.00  0.00    +0.210 HD
ENDBRANCH  23  29
BRANCH  15  31
ATOM     31  O   LIG A   1       5.230  -2.963  -1.605  0.00  0.00    -0.389 OA
ATOM     32  H   LIG A   1       6.003  -2.853  -2.194  0.00  0.00    +0.210 HD
ENDBRANCH  15  31
BRANCH  14  33
ATOM     33  O   LIG A   1       5.977  -0.999  -3.402  0.00  0.00    -0.389 OA
ATOM     34  H   LIG A   1       6.415  -0.227  -2.976  0.00  0.00    +0.210 HD
ENDBRANCH  14  33
BRANCH  13  35
ATOM     35  C   LIG A   1       3.780   0.710  -4.495  0.00  0.00    +0.167 C 
BRANCH  35  36
ATOM     36  O   LIG A   1       5.044   0.855  -5.141  0.00  0.00    -0.394 OA
ATOM     37  H   LIG A   1       5.507  -0.007  -5.052  0.00  0.00    +0.209 HD
ENDBRANCH  35  36
ENDBRANCH  13  35
BRANCH  13  38
ATOM     38  C   LIG A   1       4.756   1.474  -2.306  0.00  0.00    +0.167 C 
BRANCH  38  39
ATOM     39  O   LIG A   1       6.079   1.548  -2.836  0.00  0.00    -0.394 OA
ATOM     40  H   LIG A   1       5.977   1.769  -3.791  0.00  0.00    +0.209 HD
ENDBRANCH  38  39
ENDBRANCH  13  38
TORSDOF 7
