REMARK  Name = NuBBE_1174
REMARK  19 active torsions:
REMARK  status: ('A' for Active; 'I' for Inactive)
REMARK    1  A    between atoms: C_1  and  C_2
REMARK    2  A    between atoms: C_2  and  C_58
REMARK    3  A    between atoms: C_5  and  C_39
REMARK    4  A    between atoms: C_8  and  C_38
REMARK    5  A    between atoms: C_9  and  C_37
REMARK    6  A    between atoms: C_11  and  O_36
REMARK    7  A    between atoms: C_15  and  C_16
REMARK    8  A    between atoms: C_15  and  C_35
REMARK    9  A    between atoms: C_16  and  O_17
REMARK   10  A    between atoms: C_18  and  O_34
REMARK   11  A    between atoms: C_20  and  O_33
REMARK   12  A    between atoms: C_23  and  C_32
REMARK   13  A    between atoms: C_39  and  O_40
REMARK   14  A    between atoms: O_40  and  C_41
REMARK   15  A    between atoms: C_43  and  O_45
REMARK   16  A    between atoms: C_46  and  O_48
REMARK   17  A    between atoms: C_49  and  O_51
REMARK   18  A    between atoms: C_52  and  C_54
REMARK   19  A    between atoms: C_54  and  O_55
REMARK                            x       y       z     vdW  Elec       q    Type
REMARK                         _______ _______ _______ _____ _____    ______ ____
ROOT
ATOM      1  C   LIG A   1      -3.618   0.169   4.946  0.00  0.00    +0.011 C 
ATOM      2  C   LIG A   1      -2.758   1.396   4.579  0.00  0.00    -0.034 C 
ATOM      3  C   LIG A   1      -3.549   2.345   3.663  0.00  0.00    +0.007 C 
ATOM      4  C   LIG A   1      -3.812   1.754   2.283  0.00  0.00    +0.019 C 
ATOM      5  C   LIG A   1      -2.556   1.140   1.595  0.00  0.00    +0.074 C 
ATOM      6  C   LIG A   1      -2.354   1.873   0.250  0.00  0.00    +0.019 C 
ATOM      7  C   LIG A   1      -1.171   1.340  -0.542  0.00  0.00    +0.012 C 
ATOM      8  C   LIG A   1       0.191   1.235   0.223  0.00  0.00    -0.005 C 
ATOM      9  C   LIG A   1       1.133   0.119  -0.482  0.00  0.00    -0.017 C 
ATOM     10  C   LIG A   1       1.277   0.300  -2.026  0.00  0.00    +0.039 C 
ATOM     11  C   LIG A   1       2.554   0.914  -2.590  0.00  0.00    +0.119 C 
ATOM     12  C   LIG A   1       3.818   0.318  -1.940  0.00  0.00    +0.034 C 
ATOM     13  C   LIG A   1       5.170   0.590  -2.730  0.00  0.00    +0.025 C 
ATOM     14  C   LIG A   1       6.304  -0.202  -2.016  0.00  0.00    +0.151 C 
ATOM     15  C   LIG A   1       6.394   0.049  -0.505  0.00  0.00    +0.144 C 
ATOM     16  C   LIG A   1       5.069  -0.241   0.197  0.00  0.00    +0.041 C 
ATOM     17  C   LIG A   1       3.846   0.551  -0.375  0.00  0.00    -0.020 C 
ATOM     18  C   LIG A   1       2.518  -0.092   0.244  0.00  0.00    +0.006 C 
ATOM     19  C   LIG A   1       2.394  -0.040   1.792  0.00  0.00    +0.031 C 
ATOM     20  C   LIG A   1       1.060   0.338   2.379  0.00  0.00    -0.026 C 
ATOM     21  C   LIG A   1       0.027   0.905   1.720  0.00  0.00    -0.063 C 
ATOM     22  C   LIG A   1      -1.263   1.373   2.427  0.00  0.00    +0.033 C 
ATOM     23  C   LIG A   1      -1.433   0.939   3.907  0.00  0.00    +0.015 C 
ATOM     24  C   LIG A   1       4.040   2.021   0.054  0.00  0.00    +0.012 C 
ATOM     25  C   LIG A   1       5.536   2.084  -2.883  0.00  0.00    +0.016 C 
ATOM     26  C   LIG A   1       0.401  -1.289  -0.339  0.00  0.00    +0.012 C 
ATOM     27  C   LIG A   1       0.785   2.663   0.211  0.00  0.00    +0.016 C 
ATOM     28  C   LIG A   1      -2.444   2.141   5.893  0.00  0.00    +0.011 C 
ENDROOT
BRANCH  15  29
ATOM     29  O   LIG A   1       7.396  -0.817   0.048  0.00  0.00    -0.389 OA
ATOM     30  H   LIG A   1       8.089  -0.900  -0.636  0.00  0.00    +0.210 HD
ENDBRANCH  15  29
BRANCH  14  31
ATOM     31  O   LIG A   1       7.594   0.056  -2.599  0.00  0.00    -0.389 OA
ATOM     32  H   LIG A   1       7.832   0.981  -2.414  0.00  0.00    +0.210 HD
ENDBRANCH  14  31
BRANCH  11  33
ATOM     33  O   LIG A   1       2.513   2.327  -2.525  0.00  0.00    -0.392 OA
ATOM     34  H   LIG A   1       1.758   2.628  -3.059  0.00  0.00    +0.210 HD
ENDBRANCH  11  33
BRANCH   5  35
ATOM     35  C   LIG A   1      -2.852  -0.364   1.352  0.00  0.00    +0.316 C 
ATOM     36  O   LIG A   1      -2.306  -1.299   1.902  0.00  0.00    -0.250 OA
BRANCH  35  37
ATOM     37  O   LIG A   1      -3.891  -0.476   0.475  0.00  0.00    -0.432 OA
BRANCH  37  38
ATOM     38  C   LIG A   1      -4.348  -1.804   0.144  0.00  0.00    +0.342 C 
ATOM     39  C   LIG A   1      -5.747  -1.592  -0.488  0.00  0.00    +0.214 C 
ATOM     40  C   LIG A   1      -6.226  -2.802  -1.292  0.00  0.00    +0.180 C 
ATOM     41  C   LIG A   1      -5.125  -3.360  -2.194  0.00  0.00    +0.177 C 
ATOM     42  C   LIG A   1      -3.889  -3.633  -1.333  0.00  0.00    +0.179 C 
ATOM     43  O   LIG A   1      -3.443  -2.374  -0.803  0.00  0.00    -0.331 OA
BRANCH  39  44
ATOM     44  O   LIG A   1      -6.735  -1.275   0.506  0.00  0.00    -0.383 OA
ATOM     45  H   LIG A   1      -7.605  -1.331   0.064  0.00  0.00    +0.210 HD
ENDBRANCH  39  44
BRANCH  40  46
ATOM     46  O   LIG A   1      -7.364  -2.430  -2.099  0.00  0.00    -0.386 OA
ATOM     47  H   LIG A   1      -7.091  -1.711  -2.698  0.00  0.00    +0.210 HD
ENDBRANCH  40  46
BRANCH  41  48
ATOM     48  O   LIG A   1      -5.599  -4.528  -2.860  0.00  0.00    -0.387 OA
ATOM     49  H   LIG A   1      -6.514  -4.333  -3.146  0.00  0.00    +0.210 HD
ENDBRANCH  41  48
BRANCH  42  50
ATOM     50  C   LIG A   1      -2.763  -4.253  -2.170  0.00  0.00    +0.190 C 
BRANCH  50  51
ATOM     51  O   LIG A   1      -1.635  -4.535  -1.345  0.00  0.00    -0.392 OA
ATOM     52  H   LIG A   1      -0.915  -4.824  -1.930  0.00  0.00    +0.209 HD
ENDBRANCH  50  51
ENDBRANCH  42  50
ENDBRANCH  37  38
ENDBRANCH  35  37
ENDBRANCH   5  35
BRANCH  13  53
ATOM     53  C   LIG A   1       5.090   0.038  -4.192  0.00  0.00    +0.165 C 
BRANCH  53  54
ATOM     54  O   LIG A   1       4.850  -1.365  -4.219  0.00  0.00    -0.394 OA
ATOM     55  H   LIG A   1       5.302  -1.714  -5.009  0.00  0.00    +0.209 HD
ENDBRANCH  53  54
ENDBRANCH  13  53
TORSDOF 13
