REMARK  Name = NuBBE_377
REMARK  4 active torsions:
REMARK  status: ('A' for Active; 'I' for Inactive)
REMARK    1  A    between atoms: C_1  and  C_2
REMARK    2  A    between atoms: C_4  and  O_5
REMARK    3  A    between atoms: C_9  and  O_11
REMARK    4  A    between atoms: C_19  and  O_21
REMARK                            x       y       z     vdW  Elec       q    Type
REMARK                         _______ _______ _______ _____ _____    ______ ____
ROOT
ATOM      1  C   LIG A   1      -4.953   0.882  -0.484  0.00  0.00    +0.044 C 
ATOM      2  C   LIG A   1      -3.455   0.949  -0.509  0.00  0.00    -0.046 A 
ATOM      3  C   LIG A   1      -2.785   2.153  -0.279  0.00  0.00    +0.049 A 
ATOM      4  C   LIG A   1      -1.390   2.187  -0.287  0.00  0.00    +0.123 A 
ATOM      5  C   LIG A   1      -2.705  -0.208  -0.750  0.00  0.00    +0.015 A 
ATOM      6  C   LIG A   1      -1.300  -0.169  -0.737  0.00  0.00    +0.027 A 
ATOM      7  C   LIG A   1      -0.623   1.034  -0.513  0.00  0.00    +0.033 A 
ATOM      8  C   LIG A   1       0.886   1.103  -0.440  0.00  0.00    +0.152 C 
ATOM      9  C   LIG A   1       1.601  -0.148  -0.997  0.00  0.00    +0.033 C 
ATOM     10  C   LIG A   1       0.923  -1.459  -0.577  0.00  0.00    +0.068 C 
ATOM     11  C   LIG A   1      -0.560  -1.446  -0.898  0.00  0.00    +0.167 C 
ATOM     12  O   LIG A   1      -1.152  -2.477  -1.200  0.00  0.00    -0.292 OA
ATOM     13  C   LIG A   1       1.130  -1.803   0.897  0.00  0.00    +0.043 C 
ATOM     14  C   LIG A   1       2.607  -1.829   1.283  0.00  0.00    +0.115 C 
ATOM     15  C   LIG A   1       3.389  -0.604   0.814  0.00  0.00    +0.032 C 
ATOM     16  C   LIG A   1       3.099  -0.215  -0.638  0.00  0.00    +0.009 C 
ENDROOT
BRANCH   4  17
ATOM     17  O   LIG A   1      -0.746   3.368  -0.039  0.00  0.00    -0.506 OA
ATOM     18  H   LIG A   1      -1.392   4.046   0.220  0.00  0.00    +0.292 HD
ENDBRANCH   4  17
BRANCH   8  19
ATOM     19  O   LIG A   1       1.278   1.331   0.910  0.00  0.00    -0.387 OA
ATOM     20  H   LIG A   1       0.509   1.226   1.492  0.00  0.00    +0.210 HD
ENDBRANCH   8  19
BRANCH  14  21
ATOM     21  O   LIG A   1       2.717  -1.917   2.702  0.00  0.00    -0.392 OA
ATOM     22  H   LIG A   1       2.220  -2.701   2.992  0.00  0.00    +0.210 HD
ENDBRANCH  14  21
TORSDOF 3
