REMARK  Name = NuBBE_295
REMARK  5 active torsions:
REMARK  status: ('A' for Active; 'I' for Inactive)
REMARK    1  A    between atoms: O_1  and  C_2
REMARK    2  A    between atoms: C_8  and  C_9
REMARK    3  A    between atoms: C_9  and  C_10
REMARK    4  A    between atoms: C_10  and  O_12
REMARK    5  A    between atoms: C_10  and  C_13
REMARK                            x       y       z     vdW  Elec       q    Type
REMARK                         _______ _______ _______ _____ _____    ______ ____
ROOT
ATOM      1  C   LIG A   1      -1.158   3.075   0.313  0.00  0.00    +0.131 A 
ATOM      2  C   LIG A   1      -0.447   3.924  -0.542  0.00  0.00    +0.046 A 
ATOM      3  C   LIG A   1       0.402   3.389  -1.511  0.00  0.00    +0.007 A 
ATOM      4  C   LIG A   1       0.541   2.008  -1.626  0.00  0.00    +0.047 A 
ATOM      5  C   LIG A   1      -0.167   1.160  -0.769  0.00  0.00    +0.142 A 
ATOM      6  O   LIG A   1       0.039  -0.185  -0.955  0.00  0.00    -0.459 OA
ATOM      7  C   LIG A   1      -0.606  -1.074  -0.115  0.00  0.00    +0.112 A 
ATOM      8  C   LIG A   1      -1.456  -0.702   0.851  0.00  0.00    +0.093 A 
ATOM      9  C   LIG A   1      -1.021   1.685   0.205  0.00  0.00    +0.105 A 
ATOM     10  C   LIG A   1      -1.737   0.728   1.079  0.00  0.00    +0.196 A 
ATOM     11  O   LIG A   1      -2.523   1.040   1.964  0.00  0.00    -0.287 OA
ENDROOT
BRANCH   1  12
ATOM     12  O   LIG A   1      -1.979   3.630   1.252  0.00  0.00    -0.506 OA
ATOM     13  H   LIG A   1      -1.978   4.596   1.176  0.00  0.00    +0.292 HD
ENDBRANCH   1  12
BRANCH   7  14
ATOM     14  C   LIG A   1      -0.275  -2.520  -0.379  0.00  0.00    +0.105 C 
BRANCH  14  15
ATOM     15  C   LIG A   1       1.215  -2.860  -0.222  0.00  0.00    +0.119 C 
ATOM     16  C   LIG A   1       1.751  -2.584   1.178  0.00  0.00    +0.038 C 
BRANCH  15  17
ATOM     17  O   LIG A   1       1.382  -4.251  -0.508  0.00  0.00    -0.392 OA
ATOM     18  H   LIG A   1       2.325  -4.463  -0.401  0.00  0.00    +0.210 HD
ENDBRANCH  15  17
ENDBRANCH  14  15
ENDBRANCH   7  14
TORSDOF 4
