REMARK  Name = NuBBE_1764
REMARK  10 active torsions:
REMARK  status: ('A' for Active; 'I' for Inactive)
REMARK    1  A    between atoms: C_1  and  O_2
REMARK    2  A    between atoms: O_2  and  C_3
REMARK    3  A    between atoms: C_4  and  C_6
REMARK    4  A    between atoms: C_15  and  C_17
REMARK    5  A    between atoms: C_18  and  C_19
REMARK    6  A    between atoms: C_19  and  C_20
REMARK    7  A    between atoms: C_23  and  O_25
REMARK    8  A    between atoms: O_25  and  C_26
REMARK    9  A    between atoms: C_27  and  O_29
REMARK   10  A    between atoms: C_30  and  O_32
REMARK                            x       y       z     vdW  Elec       q    Type
REMARK                         _______ _______ _______ _____ _____    ______ ____
ROOT
ATOM      1  C   LIG A   1      -0.968  -0.732  -0.396  0.00  0.00    +0.130 C 
ATOM      2  C   LIG A   1      -0.302  -0.127   0.899  0.00  0.00    +0.060 C 
ATOM      3  C   LIG A   1       0.073   1.323   0.442  0.00  0.00    +0.005 C 
ATOM      4  C   LIG A   1      -0.688   2.372   1.263  0.00  0.00    +0.009 C 
ATOM      5  C   LIG A   1      -0.109   1.367  -1.133  0.00  0.00    +0.009 C 
ATOM      6  C   LIG A   1      -1.494   1.940  -1.585  0.00  0.00    +0.044 C 
ATOM      7  C   LIG A   1      -2.589   0.858  -1.743  0.00  0.00    +0.150 C 
ATOM      8  C   LIG A   1      -2.452  -0.229  -0.648  0.00  0.00    +0.178 C 
ATOM      9  C   LIG A   1      -0.071  -0.136  -1.516  0.00  0.00    +0.156 C 
ENDROOT
BRANCH   2  10
ATOM     10  C   LIG A   1       0.919  -0.802   1.572  0.00  0.00    -0.037 A 
ATOM     11  C   LIG A   1       1.454  -0.233   2.761  0.00  0.00    +0.008 A 
ATOM     12  C   LIG A   1       2.561  -0.791   3.421  0.00  0.00    +0.050 A 
ATOM     13  C   LIG A   1       3.117  -1.932   2.893  0.00  0.00    +0.166 A 
ATOM     14  O   LIG A   1       4.183  -2.617   3.385  0.00  0.00    -0.453 OA
ATOM     15  C   LIG A   1       4.285  -3.688   2.421  0.00  0.00    +0.466 C 
ATOM     16  O   LIG A   1       3.272  -3.638   1.398  0.00  0.00    -0.453 OA
ATOM     17  C   LIG A   1       2.605  -2.510   1.762  0.00  0.00    +0.167 A 
ATOM     18  C   LIG A   1       1.523  -1.976   1.095  0.00  0.00    +0.053 A 
ENDBRANCH   2  10
BRANCH   1  20
ATOM     19  C   LIG A   1      -1.644  -2.815   0.622  0.00  0.00    +0.195 C 
ATOM     20  O   LIG A   1      -0.973  -2.171  -0.462  0.00  0.00    -0.371 OA
ENDBRANCH   1  20
BRANCH   7  21
ATOM     21  O   LIG A   1      -2.454   0.337  -3.079  0.00  0.00    -0.377 OA
ATOM     22  C   LIG A   1      -3.395  -0.649  -3.477  0.00  0.00    +0.194 C 
ENDBRANCH   7  21
BRANCH   8  23
ATOM     23  O   LIG A   1      -3.097   0.209   0.554  0.00  0.00    -0.386 OA
ATOM     24  H   LIG A   1      -4.035   0.362   0.342  0.00  0.00    +0.210 HD
ENDBRANCH   8  23
BRANCH   9  25
ATOM     25  O   LIG A   1       1.245  -0.675  -1.520  0.00  0.00    -0.388 OA
ATOM     26  H   LIG A   1       1.128  -1.625  -1.712  0.00  0.00    +0.210 HD
ENDBRANCH   9  25
BRANCH   5  27
ATOM     27  C   LIG A   1       1.064   2.146  -1.790  0.00  0.00    +0.036 C 
BRANCH  27  28
ATOM     28  C   LIG A   1       1.170   3.610  -1.403  0.00  0.00    -0.034 C 
ATOM     29  C   LIG A   1       1.994   4.084  -0.463  0.00  0.00    +0.004 C 
ENDBRANCH  27  28
ENDBRANCH   5  27
TORSDOF 7
