@<TRIPOS>MOLECULE
NuBBE_392
 99 103 0 0 0
SMALL
GASTEIGER

@<TRIPOS>ATOM
      1 C           0.7348   -3.4863    3.1791 C.3     1  LIG1       -0.0556
      2 C           0.7528   -2.9797    1.7118 C.3     1  LIG1       -0.0078
      3 C          -0.6748   -2.9547    1.1774 C.2     1  LIG1       -0.0648
      4 C          -1.1691   -4.1243    0.3476 C.3     1  LIG1       -0.0047
      5 C          -0.1921   -4.6653   -0.7165 C.3     1  LIG1        0.0655
      6 H          -0.2360   -5.7482   -0.5760 H       1  LIG1        0.0600
      7 C           1.2490   -4.1870   -0.5266 C.3     1  LIG1       -0.0254
      8 C           1.6409   -3.9868    0.9301 C.3     1  LIG1       -0.0413
      9 O          -0.6707   -4.4003   -2.0543 O.3     1  LIG1       -0.3451
     10 C           0.1354   -4.9455   -3.1141 C.3     1  LIG1        0.1882
     11 H           1.1231   -4.4756   -3.0513 H       1  LIG1        0.0937
     12 O          -0.3375   -4.4893   -4.3938 O.3     1  LIG1       -0.3405
     13 C          -1.4457   -5.1999   -4.9685 C.3     1  LIG1        0.1130
     14 H          -1.4957   -4.8210   -5.9984 H       1  LIG1        0.0647
     15 C          -1.1779   -6.7102   -5.0358 C.3     1  LIG1        0.1119
     16 H          -2.0475   -7.2308   -5.4522 H       1  LIG1        0.0647
     17 C          -0.8311   -7.2727   -3.6549 C.3     1  LIG1        0.1141
     18 H          -0.5213   -8.3175   -3.7761 H       1  LIG1        0.0648
     19 O          -1.9810   -7.2720   -2.8116 O.3     1  LIG1       -0.3864
     20 O          -0.0596   -6.9612   -5.9116 O.3     1  LIG1       -0.3865
     21 C          -2.7764   -4.8502   -4.2914 C.3     1  LIG1        0.0730
     22 O          -3.0669   -3.4660   -4.4862 O.3     1  LIG1       -0.3924
     23 C           0.3414   -6.4872   -3.0519 C.3     1  LIG1        0.1341
     24 H           0.4804   -6.8194   -2.0236 H       1  LIG1        0.0671
     25 O           1.5609   -6.8489   -3.7231 O.3     1  LIG1       -0.3841
     26 C          -1.4724   -1.9195    1.4614 C.2     1  LIG1       -0.0839
     27 C          -1.0557   -0.7165    2.2649 C.3     1  LIG1       -0.0311
     28 C           0.4696   -0.5068    2.4903 C.3     1  LIG1       -0.0307
     29 H           0.6416   -0.7408    3.5513 H       1  LIG1        0.0309
     30 C           1.3351   -1.5026    1.6677 C.3     1  LIG1       -0.0285
     31 H           2.3285   -1.5301    2.1403 H       1  LIG1        0.0312
     32 C           1.5364   -0.9898    0.2295 C.3     1  LIG1       -0.0486
     33 C           2.0714    0.4281    0.1667 C.3     1  LIG1       -0.0468
     34 C           1.2148    1.4908    0.8954 C.3     1  LIG1       -0.0256
     35 C           0.8671    0.9947    2.3322 C.3     1  LIG1       -0.0320
     36 H           0.0304    1.5940    2.7232 H       1  LIG1        0.0309
     37 C           2.0924    1.4310    3.1426 C.3     1  LIG1       -0.0492
     38 C           2.3232    2.8572    2.6373 C.3     1  LIG1       -0.0489
     39 C           2.1616    2.7534    1.1067 C.3     1  LIG1       -0.0294
     40 H           3.1602    2.4532    0.7556 H       1  LIG1        0.0312
     41 C           1.9021    4.0830    0.3263 C.3     1  LIG1       -0.0224
     42 H           1.7327    3.8134   -0.7252 H       1  LIG1        0.0343
     43 C           0.7132    4.8963    0.8132 C.2     1  LIG1       -0.0845
     44 C          -0.1191    5.6200    0.0602 C.2     1  LIG1       -0.0843
     45 C          -1.3052    6.4293    0.6131 C.3     1  LIG1       -0.0208
     46 H          -1.7583    6.9460   -0.2410 H       1  LIG1        0.0345
     47 C          -0.8311    7.5233    1.6323 C.3     1  LIG1       -0.0405
     48 C           0.2843    8.4033    1.0390 C.3     1  LIG1       -0.0621
     49 C          -1.9230    8.4920    2.1064 C.3     1  LIG1       -0.0621
     50 C          -2.3451    5.4052    1.1450 C.3     1  LIG1       -0.0494
     51 C          -3.6943    5.9430    1.5952 C.3     1  LIG1       -0.0647
     52 C           3.1603    4.9791    0.3228 C.3     1  LIG1       -0.0587
     53 C          -0.0868    1.7554    0.1252 C.3     1  LIG1       -0.0590
     54 H           0.3687   -4.5196    3.2396 H       1  LIG1        0.0238
     55 H           0.0889   -2.8927    3.8320 H       1  LIG1        0.0238
     56 H           1.7456   -3.4705    3.6042 H       1  LIG1        0.0238
     57 H          -2.1341   -3.8931   -0.1215 H       1  LIG1        0.0335
     58 H          -1.3652   -4.9382    1.0588 H       1  LIG1        0.0335
     59 H           1.4051   -3.2749   -1.1045 H       1  LIG1        0.0290
     60 H           1.9335   -4.9251   -0.9639 H       1  LIG1        0.0290
     61 H           2.6923   -3.6785    0.9847 H       1  LIG1        0.0274
     62 H           1.6075   -4.9763    1.4097 H       1  LIG1        0.0274
     63 H          -1.7315   -7.6728   -1.9601 H       1  LIG1        0.2100
     64 H          -0.2852   -6.5861   -6.7835 H       1  LIG1        0.2100
     65 H          -3.5934   -5.4277   -4.7354 H       1  LIG1        0.0584
     66 H          -2.7722   -5.0272   -3.2159 H       1  LIG1        0.0584
     67 H          -2.3091   -2.9875   -4.0973 H       1  LIG1        0.2095
     68 H           1.3668   -6.8144   -4.6852 H       1  LIG1        0.2101
     69 H          -2.5050   -1.9112    1.1036 H       1  LIG1        0.0572
     70 H          -1.5406   -0.7982    3.2520 H       1  LIG1        0.0310
     71 H          -1.5139    0.1646    1.8113 H       1  LIG1        0.0310
     72 H           0.6158   -1.0621   -0.3570 H       1  LIG1        0.0268
     73 H           2.2869   -1.6117   -0.2675 H       1  LIG1        0.0268
     74 H           2.2095    0.7197   -0.8819 H       1  LIG1        0.0271
     75 H           3.0799    0.3918    0.6015 H       1  LIG1        0.0271
     76 H           2.9648    0.8003    2.9398 H       1  LIG1        0.0268
     77 H           1.9016    1.4146    4.2200 H       1  LIG1        0.0268
     78 H           3.3101    3.2341    2.9217 H       1  LIG1        0.0268
     79 H           1.5730    3.5146    3.0862 H       1  LIG1        0.0268
     80 H           0.5536    4.8988    1.8929 H       1  LIG1        0.0572
     81 H           0.0406    5.6729   -1.0234 H       1  LIG1        0.0572
     82 H          -0.4289    7.0233    2.5224 H       1  LIG1        0.0301
     83 H          -0.0409    8.8649    0.1001 H       1  LIG1        0.0233
     84 H           1.2003    7.8376    0.8508 H       1  LIG1        0.0233
     85 H           0.5506    9.2100    1.7319 H       1  LIG1        0.0233
     86 H          -2.4852    8.9091    1.2652 H       1  LIG1        0.0233
     87 H          -1.4837    9.3278    2.6641 H       1  LIG1        0.0233
     88 H          -2.6142    8.0348    2.8101 H       1  LIG1        0.0233
     89 H          -1.9166    4.8282    1.9725 H       1  LIG1        0.0268
     90 H          -2.5515    4.6814    0.3429 H       1  LIG1        0.0268
     91 H          -3.6329    6.4283    2.5683 H       1  LIG1        0.0230
     92 H          -4.3971    5.1152    1.7380 H       1  LIG1        0.0230
     93 H          -4.1229    6.6336    0.8638 H       1  LIG1        0.0230
     94 H           3.0186    5.8551   -0.3234 H       1  LIG1        0.0235
     95 H           4.0285    4.4381   -0.0748 H       1  LIG1        0.0235
     96 H           3.4227    5.3440    1.3218 H       1  LIG1        0.0235
     97 H          -0.6556    0.8326   -0.0253 H       1  LIG1        0.0235
     98 H           0.0881    2.1684   -0.8708 H       1  LIG1        0.0235
     99 H          -0.7431    2.4383    0.6760 H       1  LIG1        0.0235
@<TRIPOS>BOND
     1     2     3    1
     2     3     4    1
     3     4     5    1
     4     5     7    1
     5     7     8    1
     6     2     8    1
     7     9    10    1
     8    10    11    1
     9    10    12    1
    10    12    13    1
    11    13    15    1
    12    15    16    1
    13    15    17    1
    14    15    20    1
    15    21    22    1
    16    10    23    1
    17    17    23    1
    18     3    26    2
    19    26    27    1
    20    27    28    1
    21    28    30    1
    22     2    30    1
    23    30    32    1
    24    32    33    1
    25    33    34    1
    26    34    35    1
    27    28    35    1
    28    35    37    1
    29    37    38    1
    30    38    39    1
    31    34    39    1
    32    41    42    1
    33    41    43    1
    34    43    44    2
    35    45    47    1
    36    47    48    1
    37    47    49    1
    38    45    50    1
    39    50    51    1
    40    41    52    1
    41     1     2    1
    42    28    29    1
    43    30    31    1
    44    34    53    1
    45    35    36    1
    46     5     9    1
    47     5     6    1
    48    13    21    1
    49    13    14    1
    50    17    19    1
    51    17    18    1
    52    23    25    1
    53    23    24    1
    54    39    41    1
    55    39    40    1
    56    45    46    1
    57    45    44    1
    58     1    54    1
    59     1    55    1
    60     1    56    1
    61     4    57    1
    62     4    58    1
    63     7    59    1
    64     7    60    1
    65     8    61    1
    66     8    62    1
    67    19    63    1
    68    20    64    1
    69    21    65    1
    70    21    66    1
    71    22    67    1
    72    25    68    1
    73    26    69    1
    74    27    70    1
    75    27    71    1
    76    32    72    1
    77    32    73    1
    78    33    74    1
    79    33    75    1
    80    37    76    1
    81    37    77    1
    82    38    78    1
    83    38    79    1
    84    43    80    1
    85    44    81    1
    86    47    82    1
    87    48    83    1
    88    48    84    1
    89    48    85    1
    90    49    86    1
    91    49    87    1
    92    49    88    1
    93    50    89    1
    94    50    90    1
    95    51    91    1
    96    51    92    1
    97    51    93    1
    98    52    94    1
    99    52    95    1
   100    52    96    1
   101    53    97    1
   102    53    98    1
   103    53    99    1
