REMARK  Name = NuBBE_1165
REMARK  7 active torsions:
REMARK  status: ('A' for Active; 'I' for Inactive)
REMARK    1  A    between atoms: C_1  and  C_2
REMARK    2  A    between atoms: C_2  and  C_3
REMARK    3  A    between atoms: C_4  and  C_5
REMARK    4  A    between atoms: C_5  and  C_6
REMARK    5  A    between atoms: C_7  and  O_8
REMARK    6  A    between atoms: O_8  and  C_9
REMARK    7  A    between atoms: N_12  and  C_13
REMARK                            x       y       z     vdW  Elec       q    Type
REMARK                         _______ _______ _______ _____ _____    ______ ____
ROOT
ATOM      1  C   LIG A   1       0.643  -0.396   0.046  0.00  0.00    +0.063 A 
ATOM      2  C   LIG A   1       0.645   0.952   0.201  0.00  0.00    +0.138 A 
ATOM      3  C   LIG A   1       1.026   1.845  -0.924  0.00  0.00    +0.041 A 
ATOM      4  C   LIG A   1       1.364   1.303  -2.169  0.00  0.00    +0.055 A 
ATOM      5  N   LIG A   1       1.378  -0.108  -2.324  0.00  0.00    -0.311 N 
ATOM      6  C   LIG A   1       1.712  -0.681  -3.622  0.00  0.00    +0.152 C 
ATOM      7  C   LIG A   1       1.085  -0.967  -1.277  0.00  0.00    +0.259 A 
ATOM      8  O   LIG A   1       1.162  -2.200  -1.403  0.00  0.00    -0.267 OA
ATOM      9  C   LIG A   1       1.681   2.167  -3.239  0.00  0.00    +0.026 A 
ATOM     10  C   LIG A   1       1.675   3.553  -3.077  0.00  0.00    +0.002 A 
ATOM     11  C   LIG A   1       1.346   4.096  -1.845  0.00  0.00    +0.001 A 
ATOM     12  C   LIG A   1       1.021   3.250  -0.782  0.00  0.00    +0.013 A 
ENDROOT
BRANCH   2  13
ATOM     13  O   LIG A   1       0.309   1.661   1.335  0.00  0.00    -0.494 OA
ATOM     14  C   LIG A   1      -0.727   1.158   2.161  0.00  0.00    +0.277 C 
ENDBRANCH   2  13
BRANCH   1  15
ATOM     15  C   LIG A   1       0.330  -1.464   1.101  0.00  0.00    +0.071 C 
BRANCH  15  19
ATOM     16  C   LIG A   1      -3.359  -2.558   2.041  0.00  0.00    +0.038 C 
ATOM     17  C   LIG A   1      -1.891  -2.236   2.207  0.00  0.00    -0.079 C 
ATOM     18  C   LIG A   1      -1.415  -2.411   3.624  0.00  0.00    +0.038 C 
ATOM     19  C   LIG A   1      -1.139  -1.856   1.148  0.00  0.00    -0.023 C 
ENDBRANCH  15  19
ENDBRANCH   1  15
TORSDOF 3
