@<TRIPOS>MOLECULE
NuBBE_421
 45 45 0 0 0
SMALL
GASTEIGER

@<TRIPOS>ATOM
      1 C          -2.7341   -0.6696   -1.5573 C.3     1  LIG1       -0.0438
      2 C          -1.2774   -0.3071   -1.6675 C.2     1  LIG1       -0.0759
      3 C          -0.3679   -1.4316   -2.1324 C.3     1  LIG1       -0.0286
      4 C          -0.3701   -2.6255   -1.1697 C.3     1  LIG1       -0.0308
      5 C           0.5625   -3.7062   -1.6391 C.2     1  LIG1       -0.0850
      6 C           1.8540   -3.8674   -1.2942 C.2     1  LIG1       -0.0796
      7 C           2.6157   -2.9550   -0.3730 C.3     1  LIG1       -0.0440
      8 C           2.6617   -5.0057   -1.8562 C.3     1  LIG1       -0.0440
      9 C          -0.7524    0.9022   -1.3823 C.2     1  LIG1       -0.0806
     10 C          -1.4416    2.1364   -0.8649 C.3     1  LIG1       -0.0058
     11 C          -1.0078    2.4560    0.5519 C.ar    1  LIG1       -0.0012
     12 C           0.1284    3.2423    0.8266 C.ar    1  LIG1        0.1236
     13 O           0.7935    3.7697   -0.2503 O.3     1  LIG1       -0.4948
     14 C           2.1945    3.9674   -0.0821 C.3     1  LIG1        0.0788
     15 C           0.4974    3.4910    2.1536 C.ar    1  LIG1       -0.0189
     16 C          -0.2345    2.9403    3.2082 C.ar    1  LIG1       -0.0443
     17 C          -1.3422    2.1345    2.9451 C.ar    1  LIG1        0.0593
     18 C          -2.1143    1.5110    4.0436 C.2     1  LIG1        0.3368
     19 O          -2.0130    2.2140    5.1888 O.3     1  LIG1       -0.4771
     20 O          -2.7987    0.5159    3.9633 O.2     1  LIG1       -0.2451
     21 C          -1.7248    1.8879    1.6234 C.ar    1  LIG1       -0.0408
     22 H          -3.0778   -1.1356   -2.4875 H       1  LIG1        0.0274
     23 H          -3.3847    0.1854   -1.3672 H       1  LIG1        0.0274
     24 H          -2.8867   -1.3818   -0.7402 H       1  LIG1        0.0274
     25 H           0.6621   -1.0645   -2.2412 H       1  LIG1        0.0313
     26 H          -0.6792   -1.7533   -3.1346 H       1  LIG1        0.0313
     27 H          -1.3738   -3.0638   -1.1089 H       1  LIG1        0.0310
     28 H          -0.1288   -2.3020   -0.1508 H       1  LIG1        0.0310
     29 H           0.1108   -4.4159   -2.3318 H       1  LIG1        0.0572
     30 H           2.0204   -2.1188    0.0016 H       1  LIG1        0.0274
     31 H           3.4759   -2.5273   -0.8987 H       1  LIG1        0.0274
     32 H           2.9822   -3.5148    0.4934 H       1  LIG1        0.0274
     33 H           2.0735   -5.6406   -2.5274 H       1  LIG1        0.0274
     34 H           3.0407   -5.6375   -1.0467 H       1  LIG1        0.0274
     35 H           3.5125   -4.6186   -2.4262 H       1  LIG1        0.0274
     36 H           0.3212    1.0411   -1.5155 H       1  LIG1        0.0575
     37 H          -2.5322    2.0453   -0.8911 H       1  LIG1        0.0357
     38 H          -1.2186    2.9789   -1.5309 H       1  LIG1        0.0357
     39 H           2.5996    4.3110   -1.0389 H       1  LIG1        0.0660
     40 H           2.6936    3.0276    0.1776 H       1  LIG1        0.0660
     41 H           2.4125    4.7455    0.6555 H       1  LIG1        0.0660
     42 H           1.3427    4.1233    2.4026 H       1  LIG1        0.0654
     43 H           0.0731    3.1394    4.2322 H       1  LIG1        0.0627
     44 H          -2.5830    1.7256    5.8178 H       1  LIG1        0.2954
     45 H          -2.5850    1.2511    1.4212 H       1  LIG1        0.0630
@<TRIPOS>BOND
     1     1     2    1
     2     2     3    1
     3     3     4    1
     4     4     5    1
     5     5     6    2
     6     6     7    1
     7     6     8    1
     8     2     9    2
     9     9    10    1
    10    10    11    1
    11    11    12   ar
    12    12    13    1
    13    13    14    1
    14    12    15   ar
    15    15    16   ar
    16    16    17   ar
    17    17    18    1
    18    18    19    1
    19    18    20    2
    20    17    21   ar
    21    11    21   ar
    22     1    22    1
    23     1    23    1
    24     1    24    1
    25     3    25    1
    26     3    26    1
    27     4    27    1
    28     4    28    1
    29     5    29    1
    30     7    30    1
    31     7    31    1
    32     7    32    1
    33     8    33    1
    34     8    34    1
    35     8    35    1
    36     9    36    1
    37    10    37    1
    38    10    38    1
    39    14    39    1
    40    14    40    1
    41    14    41    1
    42    15    42    1
    43    16    43    1
    44    19    44    1
    45    21    45    1
