REMARK  Name = NuBBE_348
REMARK  5 active torsions:
REMARK  status: ('A' for Active; 'I' for Inactive)
REMARK    1  A    between atoms: C_3  and  C_4
REMARK    2  A    between atoms: C_3  and  O_5
REMARK    3  A    between atoms: C_6  and  O_8
REMARK    4  A    between atoms: C_12  and  C_13
REMARK    5  A    between atoms: C_16  and  C_17
REMARK                            x       y       z     vdW  Elec       q    Type
REMARK                         _______ _______ _______ _____ _____    ______ ____
ROOT
ATOM      1  O   LIG A   1      -3.262   0.532   0.194  0.00  0.00    -0.289 OA
ATOM      2  C   LIG A   1      -2.045   0.515  -0.001  0.00  0.00    +0.201 C 
ATOM      3  C   LIG A   1      -1.258   1.776  -0.392  0.00  0.00    +0.155 C 
ATOM      4  C   LIG A   1      -2.066   3.030  -0.039  0.00  0.00    +0.053 C 
ATOM      5  C   LIG A   1       0.083   1.755   0.361  0.00  0.00    +0.187 C 
ATOM      6  C   LIG A   1       0.803   0.457   0.134  0.00  0.00    +0.027 C 
ATOM      7  C   LIG A   1       2.137   0.400  -0.029  0.00  0.00    +0.202 C 
ATOM      8  O   LIG A   1       2.853  -0.766  -0.198  0.00  0.00    -0.468 OA
ATOM      9  C   LIG A   1       2.175  -1.974  -0.066  0.00  0.00    +0.102 C 
ATOM     10  C   LIG A   1       3.061  -3.178  -0.097  0.00  0.00    +0.086 C 
ATOM     11  C   LIG A   1       0.839  -2.037   0.082  0.00  0.00    +0.050 C 
ATOM     12  C   LIG A   1       0.040  -0.805   0.075  0.00  0.00    +0.000 C 
ATOM     13  C   LIG A   1      -1.315  -0.794   0.047  0.00  0.00    +0.067 C 
ENDROOT
BRANCH   3  14
ATOM     14  O   LIG A   1      -1.041   1.829  -1.810  0.00  0.00    -0.378 OA
ATOM     15  H   LIG A   1      -0.497   1.068  -2.082  0.00  0.00    +0.211 HD
ENDBRANCH   3  14
BRANCH   5  16
ATOM     16  O   LIG A   1      -0.097   1.897   1.770  0.00  0.00    -0.384 OA
ATOM     17  H   LIG A   1      -0.140   2.850   1.968  0.00  0.00    +0.210 HD
ENDBRANCH   5  16
BRANCH  13  18
ATOM     18  C   LIG A   1      -2.177  -2.016   0.041  0.00  0.00    +0.263 C 
ATOM     19  O   LIG A   1      -1.822  -3.125  -0.340  0.00  0.00    -0.296 OA
ENDBRANCH  13  18
TORSDOF 3
