@<TRIPOS>MOLECULE
NuBBE_2133
 36 36 0 0 0
SMALL
GASTEIGER

@<TRIPOS>ATOM
      1 C          -2.4376   -0.1633   -3.2899 C.3     1  LIG1       -0.0653
      2 C          -1.3495    0.8398   -3.6295 C.3     1  LIG1       -0.0559
      3 C          -0.9326    1.6944   -2.4388 C.3     1  LIG1       -0.0533
      4 C          -0.4706    0.9121   -1.2095 C.3     1  LIG1       -0.0531
      5 C           0.8165    0.1092   -1.3813 C.3     1  LIG1       -0.0528
      6 C           1.2164   -0.7134   -0.1447 C.3     1  LIG1       -0.0502
      7 C           1.6373    0.0527    1.1390 C.3     1  LIG1       -0.0410
      8 C           0.5757    0.9230    1.8271 C.3     1  LIG1       -0.0502
      9 C          -0.6394    0.1010    2.2450 C.3     1  LIG1       -0.0528
     10 C          -0.2153   -0.9466    3.2674 C.3     1  LIG1       -0.0530
     11 C           0.9761   -1.7892    2.7976 C.3     1  LIG1       -0.0528
     12 C           2.1243   -0.9482    2.2125 C.3     1  LIG1       -0.0502
     13 H          -2.8073   -0.6424   -4.2034 H       1  LIG1        0.0230
     14 H          -3.2848    0.3211   -2.7940 H       1  LIG1        0.0230
     15 H          -2.0604   -0.9573   -2.6344 H       1  LIG1        0.0230
     16 H          -1.7164    1.5111   -4.4130 H       1  LIG1        0.0263
     17 H          -0.4786    0.3184   -4.0432 H       1  LIG1        0.0263
     18 H          -1.7873    2.3098   -2.1328 H       1  LIG1        0.0265
     19 H          -0.1437    2.3872   -2.7423 H       1  LIG1        0.0265
     20 H          -1.2750    0.2718   -0.8375 H       1  LIG1        0.0265
     21 H          -0.3113    1.6893   -0.4728 H       1  LIG1        0.0265
     22 H           1.6408    0.7682   -1.6682 H       1  LIG1        0.0265
     23 H           0.6818   -0.6012   -2.2078 H       1  LIG1        0.0265
     24 H           2.0730   -1.3304   -0.4476 H       1  LIG1        0.0268
     25 H           0.4135   -1.4277    0.0700 H       1  LIG1        0.0268
     26 H           2.4861    0.6991    0.8718 H       1  LIG1        0.0301
     27 H           0.2916    1.7918    1.2410 H       1  LIG1        0.0268
     28 H           1.0156    1.3710    2.7280 H       1  LIG1        0.0268
     29 H          -1.1046   -0.3870    1.3840 H       1  LIG1        0.0265
     30 H          -1.4022    0.7567    2.6779 H       1  LIG1        0.0265
     31 H          -1.0623   -1.6038    3.5013 H       1  LIG1        0.0265
     32 H           0.0544   -0.4363    4.1990 H       1  LIG1        0.0265
     33 H           0.6336   -2.5113    2.0488 H       1  LIG1        0.0265
     34 H           1.3546   -2.3759    3.6432 H       1  LIG1        0.0265
     35 H           2.8974   -1.6073    1.8078 H       1  LIG1        0.0268
     36 H           2.5901   -0.3865    3.0292 H       1  LIG1        0.0268
@<TRIPOS>BOND
     1     1     2    1
     2     2     3    1
     3     3     4    1
     4     4     5    1
     5     5     6    1
     6     6     7    1
     7     7     8    1
     8     8     9    1
     9     9    10    1
    10    10    11    1
    11    11    12    1
    12     7    12    1
    13     1    13    1
    14     1    14    1
    15     1    15    1
    16     2    16    1
    17     2    17    1
    18     3    18    1
    19     3    19    1
    20     4    20    1
    21     4    21    1
    22     5    22    1
    23     5    23    1
    24     6    24    1
    25     6    25    1
    26     7    26    1
    27     8    27    1
    28     8    28    1
    29     9    29    1
    30     9    30    1
    31    10    31    1
    32    10    32    1
    33    11    33    1
    34    11    34    1
    35    12    35    1
    36    12    36    1
