@<TRIPOS>MOLECULE
NuBBE_2327
 98 102 0 0 0
SMALL
GASTEIGER

@<TRIPOS>ATOM
      1 C          -4.6582   -5.0332    6.7492 C.3     1  LIG1       -0.0624
      2 C          -3.8250   -3.8142    7.1613 C.3     1  LIG1       -0.0441
      3 C          -3.2547   -4.0837    8.5676 C.3     1  LIG1       -0.0624
      4 C          -2.7228   -3.4314    6.1111 C.3     1  LIG1       -0.0415
      5 C          -1.7196   -4.5704    5.9072 C.3     1  LIG1       -0.0622
      6 C          -3.3331   -2.9786    4.7433 C.3     1  LIG1       -0.0500
      7 C          -2.2938   -2.6140    3.6453 C.3     1  LIG1       -0.0499
      8 C          -2.8930   -2.1659    2.2700 C.3     1  LIG1       -0.0405
      9 C          -3.7069   -0.8867    2.4993 C.3     1  LIG1       -0.0621
     10 C          -1.7766   -2.0163    1.1556 C.3     1  LIG1       -0.0325
     11 C          -1.0901   -3.3529    0.8402 C.3     1  LIG1       -0.0489
     12 C          -0.3777   -3.1973   -0.4980 C.3     1  LIG1       -0.0466
     13 C          -0.9865   -1.9654   -1.2365 C.3     1  LIG1       -0.0231
     14 C          -1.4648   -2.4751   -2.6267 C.3     1  LIG1       -0.0588
     15 C           0.1676   -0.8989   -1.4115 C.3     1  LIG1       -0.0289
     16 C           1.0903   -1.1667   -2.6137 C.3     1  LIG1       -0.0489
     17 C           2.1806   -0.1116   -2.7509 C.3     1  LIG1       -0.0488
     18 C           1.5496    1.2527   -3.0763 C.3     1  LIG1       -0.0263
     19 C           2.5590    2.3861   -3.4828 C.3     1  LIG1        0.0055
     20 C           2.0968    3.0381   -4.8153 C.3     1  LIG1       -0.0562
     21 C           3.9653    1.8166   -3.7946 C.3     1  LIG1       -0.0562
     22 C           2.6372    3.4638   -2.3547 C.3     1  LIG1        0.1088
     23 H           3.0639    3.0062   -1.4467 H       1  LIG1        0.0739
     24 O           3.4350    4.5733   -2.7716 O.3     1  LIG1       -0.4576
     25 C           4.7691    4.5285   -2.5852 C.2     1  LIG1        0.3348
     26 C           5.3952    5.6720   -3.3112 C.2     1  LIG1        0.0293
     27 C           4.5267    6.7595   -3.8483 C.3     1  LIG1       -0.0333
     28 C           6.7403    5.6297   -3.4466 C.2     1  LIG1       -0.0774
     29 C           7.5870    6.6560   -4.1221 C.3     1  LIG1       -0.0461
     30 O           5.3773    3.6549   -1.9782 O.2     1  LIG1       -0.2453
     31 C           1.2602    4.0631   -1.9670 C.3     1  LIG1       -0.0146
     32 C           0.0836    3.1168   -2.2036 C.3     1  LIG1       -0.0432
     33 C           0.5645    1.7025   -1.9919 C.3     1  LIG1       -0.0192
     34 C          -0.2811    0.5649   -1.3961 C.3     1  LIG1       -0.0194
     35 C           0.6464    1.3868   -0.5191 C.3     1  LIG1       -0.0401
     36 C          -1.7635    0.7654   -1.4083 C.3     1  LIG1       -0.0460
     37 C          -2.3555    0.0526   -0.2193 C.3     1  LIG1       -0.0463
     38 C          -2.1836   -1.4867   -0.2753 C.3     1  LIG1       -0.0233
     39 C          -3.5360   -2.0795   -0.7444 C.3     1  LIG1       -0.0588
     40 H          -5.5024   -5.1689    7.4344 H       1  LIG1        0.0232
     41 H          -4.0619   -5.9509    6.7792 H       1  LIG1        0.0232
     42 H          -5.0758   -4.9263    5.7462 H       1  LIG1        0.0232
     43 H          -4.5099   -2.9604    7.2570 H       1  LIG1        0.0298
     44 H          -2.4987   -4.8746    8.5673 H       1  LIG1        0.0232
     45 H          -4.0460   -4.4155    9.2512 H       1  LIG1        0.0232
     46 H          -2.8051   -3.1828    8.9960 H       1  LIG1        0.0232
     47 H          -2.1744   -2.5708    6.5208 H       1  LIG1        0.0301
     48 H          -2.1971   -5.4268    5.4220 H       1  LIG1        0.0232
     49 H          -1.2839   -4.9073    6.8502 H       1  LIG1        0.0232
     50 H          -0.8779   -4.2528    5.2870 H       1  LIG1        0.0232
     51 H          -3.9839   -2.1205    4.9469 H       1  LIG1        0.0268
     52 H          -3.9715   -3.7711    4.3404 H       1  LIG1        0.0268
     53 H          -1.6675   -3.4902    3.4647 H       1  LIG1        0.0268
     54 H          -1.6412   -1.8200    4.0291 H       1  LIG1        0.0268
     55 H          -3.5864   -2.9505    1.9393 H       1  LIG1        0.0301
     56 H          -3.0858   -0.0943    2.9282 H       1  LIG1        0.0233
     57 H          -4.5440   -1.0708    3.1787 H       1  LIG1        0.0233
     58 H          -4.1691   -0.5064    1.5915 H       1  LIG1        0.0233
     59 H          -0.9998   -1.3482    1.5561 H       1  LIG1        0.0309
     60 H          -1.8191   -4.1670    0.7705 H       1  LIG1        0.0268
     61 H          -0.3635   -3.6246    1.6136 H       1  LIG1        0.0268
     62 H          -0.4714   -4.1234   -1.0777 H       1  LIG1        0.0271
     63 H           0.6996   -3.0798   -0.3248 H       1  LIG1        0.0271
     64 H          -0.6484   -2.9342   -3.1968 H       1  LIG1        0.0235
     65 H          -1.8891   -1.6726   -3.2364 H       1  LIG1        0.0235
     66 H          -2.2082   -3.2740   -2.5418 H       1  LIG1        0.0235
     67 H           0.8027   -1.0119   -0.5214 H       1  LIG1        0.0312
     68 H           0.5227   -1.1613   -3.5523 H       1  LIG1        0.0268
     69 H           1.5574   -2.1534   -2.5206 H       1  LIG1        0.0268
     70 H           2.8254   -0.4436   -3.5700 H       1  LIG1        0.0268
     71 H           2.7947   -0.0670   -1.8449 H       1  LIG1        0.0268
     72 H           0.9198    1.0763   -3.9608 H       1  LIG1        0.0313
     73 H           1.9867    2.2777   -5.5967 H       1  LIG1        0.0236
     74 H           2.8269    3.7706   -5.1812 H       1  LIG1        0.0236
     75 H           1.1401    3.5574   -4.7289 H       1  LIG1        0.0236
     76 H           3.9271    1.0386   -4.5587 H       1  LIG1        0.0236
     77 H           4.4337    1.4013   -2.8940 H       1  LIG1        0.0236
     78 H           4.6366    2.5786   -4.2032 H       1  LIG1        0.0236
     79 H           3.5017    6.7325   -3.4761 H       1  LIG1        0.0280
     80 H           4.4837    6.7051   -4.9380 H       1  LIG1        0.0280
     81 H           4.9219    7.7477   -3.5598 H       1  LIG1        0.0280
     82 H           7.2955    4.7812   -3.0458 H       1  LIG1        0.0574
     83 H           7.0066    7.4704   -4.5667 H       1  LIG1        0.0272
     84 H           8.1726    6.1909   -4.9196 H       1  LIG1        0.0272
     85 H           8.2808    7.0923   -3.3965 H       1  LIG1        0.0272
     86 H           1.0741    5.0184   -2.4690 H       1  LIG1        0.0301
     87 H           1.3045    4.3132   -0.8982 H       1  LIG1        0.0301
     88 H          -0.3276    3.2305   -3.2094 H       1  LIG1        0.0272
     89 H          -0.7201    3.4086   -1.5174 H       1  LIG1        0.0272
     90 H           1.5814    0.9818   -0.1452 H       1  LIG1        0.0276
     91 H           0.1800    2.0415    0.2124 H       1  LIG1        0.0276
     92 H          -2.1912    0.4021   -2.3487 H       1  LIG1        0.0271
     93 H          -2.0453    1.8194   -1.3399 H       1  LIG1        0.0271
     94 H          -3.4116    0.3361   -0.1632 H       1  LIG1        0.0271
     95 H          -1.8863    0.4592    0.6860 H       1  LIG1        0.0271
     96 H          -3.7796   -1.7402   -1.7589 H       1  LIG1        0.0235
     97 H          -4.3750   -1.7571   -0.1238 H       1  LIG1        0.0235
     98 H          -3.5306   -3.1730   -0.7364 H       1  LIG1        0.0235
@<TRIPOS>BOND
     1     1     2    1
     2     2     3    1
     3     2     4    1
     4     4     5    1
     5     4     6    1
     6     6     7    1
     7     7     8    1
     8     8     9    1
     9     8    10    1
    10    10    11    1
    11    11    12    1
    12    12    13    1
    13    13    14    1
    14    13    15    1
    15    15    16    1
    16    16    17    1
    17    17    18    1
    18    18    19    1
    19    19    20    1
    20    19    21    1
    21    19    22    1
    22    24    25    1
    23    25    26    1
    24    26    27    1
    25    26    28    2
    26    28    29    1
    27    25    30    2
    28    22    31    1
    29    31    32    1
    30    32    33    1
    31    18    33    1
    32    33    34    1
    33    15    34    1
    34    34    35    1
    35    33    35    1
    36    34    36    1
    37    36    37    1
    38    37    38    1
    39    13    38    1
    40    10    38    1
    41    38    39    1
    42    22    24    1
    43    22    23    1
    44     1    40    1
    45     1    41    1
    46     1    42    1
    47     2    43    1
    48     3    44    1
    49     3    45    1
    50     3    46    1
    51     4    47    1
    52     5    48    1
    53     5    49    1
    54     5    50    1
    55     6    51    1
    56     6    52    1
    57     7    53    1
    58     7    54    1
    59     8    55    1
    60     9    56    1
    61     9    57    1
    62     9    58    1
    63    10    59    1
    64    11    60    1
    65    11    61    1
    66    12    62    1
    67    12    63    1
    68    14    64    1
    69    14    65    1
    70    14    66    1
    71    15    67    1
    72    16    68    1
    73    16    69    1
    74    17    70    1
    75    17    71    1
    76    18    72    1
    77    20    73    1
    78    20    74    1
    79    20    75    1
    80    21    76    1
    81    21    77    1
    82    21    78    1
    83    27    79    1
    84    27    80    1
    85    27    81    1
    86    28    82    1
    87    29    83    1
    88    29    84    1
    89    29    85    1
    90    31    86    1
    91    31    87    1
    92    32    88    1
    93    32    89    1
    94    35    90    1
    95    35    91    1
    96    36    92    1
    97    36    93    1
    98    37    94    1
    99    37    95    1
   100    39    96    1
   101    39    97    1
   102    39    98    1
