REMARK  Name = NuBBE_1358
REMARK  0 active torsions:
REMARK  status: ('A' for Active; 'I' for Inactive)
REMARK                            x       y       z     vdW  Elec       q    Type
REMARK                         _______ _______ _______ _____ _____    ______ ____
ROOT
ATOM      1  O   LIG A   1      -1.290   2.692  -1.281  0.00  0.00    -0.276 OA
ATOM      2  C   LIG A   1      -1.287   2.016  -0.268  0.00  0.00    +0.216 C 
ATOM      3  C   LIG A   1      -2.552   1.855   0.545  0.00  0.00    +0.096 C 
ATOM      4  C   LIG A   1      -2.291   1.675   2.025  0.00  0.00    +0.011 C 
ATOM      5  C   LIG A   1      -1.356   0.489   2.203  0.00  0.00    +0.023 C 
ATOM      6  C   LIG A   1      -0.004   0.875   1.586  0.00  0.00    +0.080 C 
ATOM      7  N   LIG A   1      -0.155   1.330   0.189  0.00  0.00    -0.298 N 
ATOM      8  C   LIG A   1       1.086   1.551  -0.537  0.00  0.00    +0.113 C 
ATOM      9  C   LIG A   1       2.097   0.414  -0.381  0.00  0.00    +0.024 C 
ATOM     10  C   LIG A   1       2.396   0.253   1.120  0.00  0.00    +0.013 C 
ATOM     11  C   LIG A   1       1.104  -0.200   1.806  0.00  0.00    +0.024 C 
ATOM     12  C   LIG A   1       0.770  -1.600   1.275  0.00  0.00    +0.090 C 
ATOM     13  N   LIG A   1       0.589  -1.555  -0.158  0.00  0.00    -0.299 NA
ATOM     14  C   LIG A   1      -0.449  -2.377  -0.716  0.00  0.00    +0.085 C 
ATOM     15  C   LIG A   1      -1.123  -1.749  -1.931  0.00  0.00    +0.015 C 
ATOM     16  C   LIG A   1      -0.286  -0.750  -2.723  0.00  0.00    +0.003 C 
ATOM     17  C   LIG A   1       1.215  -0.855  -2.475  0.00  0.00    +0.019 C 
ATOM     18  C   LIG A   1       1.623  -0.949  -0.986  0.00  0.00    +0.061 C 
ENDROOT
TORSDOF 0
