@<TRIPOS>MOLECULE
NuBBE_2355
 55 57 0 0 0
SMALL
GASTEIGER

@<TRIPOS>ATOM
      1 C          -1.0622   -0.6313    1.9005 C.3     1  LIG1       -0.0556
      2 C           0.1051    0.2578    1.4079 C.3     1  LIG1       -0.0075
      3 C          -0.3470    1.7251    1.0694 C.3     1  LIG1       -0.0265
      4 C          -1.2390    1.7588   -0.1812 C.3     1  LIG1       -0.0452
      5 C          -0.4709    1.2394   -1.3953 C.3     1  LIG1       -0.0312
      6 C           0.4033    0.0460   -1.1079 C.2     1  LIG1       -0.0694
      7 C           0.6515   -0.4194    0.1321 C.2     1  LIG1       -0.0641
      8 C           1.5071   -1.6612    0.2733 C.3     1  LIG1       -0.0306
      9 C           1.1642   -2.6789   -0.8107 C.3     1  LIG1       -0.0436
     10 C           1.2648   -2.1107   -2.2447 C.3     1  LIG1       -0.0087
     11 C           0.3714   -2.9006   -3.2529 C.3     1  LIG1        0.0636
     12 C           0.7635   -2.6080   -4.7092 C.3     1  LIG1       -0.0361
     13 O           0.5754   -4.3065   -3.0495 O.3     1  LIG1       -0.3888
     14 C          -1.1291   -2.6400   -3.0694 C.3     1  LIG1       -0.0361
     15 C           1.0606   -0.5804   -2.3144 C.3     1  LIG1       -0.0260
     16 C          -0.8935    2.5598    2.2819 C.3     1  LIG1       -0.0313
     17 C          -0.6493    4.0640    1.9861 C.3     1  LIG1       -0.0595
     18 C          -2.4086    2.4088    2.5269 C.3     1  LIG1       -0.0595
     19 C          -0.1345    2.1893    3.5835 C.3     1  LIG1       -0.0476
     20 C           1.2539    1.6293    3.3073 C.3     1  LIG1       -0.0518
     21 C           1.2007    0.3172    2.5193 C.3     1  LIG1       -0.0436
     22 H          -1.9082   -0.6293    1.2059 H       1  LIG1        0.0238
     23 H          -1.4279   -0.3241    2.8827 H       1  LIG1        0.0238
     24 H          -0.7550   -1.6781    2.0127 H       1  LIG1        0.0238
     25 H           0.5794    2.2405    0.7618 H       1  LIG1        0.0314
     26 H          -1.5774    2.7767   -0.4025 H       1  LIG1        0.0271
     27 H          -2.1442    1.1595   -0.0350 H       1  LIG1        0.0271
     28 H           0.1645    2.0434   -1.7878 H       1  LIG1        0.0310
     29 H          -1.1947    0.9914   -2.1809 H       1  LIG1        0.0310
     30 H           1.3531   -2.1405    1.2456 H       1  LIG1        0.0310
     31 H           2.5665   -1.3832    0.2190 H       1  LIG1        0.0310
     32 H           0.1548   -3.0568   -0.6123 H       1  LIG1        0.0272
     33 H           1.8320   -3.5446   -0.7157 H       1  LIG1        0.0272
     34 H           2.3066   -2.2930   -2.5515 H       1  LIG1        0.0331
     35 H           1.8278   -2.8106   -4.8745 H       1  LIG1        0.0257
     36 H           0.5604   -1.5738   -5.0008 H       1  LIG1        0.0257
     37 H           0.2171   -3.2658   -5.3955 H       1  LIG1        0.0257
     38 H           1.5204   -4.4936   -3.1817 H       1  LIG1        0.2101
     39 H          -1.3967   -1.5972   -3.2639 H       1  LIG1        0.0257
     40 H          -1.4665   -2.8993   -2.0613 H       1  LIG1        0.0257
     41 H          -1.7142   -3.2689   -3.7508 H       1  LIG1        0.0257
     42 H           0.5146   -0.2991   -3.2197 H       1  LIG1        0.0314
     43 H           2.0452   -0.1032   -2.4235 H       1  LIG1        0.0314
     44 H          -1.2090    4.3987    1.1063 H       1  LIG1        0.0235
     45 H           0.4112    4.2713    1.8061 H       1  LIG1        0.0235
     46 H          -0.9685    4.6909    2.8268 H       1  LIG1        0.0235
     47 H          -2.9968    2.7208    1.6580 H       1  LIG1        0.0235
     48 H          -2.7266    3.0341    3.3702 H       1  LIG1        0.0235
     49 H          -2.6954    1.3838    2.7685 H       1  LIG1        0.0235
     50 H          -0.6975    1.4475    4.1629 H       1  LIG1        0.0271
     51 H          -0.0429    3.0660    4.2372 H       1  LIG1        0.0271
     52 H           1.7827    1.4595    4.2525 H       1  LIG1        0.0266
     53 H           1.8492    2.3660    2.7535 H       1  LIG1        0.0266
     54 H           1.0455   -0.5043    3.2323 H       1  LIG1        0.0274
     55 H           2.2027    0.1569    2.1028 H       1  LIG1        0.0274
@<TRIPOS>BOND
     1     1     2    1
     2     2     3    1
     3     3     4    1
     4     4     5    1
     5     5     6    1
     6     6     7    2
     7     2     7    1
     8     7     8    1
     9     8     9    1
    10     9    10    1
    11    10    11    1
    12    11    12    1
    13    11    13    1
    14    11    14    1
    15    10    15    1
    16     6    15    1
    17     3    16    1
    18    16    17    1
    19    16    18    1
    20    16    19    1
    21    19    20    1
    22    20    21    1
    23     2    21    1
    24     1    22    1
    25     1    23    1
    26     1    24    1
    27     3    25    1
    28     4    26    1
    29     4    27    1
    30     5    28    1
    31     5    29    1
    32     8    30    1
    33     8    31    1
    34     9    32    1
    35     9    33    1
    36    10    34    1
    37    12    35    1
    38    12    36    1
    39    12    37    1
    40    13    38    1
    41    14    39    1
    42    14    40    1
    43    14    41    1
    44    15    42    1
    45    15    43    1
    46    17    44    1
    47    17    45    1
    48    17    46    1
    49    18    47    1
    50    18    48    1
    51    18    49    1
    52    19    50    1
    53    19    51    1
    54    20    52    1
    55    20    53    1
    56    21    54    1
    57    21    55    1
