@<TRIPOS>MOLECULE
NuBBE_2141
 31 31 0 0 0
SMALL
GASTEIGER

@<TRIPOS>ATOM
      1 C          -4.8706   -1.3200    0.2952 C.3     1  LIG1       -0.0653
      2 C          -3.3608   -1.4619    0.4236 C.3     1  LIG1       -0.0559
      3 C          -2.6283   -0.1912   -0.0145 C.3     1  LIG1       -0.0530
      4 C          -1.1095   -0.3398    0.1261 C.3     1  LIG1       -0.0494
      5 C          -0.3728    0.9389   -0.2905 C.3     1  LIG1       -0.0317
      6 C           1.1264    0.7965   -0.1449 C.2     1  LIG1       -0.0734
      7 C           1.7633    1.1461    0.9858 C.2     1  LIG1       -0.0848
      8 C           3.2489    1.0366    1.1830 C.3     1  LIG1       -0.0345
      9 C           4.0194    0.7493   -0.1062 C.3     1  LIG1       -0.0493
     10 C           3.2795   -0.2504   -0.9875 C.3     1  LIG1       -0.0491
     11 C           1.8770    0.2532   -1.3385 C.3     1  LIG1       -0.0317
     12 H          -5.3651   -2.2508    0.5920 H       1  LIG1        0.0230
     13 H          -5.1593   -1.0987   -0.7372 H       1  LIG1        0.0230
     14 H          -5.2482   -0.5180    0.9377 H       1  LIG1        0.0230
     15 H          -3.0299   -2.3093   -0.1878 H       1  LIG1        0.0263
     16 H          -3.1116   -1.6969    1.4651 H       1  LIG1        0.0263
     17 H          -2.9720    0.6566    0.5904 H       1  LIG1        0.0265
     18 H          -2.8784    0.0329   -1.0584 H       1  LIG1        0.0265
     19 H          -0.7672   -1.1849   -0.4839 H       1  LIG1        0.0268
     20 H          -0.8643   -0.5789    1.1688 H       1  LIG1        0.0268
     21 H          -0.7258    1.7787    0.3222 H       1  LIG1        0.0310
     22 H          -0.6170    1.1993   -1.3274 H       1  LIG1        0.0310
     23 H           1.1950    1.5219    1.8347 H       1  LIG1        0.0572
     24 H           3.4387    0.2373    1.9092 H       1  LIG1        0.0307
     25 H           3.6268    1.9654    1.6247 H       1  LIG1        0.0307
     26 H           5.0178    0.3681    0.1392 H       1  LIG1        0.0268
     27 H           4.1658    1.6839   -0.6621 H       1  LIG1        0.0268
     28 H           3.2037   -1.2123   -0.4644 H       1  LIG1        0.0268
     29 H           3.8473   -0.4319   -1.9072 H       1  LIG1        0.0268
     30 H           1.3177   -0.5693   -1.7976 H       1  LIG1        0.0310
     31 H           1.9534    1.0498   -2.0896 H       1  LIG1        0.0310
@<TRIPOS>BOND
     1     1     2    1
     2     2     3    1
     3     3     4    1
     4     4     5    1
     5     5     6    1
     6     6     7    2
     7     7     8    1
     8     8     9    1
     9     9    10    1
    10    10    11    1
    11     6    11    1
    12     1    12    1
    13     1    13    1
    14     1    14    1
    15     2    15    1
    16     2    16    1
    17     3    17    1
    18     3    18    1
    19     4    19    1
    20     4    20    1
    21     5    21    1
    22     5    22    1
    23     7    23    1
    24     8    24    1
    25     8    25    1
    26     9    26    1
    27     9    27    1
    28    10    28    1
    29    10    29    1
    30    11    30    1
    31    11    31    1
