REMARK  Name = NuBBE_1960
REMARK  6 active torsions:
REMARK  status: ('A' for Active; 'I' for Inactive)
REMARK    1  A    between atoms: C_1  and  C_2
REMARK    2  A    between atoms: C_2  and  C_3
REMARK    3  A    between atoms: C_15  and  O_16
REMARK    4  A    between atoms: O_16  and  C_17
REMARK    5  A    between atoms: C_18  and  O_19
REMARK    6  A    between atoms: C_22  and  C_23
REMARK                            x       y       z     vdW  Elec       q    Type
REMARK                         _______ _______ _______ _____ _____    ______ ____
ROOT
ATOM      1  C   LIG A   1      -2.183   1.284  -0.110  0.00  0.00    -0.013 C 
ATOM      2  C   LIG A   1      -1.537  -0.095   0.359  0.00  0.00    +0.075 C 
ATOM      3  C   LIG A   1       0.006  -0.043   0.541  0.00  0.00    +0.034 C 
ATOM      4  C   LIG A   1       0.256   0.070   2.067  0.00  0.00    +0.030 C 
ATOM      5  C   LIG A   1      -1.111  -0.027   2.713  0.00  0.00    +0.086 C 
ATOM      6  N   LIG A   1      -1.960  -0.607   1.680  0.00  0.00    -0.298 NA
ATOM      7  C   LIG A   1      -3.381  -0.498   1.966  0.00  0.00    +0.085 C 
ATOM      8  C   LIG A   1      -3.912   0.915   1.795  0.00  0.00    +0.016 C 
ATOM      9  C   LIG A   1      -3.662   1.398   0.376  0.00  0.00    +0.009 C 
ATOM     10  C   LIG A   1       0.853  -1.193   0.034  0.00  0.00    -0.013 A 
ATOM     11  C   LIG A   1       0.529  -2.546   0.107  0.00  0.00    +0.010 A 
ATOM     12  C   LIG A   1       1.466  -3.483  -0.317  0.00  0.00    +0.050 A 
ATOM     13  C   LIG A   1       2.713  -3.054  -0.778  0.00  0.00    +0.163 A 
ATOM     14  C   LIG A   1       3.030  -1.677  -0.846  0.00  0.00    +0.181 A 
ATOM     15  C   LIG A   1       2.100  -0.725  -0.449  0.00  0.00    +0.086 A 
ATOM     16  N   LIG A   1       2.083   0.711  -0.433  0.00  0.00    -0.264 N 
ATOM     17  C   LIG A   1       2.997   1.661  -0.850  0.00  0.00    +0.217 C 
ATOM     18  C   LIG A   1       4.331   1.268  -1.408  0.00  0.00    +0.110 C 
ATOM     19  O   LIG A   1       2.745   2.866  -0.797  0.00  0.00    -0.276 OA
ATOM     20  C   LIG A   1       0.651   1.070  -0.287  0.00  0.00    +0.094 C 
ATOM     21  C   LIG A   1       0.163   2.452   0.147  0.00  0.00    +0.024 C 
ATOM     22  C   LIG A   1      -1.354   2.481   0.446  0.00  0.00    +0.010 C 
ENDROOT
BRANCH   1  24
ATOM     23  C   LIG A   1      -2.879   2.618  -2.282  0.00  0.00    +0.004 C 
ATOM     24  C   LIG A   1      -2.260   1.351  -1.687  0.00  0.00    +0.005 C 
ENDBRANCH   1  24
BRANCH  13  25
ATOM     25  O   LIG A   1       3.707  -3.890  -1.239  0.00  0.00    -0.491 OA
ATOM     26  C   LIG A   1       3.712  -5.202  -0.686  0.00  0.00    +0.277 C 
ENDBRANCH  13  25
BRANCH  14  27
ATOM     27  O   LIG A   1       4.271  -1.377  -1.323  0.00  0.00    -0.502 OA
ATOM     28  H   LIG A   1       4.674  -2.233  -1.568  0.00  0.00    +0.292 HD
ENDBRANCH  14  27
TORSDOF 3
