@<TRIPOS>MOLECULE
NuBBE_2407
 52 56 0 0 0
SMALL
GASTEIGER

@<TRIPOS>ATOM
      1 C          -4.5325   -0.0802   -0.2498 C.3     1  LIG1        0.0817
      2 O          -3.1528   -0.4526   -0.2911 O.3     1  LIG1       -0.4672
      3 C          -2.2465    0.5047   -0.7007 C.2     1  LIG1        0.3205
      4 O          -2.6035    1.6249   -1.0468 O.2     1  LIG1       -0.2497
      5 C          -0.7817   -0.1799   -0.8189 C.3     1  LIG1        0.1236
      6 C          -0.9288   -0.6899   -2.2314 C.3     1  LIG1       -0.0262
      7 C          -0.2400    0.4427   -3.1261 C.3     1  LIG1       -0.0264
      8 H          -0.7305    0.5226   -4.1018 H       1  LIG1        0.0314
      9 C           1.2062   -0.0290   -3.2825 C.3     1  LIG1       -0.0424
     10 C           1.7213   -0.2436   -1.8487 C.3     1  LIG1        0.0021
     11 H           1.7066   -1.3221   -1.6354 H       1  LIG1        0.0341
     12 C           3.1916    0.2198   -1.6980 C.3     1  LIG1        0.0567
     13 H           3.8005   -0.3150   -2.4367 H       1  LIG1        0.0594
     14 C           3.7887   -0.0495   -0.3189 C.3     1  LIG1       -0.0386
     15 O           3.3325    1.6105   -1.9750 O.3     1  LIG1       -0.3917
     16 C           0.7158    0.4450   -0.8461 C.3     1  LIG1        0.0368
     17 H           1.2593    0.3240    0.0935 H       1  LIG1        0.0481
     18 N           0.5845    1.8494   -1.1115 N.3     1  LIG1       -0.2971
     19 C          -0.0648    2.4660    0.0910 C.3     1  LIG1        0.0033
     20 C          -0.2595    1.6885    1.5100 C.3     1  LIG1       -0.0126
     21 C          -0.4716    0.1463    1.6163 C.ar    1  LIG1       -0.0168
     22 C          -0.7048   -0.7294    0.5507 C.ar    1  LIG1        0.0388
     23 N          -0.7642   -2.0089    0.9958 N.ar    1  LIG1       -0.3568
     24 H          -0.9289   -2.8353    0.4369 H       1  LIG1        0.1656
     25 C          -0.5183   -2.0161    2.3541 C.ar    1  LIG1        0.0470
     26 C          -0.4276   -3.0980    3.2385 C.ar    1  LIG1       -0.0378
     27 C          -0.1347   -2.8225    4.5771 C.ar    1  LIG1       -0.0598
     28 C           0.0554   -1.5147    5.0158 C.ar    1  LIG1       -0.0611
     29 C          -0.0450   -0.4407    4.1242 C.ar    1  LIG1       -0.0523
     30 C          -0.3382   -0.6883    2.7682 C.ar    1  LIG1        0.0032
     31 C          -0.1251    1.9063   -2.4316 C.3     1  LIG1        0.0021
     32 H          -4.8668   -0.0769    0.7912 H       1  LIG1        0.0661
     33 H          -5.0939   -0.8444   -0.7939 H       1  LIG1        0.0661
     34 H          -4.7448    0.8916   -0.7029 H       1  LIG1        0.0661
     35 H          -1.9657   -0.8071   -2.5722 H       1  LIG1        0.0283
     36 H          -0.4702   -1.6755   -2.3747 H       1  LIG1        0.0283
     37 H           1.7936    0.7080   -3.8415 H       1  LIG1        0.0272
     38 H           1.2563   -0.9660   -3.8500 H       1  LIG1        0.0272
     39 H           3.2861    0.5219    0.4678 H       1  LIG1        0.0255
     40 H           4.8339    0.2768   -0.2910 H       1  LIG1        0.0255
     41 H           3.7473   -1.1130   -0.0656 H       1  LIG1        0.0255
     42 H           2.5916    2.0633   -1.5186 H       1  LIG1        0.2098
     43 H          -1.0049    2.9592   -0.1702 H       1  LIG1        0.0430
     44 H           0.5839    3.3181    0.3402 H       1  LIG1        0.0430
     45 H          -1.1167    2.1579    2.0109 H       1  LIG1        0.0326
     46 H           0.6267    1.9191    2.1162 H       1  LIG1        0.0326
     47 H          -0.5674   -4.1196    2.9007 H       1  LIG1        0.0638
     48 H          -0.0493   -3.6438    5.2850 H       1  LIG1        0.0618
     49 H           0.2893   -1.3239    6.0603 H       1  LIG1        0.0618
     50 H           0.1142    0.5741    4.4762 H       1  LIG1        0.0624
     51 H           0.4859    2.5385   -3.0894 H       1  LIG1        0.0429
     52 H          -1.0924    2.4070   -2.3996 H       1  LIG1        0.0429
@<TRIPOS>BOND
     1     1     2    1
     2     2     3    1
     3     3     4    2
     4     5     6    1
     5     6     7    1
     6     7     9    1
     7     9    10    1
     8    12    15    1
     9    10    16    1
    10     5    16    1
    11    16    18    1
    12    18    19    1
    13    19    20    1
    14    20    21    1
    15    21    22   ar
    16     5    22    1
    17    22    23   ar
    18    23    25   ar
    19    25    26   ar
    20    26    27   ar
    21    27    28   ar
    22    28    29   ar
    23    29    30   ar
    24    21    30   ar
    25    25    30   ar
    26    18    31    1
    27     7    31    1
    28     3     5    1
    29     7     8    1
    30    16    17    1
    31    23    24    1
    32    10    12    1
    33    10    11    1
    34    12    14    1
    35    12    13    1
    36     1    32    1
    37     1    33    1
    38     1    34    1
    39     6    35    1
    40     6    36    1
    41     9    37    1
    42     9    38    1
    43    14    39    1
    44    14    40    1
    45    14    41    1
    46    15    42    1
    47    19    43    1
    48    19    44    1
    49    20    45    1
    50    20    46    1
    51    26    47    1
    52    27    48    1
    53    28    49    1
    54    29    50    1
    55    31    51    1
    56    31    52    1
