REMARK  Name = NuBBE_1997
REMARK  7 active torsions:
REMARK  status: ('A' for Active; 'I' for Inactive)
REMARK    1  A    between atoms: O_1  and  C_2
REMARK    2  A    between atoms: C_3  and  C_4
REMARK    3  A    between atoms: C_5  and  O_6
REMARK    4  A    between atoms: O_6  and  C_7
REMARK    5  A    between atoms: C_10  and  O_12
REMARK    6  A    between atoms: C_13  and  C_15
REMARK    7  A    between atoms: C_18  and  O_19
REMARK                            x       y       z     vdW  Elec       q    Type
REMARK                         _______ _______ _______ _____ _____    ______ ____
ROOT
ATOM      1  C   LIG A   1      -2.873   0.137  -0.939  0.00  0.00    +0.127 A 
ATOM      2  C   LIG A   1      -2.449  -1.147  -1.313  0.00  0.00    +0.034 A 
ATOM      3  C   LIG A   1      -3.448  -2.240  -1.576  0.00  0.00    +0.051 C 
ATOM      4  C   LIG A   1      -1.058  -1.367  -1.465  0.00  0.00    +0.141 A 
ATOM      5  C   LIG A   1      -0.145  -0.309  -1.275  0.00  0.00    +0.104 A 
ATOM      6  C   LIG A   1       1.319  -0.471  -1.404  0.00  0.00    +0.202 C 
ATOM      7  C   LIG A   1       2.135   0.811  -1.502  0.00  0.00    +0.230 C 
ATOM      8  C   LIG A   1       1.562   1.829  -0.507  0.00  0.00    +0.240 C 
ATOM      9  O   LIG A   1       0.172   2.082  -0.801  0.00  0.00    -0.480 OA
ATOM     10  O   LIG A   1       1.864  -1.580  -1.384  0.00  0.00    -0.289 OA
ATOM     11  C   LIG A   1      -0.613   0.969  -0.952  0.00  0.00    +0.139 A 
ATOM     12  C   LIG A   1      -1.976   1.191  -0.802  0.00  0.00    +0.092 A 
ENDROOT
BRANCH   8  13
ATOM     13  C   LIG A   1       1.749   1.597   0.989  0.00  0.00    -0.004 A 
ATOM     14  C   LIG A   1       1.208   2.534   1.893  0.00  0.00    +0.011 A 
ATOM     15  C   LIG A   1       1.364   2.383   3.274  0.00  0.00    +0.046 A 
ATOM     16  C   LIG A   1       2.067   1.290   3.764  0.00  0.00    +0.117 A 
ATOM     17  C   LIG A   1       2.614   0.356   2.896  0.00  0.00    +0.046 A 
ATOM     18  C   LIG A   1       2.462   0.509   1.515  0.00  0.00    +0.011 A 
BRANCH  16  19
ATOM     19  O   LIG A   1       2.248   1.098   5.100  0.00  0.00    -0.507 OA
ATOM     20  H   LIG A   1       1.827   1.830   5.580  0.00  0.00    +0.292 HD
ENDBRANCH  16  19
ENDBRANCH   8  13
BRANCH   1  21
ATOM     21  O   LIG A   1      -4.183   0.452  -0.711  0.00  0.00    -0.506 OA
ATOM     22  H   LIG A   1      -4.650  -0.341  -0.402  0.00  0.00    +0.292 HD
ENDBRANCH   1  21
BRANCH   4  23
ATOM     23  O   LIG A   1      -0.580  -2.540  -1.996  0.00  0.00    -0.494 OA
ATOM     24  C   LIG A   1      -0.810  -3.705  -1.206  0.00  0.00    +0.277 C 
ENDBRANCH   4  23
BRANCH   7  25
ATOM     25  O   LIG A   1       2.116   1.329  -2.835  0.00  0.00    -0.380 OA
ATOM     26  H   LIG A   1       1.212   1.641  -3.024  0.00  0.00    +0.210 HD
ENDBRANCH   7  25
TORSDOF 5
