REMARK  Name = NuBBE_108
REMARK  11 active torsions:
REMARK  status: ('A' for Active; 'I' for Inactive)
REMARK    1  A    between atoms: C_4  and  O_13
REMARK    2  A    between atoms: C_8  and  C_9
REMARK    3  A    between atoms: C_9  and  O_10
REMARK    4  A    between atoms: O_10  and  C_11
REMARK    5  A    between atoms: O_13  and  C_14
REMARK    6  A    between atoms: C_17  and  C_25
REMARK    7  A    between atoms: C_19  and  O_24
REMARK    8  A    between atoms: C_21  and  O_23
REMARK    9  A    between atoms: C_25  and  O_26
REMARK   10  A    between atoms: C_27  and  O_29
REMARK   11  A    between atoms: C_34  and  C_36
REMARK                            x       y       z     vdW  Elec       q    Type
REMARK                         _______ _______ _______ _____ _____    ______ ____
ROOT
ATOM      1  C   LIG A   1      -2.494  -0.955   1.014  0.00  0.00    +0.052 C 
ATOM      2  C   LIG A   1      -2.000   0.130   0.023  0.00  0.00    +0.106 C 
ATOM      3  C   LIG A   1      -0.604  -0.308  -0.473  0.00  0.00    +0.316 C 
ATOM      4  O   LIG A   1      -0.775  -1.492  -1.277  0.00  0.00    -0.470 OA
ATOM      5  C   LIG A   1      -1.507  -2.481  -0.679  0.00  0.00    +0.201 C 
ATOM      6  C   LIG A   1      -2.282  -2.325   0.404  0.00  0.00    +0.075 C 
ATOM      7  C   LIG A   1      -1.776  -0.832   2.366  0.00  0.00    +0.129 C 
ATOM      8  C   LIG A   1      -1.523   0.575   2.858  0.00  0.00    +0.308 C 
ATOM      9  O   LIG A   1      -1.326   1.524   1.911  0.00  0.00    -0.461 OA
ATOM     10  C   LIG A   1      -2.127   1.473   0.727  0.00  0.00    +0.183 C 
ATOM     11  C   LIG A   1      -1.804   2.683  -0.141  0.00  0.00    +0.052 C 
ATOM     12  O   LIG A   1      -1.321   0.818   4.043  0.00  0.00    -0.251 OA
ENDROOT
BRANCH   6  13
ATOM     13  C   LIG A   1      -2.979  -3.502   0.988  0.00  0.00    +0.338 C 
ATOM     14  O   LIG A   1      -3.864  -3.413   1.815  0.00  0.00    -0.245 OA
BRANCH  13  15
ATOM     15  O   LIG A   1      -2.415  -4.641   0.513  0.00  0.00    -0.465 OA
ATOM     16  C   LIG A   1      -2.858  -5.884   1.057  0.00  0.00    +0.280 C 
ENDBRANCH  13  15
ENDBRANCH   6  13
BRANCH   3  17
ATOM     17  O   LIG A   1       0.071   0.700  -1.223  0.00  0.00    -0.309 OA
BRANCH  17  18
ATOM     18  C   LIG A   1       1.349   0.225  -1.675  0.00  0.00    +0.286 C 
ATOM     19  O   LIG A   1       2.220  -0.126  -0.593  0.00  0.00    -0.340 OA
ATOM     20  C   LIG A   1       2.998   0.916   0.007  0.00  0.00    +0.178 C 
ATOM     21  C   LIG A   1       3.730   1.765  -1.045  0.00  0.00    +0.177 C 
ATOM     22  C   LIG A   1       2.754   2.329  -2.083  0.00  0.00    +0.179 C 
ATOM     23  C   LIG A   1       1.959   1.185  -2.724  0.00  0.00    +0.201 C 
BRANCH  22  24
ATOM     24  O   LIG A   1       1.897   3.311  -1.506  0.00  0.00    -0.386 OA
ATOM     25  H   LIG A   1       1.352   3.680  -2.224  0.00  0.00    +0.210 HD
ENDBRANCH  22  24
BRANCH  21  26
ATOM     26  O   LIG A   1       4.683   0.923  -1.734  0.00  0.00    -0.387 OA
ATOM     27  H   LIG A   1       5.327   0.626  -1.064  0.00  0.00    +0.210 HD
ENDBRANCH  21  26
BRANCH  23  28
ATOM     28  O   LIG A   1       2.822   0.453  -3.616  0.00  0.00    -0.384 OA
ATOM     29  H   LIG A   1       3.648   0.273  -3.114  0.00  0.00    +0.210 HD
ENDBRANCH  23  28
BRANCH  20  30
ATOM     30  C   LIG A   1       2.229   1.729   1.056  0.00  0.00    +0.190 C 
BRANCH  30  31
ATOM     31  O   LIG A   1       3.076   2.726   1.621  0.00  0.00    -0.392 OA
ATOM     32  H   LIG A   1       2.511   3.300   2.169  0.00  0.00    +0.209 HD
ENDBRANCH  30  31
ENDBRANCH  20  30
ENDBRANCH  17  18
ENDBRANCH   3  17
TORSDOF 9
