REMARK  Name = NuBBE_449
REMARK  9 active torsions:
REMARK  status: ('A' for Active; 'I' for Inactive)
REMARK    1  A    between atoms: O_1  and  C_2
REMARK    2  A    between atoms: C_6  and  C_8
REMARK    3  A    between atoms: C_13  and  C_14
REMARK    4  A    between atoms: C_14  and  O_15
REMARK    5  A    between atoms: O_15  and  C_16
REMARK    6  A    between atoms: C_16  and  C_17
REMARK    7  A    between atoms: C_18  and  C_19
REMARK    8  A    between atoms: C_22  and  O_23
REMARK    9  A    between atoms: C_24  and  O_25
REMARK                            x       y       z     vdW  Elec       q    Type
REMARK                         _______ _______ _______ _____ _____    ______ ____
ROOT
ATOM      1  O   LIG A   1       0.782  -0.981  -0.523  0.00  0.00    -0.457 OA
ENDROOT
BRANCH   1   2
ATOM      2  C   LIG A   1       0.110  -1.326  -1.650  0.00  0.00    +0.332 C 
ATOM      3  O   LIG A   1       0.522  -1.300  -2.794  0.00  0.00    -0.246 OA
BRANCH   2   4
ATOM      4  C   LIG A   1      -1.244  -1.738  -1.239  0.00  0.00    +0.092 C 
ATOM      5  C   LIG A   1      -2.142  -2.151  -2.147  0.00  0.00    +0.015 C 
BRANCH   5   6
ATOM      6  C   LIG A   1      -3.506  -2.562  -1.787  0.00  0.00    -0.021 A 
ATOM      7  C   LIG A   1      -4.185  -1.982  -0.700  0.00  0.00    +0.012 A 
ATOM      8  C   LIG A   1      -5.481  -2.377  -0.363  0.00  0.00    +0.050 A 
ATOM      9  C   LIG A   1      -6.110  -3.345  -1.132  0.00  0.00    +0.158 A 
ATOM     10  C   LIG A   1      -5.457  -3.908  -2.224  0.00  0.00    +0.159 A 
ATOM     11  C   LIG A   1      -4.166  -3.523  -2.564  0.00  0.00    +0.057 A 
BRANCH   9  12
ATOM     12  O   LIG A   1      -7.377  -3.772  -0.851  0.00  0.00    -0.503 OA
ATOM     13  H   LIG A   1      -7.697  -3.276  -0.078  0.00  0.00    +0.292 HD
ENDBRANCH   9  12
BRANCH  10  14
ATOM     14  O   LIG A   1      -6.090  -4.858  -2.977  0.00  0.00    -0.503 OA
ATOM     15  H   LIG A   1      -6.964  -4.964  -2.554  0.00  0.00    +0.292 HD
ENDBRANCH  10  14
ENDBRANCH   5   6
ENDBRANCH   2   4
ENDBRANCH   1   2
BRANCH   1  16
ATOM     16  C   LIG A   1       2.124  -0.518  -0.715  0.00  0.00    +0.267 C 
BRANCH  16  24
ATOM     17  C   LIG A   1       1.867   3.615   0.387  0.00  0.00    +0.308 C 
ATOM     18  C   LIG A   1       2.274   2.690   1.532  0.00  0.00    +0.068 C 
ATOM     19  C   LIG A   1       3.800   2.692   1.798  0.00  0.00    -0.004 C 
ATOM     20  C   LIG A   1       4.192   3.692   2.879  0.00  0.00    +0.008 C 
ATOM     21  C   LIG A   1       4.159   1.247   2.176  0.00  0.00    +0.004 C 
ATOM     22  C   LIG A   1       2.836   0.491   2.211  0.00  0.00    +0.009 C 
ATOM     23  C   LIG A   1       1.937   1.224   1.210  0.00  0.00    +0.030 C 
ATOM     24  C   LIG A   1       2.191   0.913  -0.252  0.00  0.00    +0.005 C 
ATOM     25  C   LIG A   1       2.438   1.897  -1.134  0.00  0.00    +0.193 C 
ATOM     26  O   LIG A   1       2.429   3.241  -0.872  0.00  0.00    -0.471 OA
BRANCH  17  27
ATOM     27  O   LIG A   1       0.448   3.696   0.285  0.00  0.00    -0.357 OA
ATOM     28  H   LIG A   1       0.163   2.822  -0.031  0.00  0.00    +0.213 HD
ENDBRANCH  17  27
ENDBRANCH  16  24
ENDBRANCH   1  16
TORSDOF 8
