REMARK  Name = NuBBE_1300
REMARK  14 active torsions:
REMARK  status: ('A' for Active; 'I' for Inactive)
REMARK    1  A    between atoms: C_2  and  C_3
REMARK    2  A    between atoms: C_2  and  C_17
REMARK    3  A    between atoms: C_4  and  C_5
REMARK    4  A    between atoms: C_7  and  O_8
REMARK    5  A    between atoms: O_8  and  C_9
REMARK    6  A    between atoms: C_10  and  O_15
REMARK    7  A    between atoms: C_11  and  O_12
REMARK    8  A    between atoms: O_12  and  C_13
REMARK    9  A    between atoms: O_15  and  C_16
REMARK   10  A    between atoms: C_18  and  O_27
REMARK   11  A    between atoms: C_20  and  O_25
REMARK   12  A    between atoms: C_22  and  O_23
REMARK   13  A    between atoms: O_23  and  C_24
REMARK   14  A    between atoms: O_25  and  C_26
REMARK                            x       y       z     vdW  Elec       q    Type
REMARK                         _______ _______ _______ _____ _____    ______ ____
ROOT
ATOM      1  O   LIG A   1       0.655  -1.379  -3.061  0.00  0.00    -0.287 OA
ATOM      2  C   LIG A   1      -0.102  -0.662  -2.346  0.00  0.00    +0.193 C 
ENDROOT
BRANCH   2   3
ATOM      3  C   LIG A   1      -1.410  -0.240  -2.912  0.00  0.00    +0.105 A 
ATOM      4  C   LIG A   1      -2.021  -1.065  -3.889  0.00  0.00    +0.135 A 
ATOM      5  C   LIG A   1      -3.263  -0.773  -4.457  0.00  0.00    +0.092 A 
ATOM      6  C   LIG A   1      -3.894   0.423  -4.148  0.00  0.00    +0.127 A 
ATOM      7  C   LIG A   1      -3.306   1.254  -3.207  0.00  0.00    +0.092 A 
ATOM      8  C   LIG A   1      -2.098   0.937  -2.544  0.00  0.00    +0.138 A 
BRANCH   8   9
ATOM      9  O   LIG A   1      -1.577   1.822  -1.640  0.00  0.00    -0.494 OA
ATOM     10  C   LIG A   1      -2.557   2.603  -0.936  0.00  0.00    +0.277 C 
ENDBRANCH   8   9
BRANCH   6  11
ATOM     11  O   LIG A   1      -5.075   0.719  -4.775  0.00  0.00    -0.495 OA
ATOM     12  C   LIG A   1      -5.323   2.117  -4.967  0.00  0.00    +0.277 C 
ENDBRANCH   6  11
BRANCH   4  13
ATOM     13  O   LIG A   1      -1.411  -2.203  -4.371  0.00  0.00    -0.506 OA
ATOM     14  H   LIG A   1      -0.454  -2.141  -4.166  0.00  0.00    +0.292 HD
ENDBRANCH   4  13
ENDBRANCH   2   3
BRANCH   2  15
ATOM     15  C   LIG A   1       0.251  -0.346  -0.936  0.00  0.00    +0.052 C 
ATOM     16  C   LIG A   1       1.412  -0.833  -0.368  0.00  0.00    +0.012 C 
BRANCH  16  17
ATOM     17  C   LIG A   1       1.777  -0.627   1.031  0.00  0.00    -0.018 A 
ATOM     18  C   LIG A   1       3.112  -0.564   1.425  0.00  0.00    +0.057 A 
ATOM     19  C   LIG A   1       3.484  -0.381   2.774  0.00  0.00    +0.166 A 
ATOM     20  C   LIG A   1       2.501  -0.375   3.791  0.00  0.00    +0.203 A 
ATOM     21  C   LIG A   1       1.149  -0.543   3.398  0.00  0.00    +0.166 A 
ATOM     22  C   LIG A   1       0.816  -0.596   2.034  0.00  0.00    +0.057 A 
BRANCH  19  23
ATOM     23  O   LIG A   1       4.791  -0.183   3.133  0.00  0.00    -0.491 OA
ATOM     24  C   LIG A   1       5.796  -0.310   2.142  0.00  0.00    +0.277 C 
ENDBRANCH  19  23
BRANCH  21  25
ATOM     25  O   LIG A   1       0.151  -0.702   4.346  0.00  0.00    -0.491 OA
ATOM     26  C   LIG A   1      -0.972  -1.469   3.870  0.00  0.00    +0.277 C 
ENDBRANCH  21  25
BRANCH  20  27
ATOM     27  O   LIG A   1       2.756  -0.192   5.138  0.00  0.00    -0.488 OA
ATOM     28  C   LIG A   1       4.058  -0.534   5.632  0.00  0.00    +0.277 C 
ENDBRANCH  20  27
ENDBRANCH  16  17
ENDBRANCH   2  15
TORSDOF 9
