@<TRIPOS>MOLECULE
NuBBE_1931
 42 44 0 0 0
SMALL
GASTEIGER

@<TRIPOS>ATOM
      1 C          -1.6717   -1.7362   -0.6520 C.3     1  LIG1       -0.0593
      2 C          -0.2047   -2.0456   -0.4477 C.3     1  LIG1       -0.0284
      3 C          -0.0147   -3.5264   -0.1887 C.3     1  LIG1       -0.0593
      4 C           0.7099   -1.0916    0.3092 C.3     1  LIG1       -0.0289
      5 H           1.4348   -1.5795    0.9659 H       1  LIG1        0.0312
      6 C           0.9538   -1.3135   -1.1723 C.3     1  LIG1       -0.0319
      7 H           1.8446   -1.9052   -1.3884 H       1  LIG1        0.0309
      8 C           0.6563   -0.4519   -2.3633 C.3     1  LIG1       -0.0468
      9 C           0.8654    1.0693   -2.3549 C.3     1  LIG1       -0.0237
     10 C           0.8002    1.8942   -1.0530 C.3     1  LIG1        0.0664
     11 C          -0.2027    1.2739   -0.0545 C.3     1  LIG1       -0.0090
     12 H          -0.9590    0.8173   -0.6832 H       1  LIG1        0.0331
     13 C           0.4218    0.2500    0.8914 C.3     1  LIG1       -0.0294
     14 H           1.4132    0.6184    1.1803 H       1  LIG1        0.0310
     15 C          -0.3395    0.3103    2.2303 C.3     1  LIG1       -0.0404
     16 H           0.3767    0.7054    2.9677 H       1  LIG1        0.0301
     17 C          -0.8699   -0.9897    2.8335 C.3     1  LIG1       -0.0621
     18 C          -1.4154    1.3859    2.0561 C.3     1  LIG1       -0.0498
     19 C          -1.0291    2.2073    0.8279 C.3     1  LIG1       -0.0471
     20 C           2.2298    2.1057   -0.5199 C.3     1  LIG1       -0.0358
     21 O           0.3637    3.2127   -1.4046 O.3     1  LIG1       -0.3886
     22 H          -1.9294   -0.7042   -0.8568 H       1  LIG1        0.0235
     23 H          -2.2398   -2.0296    0.2379 H       1  LIG1        0.0235
     24 H          -2.0586   -2.3129   -1.4989 H       1  LIG1        0.0235
     25 H           1.0379   -3.7967   -0.0671 H       1  LIG1        0.0235
     26 H          -0.4217   -4.1081   -1.0225 H       1  LIG1        0.0235
     27 H          -0.5482   -3.8185    0.7226 H       1  LIG1        0.0235
     28 H          -0.3536   -0.6653   -2.7297 H       1  LIG1        0.0269
     29 H           1.3023   -0.8279   -3.1725 H       1  LIG1        0.0269
     30 H           0.1013    1.4673   -3.0441 H       1  LIG1        0.0293
     31 H           1.8027    1.3027   -2.8809 H       1  LIG1        0.0293
     32 H          -0.4157   -1.8862    2.4083 H       1  LIG1        0.0233
     33 H          -1.9553   -1.0837    2.7372 H       1  LIG1        0.0233
     34 H          -0.6392   -1.0170    3.9052 H       1  LIG1        0.0233
     35 H          -1.4689    2.0323    2.9401 H       1  LIG1        0.0268
     36 H          -2.4083    0.9431    1.9210 H       1  LIG1        0.0268
     37 H          -0.4929    3.1173    1.1042 H       1  LIG1        0.0269
     38 H          -1.9440    2.5081    0.2985 H       1  LIG1        0.0269
     39 H           2.7690    1.1620   -0.3855 H       1  LIG1        0.0257
     40 H           2.2193    2.6528    0.4282 H       1  LIG1        0.0257
     41 H           2.8156    2.7167   -1.2150 H       1  LIG1        0.0257
     42 H          -0.5361    3.1368   -1.8101 H       1  LIG1        0.2102
@<TRIPOS>BOND
     1     2     4    1
     2     4     6    1
     3     2     6    1
     4     6     8    1
     5     8     9    1
     6     9    10    1
     7    10    11    1
     8    11    13    1
     9     4    13    1
    10    13    15    1
    11    15    18    1
    12    18    19    1
    13    11    19    1
    14     1     2    1
    15     2     3    1
    16     4     5    1
    17     6     7    1
    18    11    12    1
    19    13    14    1
    20    15    16    1
    21    15    17    1
    22    10    21    1
    23    10    20    1
    24     1    22    1
    25     1    23    1
    26     1    24    1
    27     3    25    1
    28     3    26    1
    29     3    27    1
    30     8    28    1
    31     8    29    1
    32     9    30    1
    33     9    31    1
    34    17    32    1
    35    17    33    1
    36    17    34    1
    37    18    35    1
    38    18    36    1
    39    19    37    1
    40    19    38    1
    41    20    39    1
    42    20    40    1
    43    20    41    1
    44    21    42    1
