REMARK  Name = NuBBE_233
REMARK  21 active torsions:
REMARK  status: ('A' for Active; 'I' for Inactive)
REMARK    1  A    between atoms: C_1  and  C_2
REMARK    2  A    between atoms: C_4  and  O_6
REMARK    3  A    between atoms: O_6  and  C_7
REMARK    4  A    between atoms: C_7  and  C_8
REMARK    5  A    between atoms: C_8  and  C_9
REMARK    6  A    between atoms: C_9  and  C_10
REMARK    7  A    between atoms: C_12  and  O_14
REMARK    8  A    between atoms: O_14  and  C_15
REMARK    9  A    between atoms: C_15  and  C_16
REMARK   10  A    between atoms: C_20  and  O_22
REMARK   11  A    between atoms: O_22  and  C_23
REMARK   12  A    between atoms: C_23  and  C_24
REMARK   13  A    between atoms: C_27  and  O_29
REMARK   14  A    between atoms: O_29  and  C_30
REMARK   15  A    between atoms: C_30  and  C_31
REMARK   16  A    between atoms: C_34  and  O_36
REMARK   17  A    between atoms: C_40  and  C_41
REMARK   18  A    between atoms: C_40  and  C_42
REMARK   19  A    between atoms: C_42  and  C_43
REMARK   20  A    between atoms: C_44  and  C_45
REMARK   21  A    between atoms: C_44  and  C_47
REMARK                            x       y       z     vdW  Elec       q    Type
REMARK                         _______ _______ _______ _____ _____    ______ ____
ROOT
ATOM      1  C   LIG A   1      -1.012   1.799   2.508  0.00  0.00    +0.012 C 
ATOM      2  C   LIG A   1      -1.157   0.565   1.603  0.00  0.00    +0.037 C 
ATOM      3  C   LIG A   1      -0.365  -0.637   2.168  0.00  0.00    +0.221 C 
ATOM      4  C   LIG A   1       1.103  -0.707   1.724  0.00  0.00    +0.234 C 
ATOM      5  C   LIG A   1       1.370  -0.580   0.175  0.00  0.00    +0.104 C 
ATOM      6  C   LIG A   1       1.681  -1.991  -0.351  0.00  0.00    +0.013 C 
ATOM      7  C   LIG A   1       3.158  -2.219  -0.497  0.00  0.00    +0.343 C 
ATOM      8  O   LIG A   1       3.720  -1.083   0.169  0.00  0.00    -0.297 OA
ATOM      9  C   LIG A   1       2.813   0.017  -0.034  0.00  0.00    +0.328 C 
ATOM     10  C   LIG A   1       0.778  -2.818  -0.888  0.00  0.00    +0.010 C 
ATOM     11  C   LIG A   1      -0.395  -2.259  -1.593  0.00  0.00    +0.138 C 
ATOM     12  C   LIG A   1      -0.151  -0.775  -1.913  0.00  0.00    +0.040 C 
ATOM     13  C   LIG A   1       0.208   0.106  -0.669  0.00  0.00    +0.018 C 
ATOM     14  C   LIG A   1      -1.076   0.793   0.033  0.00  0.00    -0.018 C 
ATOM     15  C   LIG A   1      -2.470   0.326  -0.524  0.00  0.00    +0.012 C 
ENDROOT
BRANCH  11  16
ATOM     16  O   LIG A   1      -1.516  -2.502  -0.788  0.00  0.00    -0.388 OA
ATOM     17  H   LIG A   1      -1.293  -2.162   0.098  0.00  0.00    +0.210 HD
ENDBRANCH  11  16
BRANCH   3  18
ATOM     18  O   LIG A   1      -1.091  -1.860   1.889  0.00  0.00    -0.457 OA
BRANCH  18  19
ATOM     19  C   LIG A   1      -2.107  -2.104   2.788  0.00  0.00    +0.307 C 
ATOM     20  O   LIG A   1      -2.390  -1.377   3.734  0.00  0.00    -0.251 OA
BRANCH  19  21
ATOM     21  C   LIG A   1      -2.865  -3.368   2.475  0.00  0.00    +0.120 C 
BRANCH  21  22
ATOM     22  C   LIG A   1      -4.324  -3.118   2.088  0.00  0.00    +0.008 C 
ATOM     23  C   LIG A   1      -5.191  -2.545   3.205  0.00  0.00    +0.004 C 
ENDBRANCH  21  22
ENDBRANCH  19  21
ENDBRANCH  18  19
ENDBRANCH   3  18
BRANCH   4  24
ATOM     24  O   LIG A   1       1.830   0.323   2.463  0.00  0.00    -0.457 OA
BRANCH  24  25
ATOM     25  C   LIG A   1       2.298  -0.009   3.715  0.00  0.00    +0.304 C 
ATOM     26  C   LIG A   1       3.137   1.073   4.278  0.00  0.00    +0.136 C 
ATOM     27  O   LIG A   1       2.038  -1.076   4.277  0.00  0.00    -0.251 OA
ENDBRANCH  24  25
ENDBRANCH   4  24
BRANCH   7  28
ATOM     28  O   LIG A   1       3.566  -2.168  -1.883  0.00  0.00    -0.431 OA
BRANCH  28  29
ATOM     29  C   LIG A   1       3.369  -3.261  -2.657  0.00  0.00    +0.306 C 
ATOM     30  C   LIG A   1       4.092  -3.123  -3.961  0.00  0.00    +0.136 C 
ATOM     31  O   LIG A   1       2.759  -4.274  -2.363  0.00  0.00    -0.251 OA
ENDBRANCH  28  29
ENDBRANCH   7  28
BRANCH   9  32
ATOM     32  O   LIG A   1       3.007   0.662  -1.299  0.00  0.00    -0.434 OA
BRANCH  32  33
ATOM     33  C   LIG A   1       4.118   1.456  -1.313  0.00  0.00    +0.306 C 
ATOM     34  C   LIG A   1       4.025   2.459  -2.424  0.00  0.00    +0.136 C 
ATOM     35  O   LIG A   1       5.027   1.448  -0.499  0.00  0.00    -0.251 OA
ENDBRANCH  32  33
ENDBRANCH   9  32
BRANCH  14  36
ATOM     36  C   LIG A   1      -1.079   2.345  -0.370  0.00  0.00    +0.034 C 
BRANCH  36  37
ATOM     37  C   LIG A   1      -1.194   2.627  -1.868  0.00  0.00    -0.023 C 
ATOM     38  C   LIG A   1      -1.831   3.624  -2.515  0.00  0.00    -0.055 C 
ATOM     39  C   LIG A   1      -1.866   3.662  -4.028  0.00  0.00    +0.043 C 
BRANCH  38  40
ATOM     40  C   LIG A   1      -2.531   4.713  -1.868  0.00  0.00    -0.005 C 
ATOM     41  C   LIG A   1      -1.953   5.582  -1.030  0.00  0.00    +0.008 C 
ENDBRANCH  38  40
ENDBRANCH  36  37
ENDBRANCH  14  36
TORSDOF 14
