@<TRIPOS>MOLECULE
NuBBE_1962
 63 68 0 0 0
SMALL
GASTEIGER

@<TRIPOS>ATOM
      1 O          -0.9240    3.3473    2.2753 O.2     1  LIG1       -0.2753
      2 C          -1.1826    2.1659    2.1120 C.2     1  LIG1        0.2199
      3 N          -0.6230    1.3803    1.0969 N.am    1  LIG1       -0.2638
      4 C          -0.8736   -0.0622    0.9069 C.3     1  LIG1        0.0449
      5 H          -1.9231   -0.2782    1.1329 H       1  LIG1        0.0515
      6 C          -0.5374   -0.3756   -0.5778 C.3     1  LIG1        0.0609
      7 C          -0.3901   -1.9271   -0.8889 C.3     1  LIG1        0.1402
      8 N          -1.6729   -2.2505   -1.5253 N.3     1  LIG1       -0.2737
      9 C          -2.6394   -1.1867   -1.4160 C.3     1  LIG1        0.0025
     10 C          -1.7482    0.0283   -1.4614 C.3     1  LIG1       -0.0247
     11 O           0.6271   -2.1244   -1.8876 O.3     1  LIG1       -0.3574
     12 C           1.6960   -2.9165   -1.3695 C.3     1  LIG1        0.0506
     13 C           1.5256   -2.9651    0.1279 C.3     1  LIG1       -0.0198
     14 C           0.0092   -2.8557    0.3094 C.3     1  LIG1        0.0166
     15 C          -0.5918   -4.2889    0.2092 C.3     1  LIG1       -0.0422
     16 C          -2.0601   -4.2666   -0.1876 C.3     1  LIG1       -0.0395
     17 C          -2.1861   -3.5964   -1.5400 C.3     1  LIG1        0.0015
     18 C          -0.3300   -2.3227    1.7089 C.3     1  LIG1       -0.0416
     19 C           0.0180   -0.8602    1.8592 C.3     1  LIG1       -0.0323
     20 C           0.5178    0.6980   -0.8045 C.ar    1  LIG1       -0.0066
     21 C           1.4191    0.8111   -1.8615 C.ar    1  LIG1       -0.0104
     22 C           2.1574    1.9929   -2.0219 C.ar    1  LIG1        0.1656
     23 O           3.0083    1.9811   -3.1056 O.3     1  LIG1       -0.4913
     24 C           4.1817    2.7867   -3.0010 C.3     1  LIG1        0.0790
     25 C           1.9316    3.0884   -1.1567 C.ar    1  LIG1        0.2052
     26 O           2.5306    4.2726   -1.5076 O.3     1  LIG1       -0.4885
     27 C           2.9163    5.1582   -0.4672 C.3     1  LIG1        0.0791
     28 C           1.0152    2.9697   -0.0888 C.ar    1  LIG1        0.1844
     29 O           0.7963    4.0754    0.6803 O.3     1  LIG1       -0.5020
     30 C           0.3301    1.7701    0.1120 C.ar    1  LIG1        0.0861
     31 C          -2.1928    1.4694    3.0336 C.3     1  LIG1        0.0217
     32 C          -2.7920    2.3815    4.0953 C.3     1  LIG1       -0.0570
     33 H          -3.2001   -1.2411   -0.4769 H       1  LIG1        0.0428
     34 H          -3.3514   -1.1781   -2.2477 H       1  LIG1        0.0428
     35 H          -1.4326    0.2186   -2.4977 H       1  LIG1        0.0288
     36 H          -2.2742    0.9244   -1.1132 H       1  LIG1        0.0288
     37 H           1.6399   -3.9143   -1.8162 H       1  LIG1        0.0561
     38 H           2.6528   -2.4700   -1.6557 H       1  LIG1        0.0561
     39 H           2.0591   -2.1154    0.5622 H       1  LIG1        0.0294
     40 H           1.9596   -3.8684    0.5703 H       1  LIG1        0.0294
     41 H          -0.4849   -4.8167    1.1658 H       1  LIG1        0.0272
     42 H          -0.0475   -4.8949   -0.5254 H       1  LIG1        0.0272
     43 H          -2.6687   -3.7449    0.5599 H       1  LIG1        0.0278
     44 H          -2.4425   -5.2920   -0.2477 H       1  LIG1        0.0278
     45 H          -3.2316   -3.6208   -1.8722 H       1  LIG1        0.0427
     46 H          -1.6293   -4.1772   -2.2860 H       1  LIG1        0.0427
     47 H           0.2057   -2.9003    2.4726 H       1  LIG1        0.0273
     48 H          -1.3984   -2.4466    1.9248 H       1  LIG1        0.0273
     49 H           1.0783   -0.6707    1.6573 H       1  LIG1        0.0284
     50 H          -0.1225   -0.5575    2.8997 H       1  LIG1        0.0284
     51 H           1.5252    0.0182   -2.5985 H       1  LIG1        0.0659
     52 H           4.8568    2.5157   -3.8185 H       1  LIG1        0.0660
     53 H           4.7078    2.6069   -2.0566 H       1  LIG1        0.0660
     54 H           3.9637    3.8484   -3.1447 H       1  LIG1        0.0660
     55 H           3.8190    5.6781   -0.8019 H       1  LIG1        0.0660
     56 H           3.1698    4.6426    0.4646 H       1  LIG1        0.0660
     57 H           2.1382    5.9122   -0.3181 H       1  LIG1        0.0660
     58 H           0.0723    3.8942    1.3166 H       1  LIG1        0.2924
     59 H          -1.7044    0.6414    3.5501 H       1  LIG1        0.0356
     60 H          -3.0108    1.0803    2.4235 H       1  LIG1        0.0356
     61 H          -2.0243    2.8079    4.7503 H       1  LIG1        0.0234
     62 H          -3.4887    1.8125    4.7251 H       1  LIG1        0.0234
     63 H          -3.3494    3.2073    3.6435 H       1  LIG1        0.0234
@<TRIPOS>BOND
     1     1     2    2
     2     2     3   am
     3     3     4    1
     4     4     5    1
     5     4     6    1
     6     6     7    1
     7     7     8    1
     8     8     9    1
     9     9    10    1
    10     6    10    1
    11     7    11    1
    12    11    12    1
    13    12    13    1
    14     7    14    1
    15    13    14    1
    16    14    15    1
    17    15    16    1
    18    16    17    1
    19     8    17    1
    20    14    18    1
    21    18    19    1
    22     4    19    1
    23     6    20    1
    24    20    21   ar
    25    21    22   ar
    26    22    23    1
    27    23    24    1
    28    22    25   ar
    29    25    26    1
    30    26    27    1
    31    25    28   ar
    32    28    29    1
    33    28    30   ar
    34    20    30   ar
    35     3    30    1
    36     2    31    1
    37    31    32    1
    38     9    33    1
    39     9    34    1
    40    10    35    1
    41    10    36    1
    42    12    37    1
    43    12    38    1
    44    13    39    1
    45    13    40    1
    46    15    41    1
    47    15    42    1
    48    16    43    1
    49    16    44    1
    50    17    45    1
    51    17    46    1
    52    18    47    1
    53    18    48    1
    54    19    49    1
    55    19    50    1
    56    21    51    1
    57    24    52    1
    58    24    53    1
    59    24    54    1
    60    27    55    1
    61    27    56    1
    62    27    57    1
    63    29    58    1
    64    31    59    1
    65    31    60    1
    66    32    61    1
    67    32    62    1
    68    32    63    1
