@<TRIPOS>MOLECULE
NuBBE_1790
 49 49 0 0 0
SMALL
GASTEIGER

@<TRIPOS>ATOM
      1 C          -2.7066   -0.5260   -2.7527 C.3     1  LIG1       -0.0117
      2 C          -3.1928    0.9282   -2.6719 C.3     1  LIG1        0.0790
      3 H          -3.8938    1.0143   -1.8326 H       1  LIG1        0.0616
      4 C          -3.8941    1.4347   -3.9374 C.3     1  LIG1        0.0701
      5 O          -4.3584    2.7657   -3.6850 O.3     1  LIG1       -0.3925
      6 O          -2.1072    1.7990   -2.3550 O.3     1  LIG1       -0.3895
      7 C          -1.6387   -0.8567   -3.8118 C.3     1  LIG1        0.0622
      8 H          -2.0452   -0.7057   -4.8182 H       1  LIG1        0.0415
      9 C          -0.3137   -0.1300   -3.6843 C.3     1  LIG1       -0.0027
     10 C           0.7373   -1.1874   -3.4177 C.3     1  LIG1        0.1038
     11 H           1.3703   -1.2998   -4.3088 H       1  LIG1        0.0734
     12 O           0.0489   -2.4235   -3.2515 O.3     1  LIG1       -0.4611
     13 C          -1.2355   -2.3037   -3.6876 C.2     1  LIG1        0.3107
     14 O          -1.9709   -3.2539   -3.9105 O.2     1  LIG1       -0.2505
     15 C           1.6630   -0.8659   -2.2252 C.3     1  LIG1       -0.0156
     16 C           0.9672   -0.7053   -0.8562 C.3     1  LIG1       -0.0497
     17 C           1.9644   -0.3609    0.2706 C.3     1  LIG1       -0.0529
     18 C           1.2848   -0.1694    1.6417 C.3     1  LIG1       -0.0531
     19 C           2.2961    0.1736    2.7560 C.3     1  LIG1       -0.0530
     20 C           1.6223    0.3594    4.1292 C.3     1  LIG1       -0.0522
     21 C           2.6308    0.6804    5.2485 C.3     1  LIG1       -0.0422
     22 C           1.9825    0.9242    6.6155 C.3     1  LIG1        0.0089
     23 C           1.3068   -0.2795    7.1644 C.1     1  LIG1       -0.1056
     24 C           0.7754   -1.2414    7.6248 C.1     1  LIG1       -0.1192
     25 H          -2.3195   -0.8143   -1.7660 H       1  LIG1        0.0299
     26 H          -3.5826   -1.1673   -2.9267 H       1  LIG1        0.0299
     27 H          -4.7534    0.8067   -4.1900 H       1  LIG1        0.0583
     28 H          -3.2080    1.4879   -4.7875 H       1  LIG1        0.0583
     29 H          -5.1045    2.9282   -4.2903 H       1  LIG1        0.2095
     30 H          -2.4499    2.7058   -2.4818 H       1  LIG1        0.2099
     31 H          -0.2941    0.6313   -2.9104 H       1  LIG1        0.0309
     32 H          -0.0845    0.4012   -4.6158 H       1  LIG1        0.0309
     33 H           2.4130   -1.6632   -2.1437 H       1  LIG1        0.0301
     34 H           2.2048    0.0598   -2.4584 H       1  LIG1        0.0301
     35 H           0.4267   -1.6258   -0.6095 H       1  LIG1        0.0266
     36 H           0.2275    0.0997   -0.9093 H       1  LIG1        0.0266
     37 H           2.4929    0.5638    0.0080 H       1  LIG1        0.0265
     38 H           2.7176   -1.1539    0.3452 H       1  LIG1        0.0265
     39 H           0.7405   -1.0829    1.9100 H       1  LIG1        0.0265
     40 H           0.5444    0.6366    1.5688 H       1  LIG1        0.0265
     41 H           2.8302    1.0935    2.4882 H       1  LIG1        0.0265
     42 H           3.0448   -0.6249    2.8260 H       1  LIG1        0.0265
     43 H           1.0792   -0.5572    4.3845 H       1  LIG1        0.0266
     44 H           0.8855    1.1690    4.0664 H       1  LIG1        0.0266
     45 H           3.1916    1.5840    4.9776 H       1  LIG1        0.0274
     46 H           3.3626   -0.1335    5.3292 H       1  LIG1        0.0274
     47 H           1.2769    1.7601    6.5620 H       1  LIG1        0.0397
     48 H           2.7643    1.2253    7.3278 H       1  LIG1        0.0397
     49 H           0.3010   -2.1004    8.0512 H       1  LIG1        0.1228
@<TRIPOS>BOND
     1     2     4    1
     2     4     5    1
     3     2     6    1
     4     1     7    1
     5     7     8    1
     6     7     9    1
     7     9    10    1
     8    10    12    1
     9    12    13    1
    10     7    13    1
    11    13    14    2
    12    15    16    1
    13    16    17    1
    14    17    18    1
    15    18    19    1
    16    19    20    1
    17    20    21    1
    18    21    22    1
    19    22    23    1
    20    23    24    3
    21    10    15    1
    22    10    11    1
    23     2     3    1
    24     2     1    1
    25     1    25    1
    26     1    26    1
    27     4    27    1
    28     4    28    1
    29     5    29    1
    30     6    30    1
    31     9    31    1
    32     9    32    1
    33    15    33    1
    34    15    34    1
    35    16    35    1
    36    16    36    1
    37    17    37    1
    38    17    38    1
    39    18    39    1
    40    18    40    1
    41    19    41    1
    42    19    42    1
    43    20    43    1
    44    20    44    1
    45    21    45    1
    46    21    46    1
    47    22    47    1
    48    22    48    1
    49    24    49    1
