REMARK  Name = NuBBE_1272
REMARK  3 active torsions:
REMARK  status: ('A' for Active; 'I' for Inactive)
REMARK    1  A    between atoms: C_9  and  O_10
REMARK    2  A    between atoms: C_11  and  O_12
REMARK    3  A    between atoms: O_12  and  C_13
REMARK                            x       y       z     vdW  Elec       q    Type
REMARK                         _______ _______ _______ _____ _____    ______ ____
ROOT
ATOM      1  O   LIG A   1      -4.342   1.175  -0.228  0.00  0.00    -0.245 OA
ATOM      2  C   LIG A   1      -3.122   1.208  -0.121  0.00  0.00    +0.337 A 
ATOM      3  C   LIG A   1      -2.420   2.487   0.087  0.00  0.00    +0.092 A 
ATOM      4  C   LIG A   1      -1.091   2.566   0.209  0.00  0.00    +0.019 A 
ATOM      5  O   LIG A   1      -2.338   0.065  -0.186  0.00  0.00    -0.422 OA
ATOM      6  C   LIG A   1      -0.935   0.132  -0.060  0.00  0.00    +0.143 A 
ATOM      7  C   LIG A   1      -0.293   1.353   0.137  0.00  0.00    +0.021 A 
ATOM      8  C   LIG A   1       1.097   1.371   0.258  0.00  0.00    +0.060 A 
ATOM      9  C   LIG A   1       1.810   0.171   0.179  0.00  0.00    +0.159 A 
ATOM     10  C   LIG A   1       1.158  -1.059  -0.021  0.00  0.00    +0.165 A 
ATOM     11  C   LIG A   1      -0.232  -1.071  -0.140  0.00  0.00    +0.096 A 
ENDROOT
BRANCH   9  12
ATOM     12  O   LIG A   1       3.175   0.185   0.297  0.00  0.00    -0.503 OA
ATOM     13  H   LIG A   1       3.481   1.095   0.431  0.00  0.00    +0.292 HD
ENDBRANCH   9  12
BRANCH  10  14
ATOM     14  O   LIG A   1       1.962  -2.167  -0.081  0.00  0.00    -0.491 OA
ATOM     15  C   LIG A   1       1.333  -3.421  -0.301  0.00  0.00    +0.277 C 
ENDBRANCH  10  14
TORSDOF 2
