@<TRIPOS>MOLECULE
NuBBE_1387
 75 78 0 0 0
SMALL
GASTEIGER

@<TRIPOS>ATOM
      1 C          -2.1352   -0.0623    1.5596 C.3     1  LIG1       -0.0590
      2 C          -0.6554   -0.1124    1.1259 C.3     1  LIG1       -0.0259
      3 C           0.2642   -0.3253    2.3700 C.3     1  LIG1       -0.0322
      4 C           1.4884   -1.0045    1.7558 C.3     1  LIG1       -0.0492
      5 C           0.9004   -2.0130    0.7805 C.3     1  LIG1       -0.0492
      6 C          -0.4238   -1.4132    0.2445 C.3     1  LIG1       -0.0328
      7 H          -1.2135   -2.1380    0.4928 H       1  LIG1        0.0309
      8 C          -0.4300   -1.2819   -1.3216 C.3     1  LIG1       -0.0405
      9 H           0.4182   -0.6479   -1.6091 H       1  LIG1        0.0301
     10 C          -0.2389   -2.6657   -2.0181 C.3     1  LIG1       -0.0499
     11 C          -0.1024   -2.5637   -3.5515 C.3     1  LIG1       -0.0500
     12 C           0.0592   -3.9220   -4.2780 C.3     1  LIG1       -0.0415
     13 H           0.9312   -4.4288   -3.8420 H       1  LIG1        0.0301
     14 C          -1.1562   -4.8266   -4.0342 C.3     1  LIG1       -0.0622
     15 C           0.3699   -3.7182   -5.7960 C.3     1  LIG1       -0.0441
     16 C           0.5426   -5.0476   -6.5413 C.3     1  LIG1       -0.0624
     17 C          -0.6561   -2.8548   -6.5395 C.3     1  LIG1       -0.0624
     18 C          -1.7168   -0.6515   -1.8854 C.3     1  LIG1       -0.0621
     19 H          -0.1984   -1.0621    3.0434 H       1  LIG1        0.0309
     20 C           0.6505    0.9270    3.2151 C.3     1  LIG1       -0.0338
     21 H           1.5563    0.6524    3.7731 H       1  LIG1        0.0307
     22 C           0.9971    2.1818    2.3545 C.3     1  LIG1       -0.0288
     23 C           1.2697    3.4698    3.2201 C.3     1  LIG1       -0.0072
     24 C           0.0943    3.6624    4.1689 C.2     1  LIG1       -0.0601
     25 C          -0.1775    2.5016    5.0941 C.3     1  LIG1       -0.0305
     26 C          -0.4244    1.2241    4.2891 C.3     1  LIG1       -0.0459
     27 C          -0.7225    4.7282    4.1580 C.2     1  LIG1       -0.0194
     28 C          -0.6064    5.8020    3.1457 C.2     1  LIG1        0.1561
     29 C           0.3269    5.5885    1.9835 C.3     1  LIG1        0.0107
     30 C           1.5389    4.7452    2.3597 C.3     1  LIG1       -0.0367
     31 O          -1.3416    6.7777    3.2179 O.2     1  LIG1       -0.2927
     32 C           2.5795    3.2603    4.0334 C.3     1  LIG1       -0.0556
     33 H           1.9293    1.9596    1.8153 H       1  LIG1        0.0312
     34 C          -0.0853    2.3932    1.2924 C.3     1  LIG1       -0.0487
     35 C          -0.2479    1.1797    0.3925 C.3     1  LIG1       -0.0468
     36 H          -2.3648   -0.8677    2.2678 H       1  LIG1        0.0235
     37 H          -2.8131   -0.1877    0.7115 H       1  LIG1        0.0235
     38 H          -2.4042    0.8822    2.0358 H       1  LIG1        0.0235
     39 H           2.1101   -1.4956    2.5117 H       1  LIG1        0.0268
     40 H           2.1238   -0.2938    1.2167 H       1  LIG1        0.0268
     41 H           0.6761   -2.9463    1.3135 H       1  LIG1        0.0268
     42 H           1.6334   -2.2500    0.0056 H       1  LIG1        0.0268
     43 H          -1.1001   -3.2922   -1.7600 H       1  LIG1        0.0268
     44 H           0.6468   -3.1799   -1.6342 H       1  LIG1        0.0268
     45 H           0.7637   -1.9299   -3.7808 H       1  LIG1        0.0268
     46 H          -0.9844   -2.0615   -3.9599 H       1  LIG1        0.0268
     47 H          -1.2442   -5.0880   -2.9754 H       1  LIG1        0.0232
     48 H          -1.0721   -5.7758   -4.5703 H       1  LIG1        0.0232
     49 H          -2.0873   -4.3401   -4.3401 H       1  LIG1        0.0232
     50 H           1.3343   -3.1955   -5.8586 H       1  LIG1        0.0298
     51 H          -0.4174   -5.5492   -6.7039 H       1  LIG1        0.0232
     52 H           1.2013   -5.7270   -5.9916 H       1  LIG1        0.0232
     53 H           0.9878   -4.8777   -7.5280 H       1  LIG1        0.0232
     54 H          -1.6748   -3.2328   -6.4116 H       1  LIG1        0.0232
     55 H          -0.4412   -2.8344   -7.6140 H       1  LIG1        0.0232
     56 H          -0.6271   -1.8175   -6.1917 H       1  LIG1        0.0232
     57 H          -1.5268   -0.2396   -2.8832 H       1  LIG1        0.0233
     58 H          -2.1141    0.1716   -1.2993 H       1  LIG1        0.0233
     59 H          -2.5203   -1.3902   -1.9710 H       1  LIG1        0.0233
     60 H          -1.0559    2.6945    5.7230 H       1  LIG1        0.0310
     61 H           0.6591    2.3643    5.7873 H       1  LIG1        0.0310
     62 H          -1.4124    1.3034    3.8309 H       1  LIG1        0.0271
     63 H          -0.4799    0.3786    4.9867 H       1  LIG1        0.0271
     64 H          -1.5599    4.8325    4.8396 H       1  LIG1        0.0652
     65 H           0.6765    6.5704    1.6427 H       1  LIG1        0.0345
     66 H          -0.2518    5.1548    1.1658 H       1  LIG1        0.0345
     67 H           2.2081    5.4162    2.9180 H       1  LIG1        0.0278
     68 H           2.0953    4.4776    1.4521 H       1  LIG1        0.0278
     69 H           2.5662    2.3679    4.6641 H       1  LIG1        0.0238
     70 H           2.7717    4.1126    4.6973 H       1  LIG1        0.0238
     71 H           3.4404    3.1633    3.3611 H       1  LIG1        0.0238
     72 H           0.2010    3.2127    0.6298 H       1  LIG1        0.0268
     73 H          -1.0436    2.6650    1.7470 H       1  LIG1        0.0268
     74 H           0.6988    1.0307   -0.1404 H       1  LIG1        0.0271
     75 H          -0.9831    1.4602   -0.3629 H       1  LIG1        0.0271
@<TRIPOS>BOND
     1     2     3    1
     2     3     4    1
     3     4     5    1
     4     5     6    1
     5     2     6    1
     6     8     9    1
     7     8    10    1
     8    10    11    1
     9    11    12    1
    10    12    13    1
    11    12    14    1
    12    12    15    1
    13    15    16    1
    14    15    17    1
    15     8    18    1
    16     3    20    1
    17    20    22    1
    18    22    23    1
    19    23    24    1
    20    24    25    1
    21    25    26    1
    22    20    26    1
    23    24    27    2
    24    27    28    1
    25    28    29    1
    26    29    30    1
    27    30    23    1
    28    22    34    1
    29    34    35    1
    30     2    35    1
    31     1     2    1
    32     3    19    1
    33     6     7    1
    34     6     8    1
    35    20    21    1
    36    22    33    1
    37    23    32    1
    38    28    31    2
    39     1    36    1
    40     1    37    1
    41     1    38    1
    42     4    39    1
    43     4    40    1
    44     5    41    1
    45     5    42    1
    46    10    43    1
    47    10    44    1
    48    11    45    1
    49    11    46    1
    50    14    47    1
    51    14    48    1
    52    14    49    1
    53    15    50    1
    54    16    51    1
    55    16    52    1
    56    16    53    1
    57    17    54    1
    58    17    55    1
    59    17    56    1
    60    18    57    1
    61    18    58    1
    62    18    59    1
    63    25    60    1
    64    25    61    1
    65    26    62    1
    66    26    63    1
    67    27    64    1
    68    29    65    1
    69    29    66    1
    70    30    67    1
    71    30    68    1
    72    32    69    1
    73    32    70    1
    74    32    71    1
    75    34    72    1
    76    34    73    1
    77    35    74    1
    78    35    75    1
