@<TRIPOS>MOLECULE
NuBBE_1289
 87 92 0 0 0
SMALL
GASTEIGER

@<TRIPOS>ATOM
      1 C           0.2415   -1.2480    2.2878 C.3     1  LIG1       -0.0530
      2 C           1.0270   -0.5716    1.1356 C.3     1  LIG1        0.0242
      3 C           0.1889   -0.3041   -0.1921 C.3     1  LIG1       -0.0102
      4 H          -0.3089   -1.2392   -0.4802 H       1  LIG1        0.0322
      5 C           1.0788    0.1244   -1.3903 C.3     1  LIG1        0.0492
      6 C           2.1628   -0.7685   -1.9469 C.2     1  LIG1        0.3071
      7 O           3.3495   -0.6711   -1.6566 O.2     1  LIG1       -0.2509
      8 O           1.6800   -1.5682   -2.9311 O.3     1  LIG1       -0.4679
      9 C           2.6999   -2.2316   -3.6840 C.3     1  LIG1        0.0817
     10 C          -0.9566    0.8159    0.0614 C.3     1  LIG1        0.0152
     11 C          -1.9520    0.2849    1.1513 C.3     1  LIG1       -0.0555
     12 C          -0.3214    2.1080    0.5999 C.3     1  LIG1        0.0077
     13 H          -1.0279    2.4225    1.3874 H       1  LIG1        0.0340
     14 C           0.9916    2.0677    1.3790 C.3     1  LIG1        0.0897
     15 H           0.7064    2.3630    2.4020 H       1  LIG1        0.0625
     16 C           1.7244    0.7401    1.6257 C.3     1  LIG1        0.0952
     17 H           1.7978    0.6937    2.7251 H       1  LIG1        0.0631
     18 O           3.1108    0.6316    1.1855 O.3     1  LIG1       -0.3656
     19 C           3.4150   -0.7031    1.5858 C.3     1  LIG1        0.0819
     20 H           3.4355   -0.7363    2.6845 H       1  LIG1        0.0644
     21 C           2.2423   -1.4475    1.0555 C.2     1  LIG1       -0.0329
     22 C           2.5423   -2.7156    0.7510 C.2     1  LIG1       -0.0628
     23 C           1.6136   -3.7738    0.2707 C.3     1  LIG1       -0.0429
     24 C           4.0266   -2.9607    1.0087 C.3     1  LIG1        0.0109
     25 H           4.4834   -3.4980    0.1695 H       1  LIG1        0.0396
     26 C           4.5866   -1.5026    1.0513 C.3     1  LIG1       -0.0121
     27 C           4.2532   -3.7455    2.2864 C.ar    1  LIG1       -0.0025
     28 C           4.9765   -3.3582    3.4582 C.ar    1  LIG1       -0.0202
     29 C           4.9148   -4.4092    4.3406 C.ar    1  LIG1        0.0920
     30 O           4.1985   -5.4265    3.8072 O.2     1  LIG1       -0.4707
     31 C           3.8073   -5.0260    2.5707 C.ar    1  LIG1        0.0954
     32 O           1.7339    3.2061    0.9213 O.3     1  LIG1       -0.3730
     33 C           0.7175    4.1812    0.5548 C.3     1  LIG1        0.0572
     34 C          -0.2580    3.3646   -0.3049 C.3     1  LIG1        0.0343
     35 C           0.3771    3.3453   -1.7181 C.3     1  LIG1       -0.0537
     36 C          -1.7224    3.8102   -0.5220 C.3     1  LIG1        0.1142
     37 H          -1.7878    4.5687   -1.3127 H       1  LIG1        0.0741
     38 C          -2.5986    2.5810   -0.9923 C.3     1  LIG1        0.0227
     39 C          -1.8619    1.2009   -1.1772 C.3     1  LIG1        0.1127
     40 H          -1.2871    1.2405   -2.0992 H       1  LIG1        0.0741
     41 O          -2.8422    0.1403   -1.3384 O.3     1  LIG1       -0.4574
     42 C          -3.4736   -0.0592   -2.5089 C.2     1  LIG1        0.3348
     43 O          -3.2585    0.5522   -3.5538 O.2     1  LIG1       -0.2453
     44 C          -4.4930   -1.1469   -2.3292 C.2     1  LIG1        0.0293
     45 C          -4.9985   -1.7413   -3.4355 C.2     1  LIG1       -0.0774
     46 C          -6.0228   -2.8337   -3.4722 C.3     1  LIG1       -0.0461
     47 C          -4.9089   -1.5257   -0.9367 C.3     1  LIG1       -0.0333
     48 O          -2.3588    4.3989    0.6414 O.3     1  LIG1       -0.4608
     49 C          -2.0499    5.7186    0.8718 C.2     1  LIG1        0.3042
     50 O          -1.0734    6.2967    0.4641 O.2     1  LIG1       -0.2512
     51 C          -3.1544    6.3982    1.6284 C.3     1  LIG1        0.0332
     52 H          -0.2432   -0.5325    2.9513 H       1  LIG1        0.0239
     53 H           0.8900   -1.8251    2.9636 H       1  LIG1        0.0239
     54 H          -0.4867   -1.9697    1.9036 H       1  LIG1        0.0239
     55 H           0.4542    0.3543   -2.2586 H       1  LIG1        0.0381
     56 H           1.6001    1.0439   -1.1370 H       1  LIG1        0.0381
     57 H           2.3324   -2.3722   -4.7037 H       1  LIG1        0.0661
     58 H           2.8940   -3.2071   -3.2329 H       1  LIG1        0.0661
     59 H           3.6309   -1.6549   -3.7509 H       1  LIG1        0.0661
     60 H          -1.6402    0.5491    2.1633 H       1  LIG1        0.0236
     61 H          -2.0845   -0.7988    1.0810 H       1  LIG1        0.0236
     62 H          -2.9519    0.7212    1.0625 H       1  LIG1        0.0236
     63 H           0.7183   -3.3461   -0.1904 H       1  LIG1        0.0275
     64 H           1.2855   -4.4071    1.1008 H       1  LIG1        0.0275
     65 H           2.0969   -4.4050   -0.4805 H       1  LIG1        0.0275
     66 H           4.9148   -1.1652    0.0653 H       1  LIG1        0.0302
     67 H           5.4608   -1.3937    1.7015 H       1  LIG1        0.0302
     68 H           5.4915   -2.4272    3.6476 H       1  LIG1        0.0652
     69 H           5.3109   -4.5772    5.3325 H       1  LIG1        0.1029
     70 H           3.2199   -5.7512    2.0247 H       1  LIG1        0.1032
     71 H           1.1903    5.0208    0.0371 H       1  LIG1        0.0567
     72 H           0.2751    4.5435    1.4889 H       1  LIG1        0.0567
     73 H           1.3322    2.8318   -1.7731 H       1  LIG1        0.0237
     74 H           0.5885    4.3784   -2.0325 H       1  LIG1        0.0237
     75 H          -0.2828    2.9595   -2.4992 H       1  LIG1        0.0237
     76 H          -3.0246    2.8414   -1.9716 H       1  LIG1        0.0337
     77 H          -3.4797    2.4551   -0.3486 H       1  LIG1        0.0337
     78 H          -4.6510   -1.4190   -4.4179 H       1  LIG1        0.0574
     79 H          -6.4053   -3.1072   -2.4844 H       1  LIG1        0.0272
     80 H          -5.5931   -3.7326   -3.9262 H       1  LIG1        0.0272
     81 H          -6.8780   -2.5232   -4.0813 H       1  LIG1        0.0272
     82 H          -4.8751   -2.6120   -0.8011 H       1  LIG1        0.0280
     83 H          -5.9238   -1.1683   -0.7335 H       1  LIG1        0.0280
     84 H          -4.2693   -1.1103   -0.1567 H       1  LIG1        0.0280
     85 H          -3.1543    6.1187    2.6817 H       1  LIG1        0.0342
     86 H          -4.1074    6.1639    1.1512 H       1  LIG1        0.0342
     87 H          -3.0025    7.4814    1.5429 H       1  LIG1        0.0342
@<TRIPOS>BOND
     1     1     2    1
     2     2     3    1
     3     5     6    1
     4     6     7    2
     5     6     8    1
     6     8     9    1
     7     3    10    1
     8    10    11    1
     9    10    12    1
    10    12    13    1
    11    12    14    1
    12    14    15    1
    13    14    16    1
    14    16    17    1
    15     2    16    1
    16    16    18    1
    17    18    19    1
    18    19    20    1
    19    19    21    1
    20     2    21    1
    21    21    22    2
    22    22    23    1
    23    22    24    1
    24    24    26    1
    25    19    26    1
    26    27    28   ar
    27    28    29   ar
    28    29    30   ar
    29    30    31   ar
    30    27    31   ar
    31    14    32    1
    32    32    33    1
    33    33    34    1
    34    12    34    1
    35    34    35    1
    36    34    36    1
    37    36    37    1
    38    36    38    1
    39    38    39    1
    40    10    39    1
    41    41    42    1
    42    42    43    2
    43    42    44    1
    44    44    45    2
    45    45    46    1
    46    44    47    1
    47    36    48    1
    48    48    49    1
    49    49    50    2
    50    49    51    1
    51     3     5    1
    52     3     4    1
    53    24    27    1
    54    24    25    1
    55    39    41    1
    56    39    40    1
    57     1    52    1
    58     1    53    1
    59     1    54    1
    60     5    55    1
    61     5    56    1
    62     9    57    1
    63     9    58    1
    64     9    59    1
    65    11    60    1
    66    11    61    1
    67    11    62    1
    68    23    63    1
    69    23    64    1
    70    23    65    1
    71    26    66    1
    72    26    67    1
    73    28    68    1
    74    29    69    1
    75    31    70    1
    76    33    71    1
    77    33    72    1
    78    35    73    1
    79    35    74    1
    80    35    75    1
    81    38    76    1
    82    38    77    1
    83    45    78    1
    84    46    79    1
    85    46    80    1
    86    46    81    1
    87    47    82    1
    88    47    83    1
    89    47    84    1
    90    51    85    1
    91    51    86    1
    92    51    87    1
