REMARK  Name = NuBBE_649
REMARK  3 active torsions:
REMARK  status: ('A' for Active; 'I' for Inactive)
REMARK    1  A    between atoms: O_1  and  C_2
REMARK    2  A    between atoms: C_13  and  C_15
REMARK    3  A    between atoms: C_15  and  C_16
REMARK                            x       y       z     vdW  Elec       q    Type
REMARK                         _______ _______ _______ _____ _____    ______ ____
ROOT
ATOM      1  C   LIG A   1      -2.604  -1.052   0.055  0.00  0.00    +0.131 A 
ATOM      2  C   LIG A   1      -1.623  -2.065   0.037  0.00  0.00    +0.059 A 
ATOM      3  C   LIG A   1      -0.275  -1.682   0.044  0.00  0.00    +0.149 A 
ATOM      4  O   LIG A   1       0.766  -2.625   0.025  0.00  0.00    -0.422 OA
ATOM      5  C   LIG A   1       0.501  -3.985   0.002  0.00  0.00    +0.337 A 
ATOM      6  C   LIG A   1      -0.915  -4.383  -0.040  0.00  0.00    +0.093 A 
ATOM      7  C   LIG A   1      -1.915  -3.495  -0.026  0.00  0.00    +0.022 A 
ATOM      8  O   LIG A   1       1.389  -4.829   0.009  0.00  0.00    -0.245 OA
ATOM      9  C   LIG A   1       0.071  -0.344   0.067  0.00  0.00    +0.041 A 
ATOM     10  C   LIG A   1      -0.914   0.625   0.068  0.00  0.00    +0.132 A 
ATOM     11  O   LIG A   1      -0.422   1.904   0.067  0.00  0.00    -0.484 OA
ATOM     12  C   LIG A   1       0.985   1.738   0.417  0.00  0.00    +0.203 C 
ATOM     13  C   LIG A   1       1.398   0.311  -0.003  0.00  0.00    +0.091 C 
ATOM     14  C   LIG A   1      -2.254   0.302   0.053  0.00  0.00    +0.092 A 
ENDROOT
BRANCH  12  15
ATOM     15  C   LIG A   1       1.778   2.906  -0.146  0.00  0.00    -0.040 C 
ATOM     16  C   LIG A   1       1.242   4.269   0.216  0.00  0.00    +0.042 C 
ATOM     17  C   LIG A   1       2.897   2.800  -0.884  0.00  0.00    +0.011 C 
ENDBRANCH  12  15
BRANCH   1  18
ATOM     18  O   LIG A   1      -3.949  -1.309   0.074  0.00  0.00    -0.506 OA
ATOM     19  H   LIG A   1      -4.101  -2.211   0.393  0.00  0.00    +0.292 HD
ENDBRANCH   1  18
TORSDOF 2
