@<TRIPOS>MOLECULE
NuBBE_1277
 33 35 0 0 0
SMALL
GASTEIGER

@<TRIPOS>ATOM
      1 O          -5.8679    2.6636   -0.5811 O.2     1  LIG1       -0.2452
      2 C          -4.6755    2.4784   -0.3667 C.ar    1  LIG1        0.3372
      3 C          -3.8402    3.5503    0.2029 C.ar    1  LIG1        0.0236
      4 C          -2.5352    3.3951    0.4462 C.ar    1  LIG1       -0.0443
      5 O          -4.0481    1.2715   -0.6414 O.2     1  LIG1       -0.4220
      6 C          -2.6715    1.0879   -0.3957 C.ar    1  LIG1        0.1425
      7 C          -1.8942    2.1261    0.1416 C.ar    1  LIG1        0.0182
      8 C          -0.5311    1.9156    0.3753 C.ar    1  LIG1       -0.0418
      9 C           0.0081    0.6784    0.0464 C.ar    1  LIG1        0.0270
     10 C           1.3926    0.1708    0.2278 C.3     1  LIG1        0.1230
     11 O           2.3689    1.0579   -0.2981 O.3     1  LIG1       -0.3833
     12 C           1.3000   -1.1271   -0.6088 C.3     1  LIG1        0.1580
     13 C           2.1158   -2.3242   -0.0479 C.3     1  LIG1        0.0999
     14 O           2.0338   -3.4332   -0.9640 O.3     1  LIG1       -0.3854
     15 C           3.6011   -1.9770    0.0891 C.3     1  LIG1       -0.0327
     16 C           1.5701   -2.8469    1.2846 C.3     1  LIG1       -0.0327
     17 O          -0.1070   -1.4931   -0.7349 O.3     1  LIG1       -0.4826
     18 C          -0.7837   -0.3305   -0.4827 C.ar    1  LIG1        0.1304
     19 C          -2.1320   -0.1585   -0.7093 C.ar    1  LIG1        0.0235
     20 H          -4.3531    4.4808    0.4146 H       1  LIG1        0.0689
     21 H          -1.9444    4.2012    0.8671 H       1  LIG1        0.0627
     22 H           0.0953    2.6898    0.8091 H       1  LIG1        0.0629
     23 H           1.5947   -0.0074    1.2872 H       1  LIG1        0.0683
     24 H           1.9376    1.6215   -0.9642 H       1  LIG1        0.2104
     25 H           1.6465   -0.9329   -1.6354 H       1  LIG1        0.0792
     26 H           2.2058   -3.1061   -1.8632 H       1  LIG1        0.2103
     27 H           4.0066   -1.6257   -0.8666 H       1  LIG1        0.0258
     28 H           4.1845   -2.8638    0.3629 H       1  LIG1        0.0258
     29 H           3.7770   -1.2063    0.8456 H       1  LIG1        0.0258
     30 H           0.5257   -3.1633    1.1882 H       1  LIG1        0.0258
     31 H           1.6354   -2.1021    2.0826 H       1  LIG1        0.0258
     32 H           2.1262   -3.7355    1.6068 H       1  LIG1        0.0258
     33 H          -2.7421   -0.9555   -1.1178 H       1  LIG1        0.0691
@<TRIPOS>BOND
     1     1     2    2
     2     2     3   ar
     3     3     4   ar
     4     2     5   ar
     5     5     6   ar
     6     6     7   ar
     7     4     7   ar
     8     7     8   ar
     9     8     9   ar
    10     9    10    1
    11    10    11    1
    12    10    12    1
    13    12    13    1
    14    13    14    1
    15    13    15    1
    16    13    16    1
    17    12    17    1
    18     9    18   ar
    19    17    18    1
    20    18    19   ar
    21     6    19   ar
    22     3    20    1
    23     4    21    1
    24     8    22    1
    25    10    23    1
    26    11    24    1
    27    12    25    1
    28    14    26    1
    29    15    27    1
    30    15    28    1
    31    15    29    1
    32    16    30    1
    33    16    31    1
    34    16    32    1
    35    19    33    1
