REMARK  Name = NuBBE_1894
REMARK  11 active torsions:
REMARK  status: ('A' for Active; 'I' for Inactive)
REMARK    1  A    between atoms: C_1  and  O_2
REMARK    2  A    between atoms: O_2  and  C_3
REMARK    3  A    between atoms: C_4  and  O_5
REMARK    4  A    between atoms: O_5  and  C_6
REMARK    5  A    between atoms: C_7  and  O_8
REMARK    6  A    between atoms: O_8  and  C_9
REMARK    7  A    between atoms: C_12  and  C_13
REMARK    8  A    between atoms: C_18  and  O_19
REMARK    9  A    between atoms: O_19  and  C_20
REMARK   10  A    between atoms: C_21  and  O_22
REMARK   11  A    between atoms: O_22  and  C_23
REMARK                            x       y       z     vdW  Elec       q    Type
REMARK                         _______ _______ _______ _____ _____    ______ ____
ROOT
ATOM      1  C   LIG A   1       0.212  -0.625  -0.211  0.00  0.00    +0.068 A 
ATOM      2  C   LIG A   1       0.240  -1.765   0.506  0.00  0.00    +0.208 A 
ATOM      3  O   LIG A   1      -0.538  -2.035   1.599  0.00  0.00    -0.462 OA
ATOM      4  C   LIG A   1      -1.162  -0.966   2.181  0.00  0.00    +0.142 A 
ATOM      5  C   LIG A   1      -1.550  -1.119   3.507  0.00  0.00    +0.096 A 
ATOM      6  C   LIG A   1      -2.256  -0.113   4.160  0.00  0.00    +0.165 A 
ATOM      7  C   LIG A   1      -2.506   1.110   3.496  0.00  0.00    +0.162 A 
ATOM      8  C   LIG A   1      -2.086   1.266   2.160  0.00  0.00    +0.064 A 
ATOM      9  C   LIG A   1      -1.406   0.227   1.510  0.00  0.00    +0.068 A 
ATOM     10  C   LIG A   1      -0.868   0.318   0.154  0.00  0.00    +0.200 A 
ATOM     11  O   LIG A   1      -1.323   1.177  -0.664  0.00  0.00    -0.286 OA
ENDROOT
BRANCH   1  17
ATOM     12  C   LIG A   1       0.955  -0.575  -2.639  0.00  0.00    +0.173 A 
ATOM     13  C   LIG A   1       1.987  -0.358  -3.598  0.00  0.00    +0.204 A 
ATOM     14  C   LIG A   1       3.226   0.200  -3.146  0.00  0.00    +0.165 A 
ATOM     15  C   LIG A   1       3.436   0.471  -1.789  0.00  0.00    +0.050 A 
ATOM     16  C   LIG A   1       2.456   0.161  -0.852  0.00  0.00    +0.016 A 
ATOM     17  C   LIG A   1       1.217  -0.357  -1.260  0.00  0.00    +0.034 A 
BRANCH  12  19
ATOM     18  C   LIG A   1      -1.014  -0.262  -3.862  0.00  0.00    +0.277 C 
ATOM     19  O   LIG A   1      -0.336  -1.010  -2.869  0.00  0.00    -0.491 OA
ENDBRANCH  12  19
BRANCH  13  20
ATOM     20  O   LIG A   1       2.025  -0.659  -4.946  0.00  0.00    -0.488 OA
ATOM     21  C   LIG A   1       0.878  -0.818  -5.752  0.00  0.00    +0.277 C 
ENDBRANCH  13  20
BRANCH  14  22
ATOM     22  O   LIG A   1       4.177   0.483  -4.110  0.00  0.00    -0.491 OA
ATOM     23  C   LIG A   1       5.400   1.083  -3.683  0.00  0.00    +0.277 C 
ENDBRANCH  14  22
ENDBRANCH   1  17
BRANCH   6  24
ATOM     24  O   LIG A   1      -2.618  -0.262   5.465  0.00  0.00    -0.491 OA
ATOM     25  C   LIG A   1      -3.072  -1.529   5.920  0.00  0.00    +0.277 C 
ENDBRANCH   6  24
BRANCH   7  26
ATOM     26  O   LIG A   1      -3.169   2.189   4.040  0.00  0.00    -0.491 OA
ATOM     27  C   LIG A   1      -3.095   2.319   5.462  0.00  0.00    +0.277 C 
ENDBRANCH   7  26
TORSDOF 6
