@<TRIPOS>MOLECULE
NuBBE_1082
 44 44 0 0 0
SMALL
GASTEIGER

@<TRIPOS>ATOM
      1 O          -1.4754    1.4034    1.7648 O.3     1  LIG1       -0.3861
      2 C          -1.9201    1.5169    0.4039 C.3     1  LIG1        0.1134
      3 H          -1.5220    2.4442   -0.0076 H       1  LIG1        0.0651
      4 C          -1.3857    0.3088   -0.4334 C.3     1  LIG1        0.1155
      5 H          -1.8111   -0.5894    0.0305 H       1  LIG1        0.0673
      6 C           0.1440    0.1241   -0.4907 C.ar    1  LIG1        0.0666
      7 C           1.0454    1.2095   -0.5478 C.ar    1  LIG1        0.1293
      8 O           0.5323    2.4735   -0.5228 O.3     1  LIG1       -0.4946
      9 C           1.2449    3.4884   -1.2183 C.3     1  LIG1        0.0788
     10 C           2.4249    0.9920   -0.5404 C.ar    1  LIG1       -0.0191
     11 C           2.9374   -0.2998   -0.5368 C.ar    1  LIG1       -0.0516
     12 C           2.0847   -1.4086   -0.5550 C.ar    1  LIG1       -0.0048
     13 C           2.7344   -2.7759   -0.5990 C.3     1  LIG1       -0.0142
     14 C           2.9900   -3.3404    0.7927 C.3     1  LIG1        0.0489
     15 C           3.6727   -4.6854    0.6976 C.2     1  LIG1        0.3050
     16 O           3.9010   -5.2136    1.9183 O.3     1  LIG1       -0.4806
     17 O           4.0039   -5.2752   -0.3014 O.2     1  LIG1       -0.2510
     18 C           0.6946   -1.1822   -0.5248 C.ar    1  LIG1        0.1292
     19 O          -0.1876   -2.2306   -0.5419 O.3     1  LIG1       -0.5060
     20 O          -1.9055    0.3702   -1.7716 O.3     1  LIG1       -0.3843
     21 C          -3.4613    1.7612    0.3601 C.3     1  LIG1        0.0890
     22 C          -4.2679    0.6381    1.0089 C.3     1  LIG1       -0.0338
     23 C          -3.7745    3.0887    1.0745 C.3     1  LIG1       -0.0338
     24 O          -3.9300    1.9203   -0.9870 O.3     1  LIG1       -0.3865
     25 H          -0.5050    1.4900    1.7374 H       1  LIG1        0.2100
     26 H           2.1521    3.7726   -0.6778 H       1  LIG1        0.0660
     27 H           0.5986    4.3710   -1.2579 H       1  LIG1        0.0660
     28 H           1.4694    3.1864   -2.2463 H       1  LIG1        0.0660
     29 H           3.1276    1.8187   -0.5134 H       1  LIG1        0.0654
     30 H           4.0180   -0.4323   -0.5277 H       1  LIG1        0.0623
     31 H           3.6862   -2.6957   -1.1406 H       1  LIG1        0.0319
     32 H           2.1315   -3.4642   -1.2025 H       1  LIG1        0.0319
     33 H           2.0496   -3.4723    1.3325 H       1  LIG1        0.0381
     34 H           3.6405   -2.6685    1.3625 H       1  LIG1        0.0381
     35 H           4.3448   -6.0731    1.7193 H       1  LIG1        0.2951
     36 H           0.2810   -3.0708   -0.4196 H       1  LIG1        0.2922
     37 H          -1.2997   -0.1584   -2.3255 H       1  LIG1        0.2103
     38 H          -3.9749    0.4737    2.0504 H       1  LIG1        0.0258
     39 H          -4.1551   -0.2999    0.4565 H       1  LIG1        0.0258
     40 H          -5.3388    0.8750    0.9905 H       1  LIG1        0.0258
     41 H          -3.4715    3.0734    2.1263 H       1  LIG1        0.0258
     42 H          -4.8433    3.3242    1.0242 H       1  LIG1        0.0258
     43 H          -3.2574    3.9217    0.5815 H       1  LIG1        0.0258
     44 H          -3.4226    1.2903   -1.5429 H       1  LIG1        0.2102
@<TRIPOS>BOND
     1     1     2    1
     2     2     3    1
     3     4     6    1
     4     6     7   ar
     5     7     8    1
     6     8     9    1
     7     7    10   ar
     8    10    11   ar
     9    11    12   ar
    10    12    13    1
    11    13    14    1
    12    14    15    1
    13    15    16    1
    14    15    17    2
    15    12    18   ar
    16     6    18   ar
    17    18    19    1
    18     4    20    1
    19     2    21    1
    20    21    22    1
    21    21    23    1
    22    21    24    1
    23     4     5    1
    24     4     2    1
    25     1    25    1
    26     9    26    1
    27     9    27    1
    28     9    28    1
    29    10    29    1
    30    11    30    1
    31    13    31    1
    32    13    32    1
    33    14    33    1
    34    14    34    1
    35    16    35    1
    36    19    36    1
    37    20    37    1
    38    22    38    1
    39    22    39    1
    40    22    40    1
    41    23    41    1
    42    23    42    1
    43    23    43    1
    44    24    44    1
