REMARK  Name = NuBBE_1672
REMARK  6 active torsions:
REMARK  status: ('A' for Active; 'I' for Inactive)
REMARK    1  A    between atoms: O_1  and  C_2
REMARK    2  A    between atoms: O_1  and  C_3
REMARK    3  A    between atoms: C_6  and  C_20
REMARK    4  A    between atoms: C_8  and  C_11
REMARK    5  A    between atoms: C_22  and  C_24
REMARK    6  A    between atoms: C_25  and  C_26
REMARK                            x       y       z     vdW  Elec       q    Type
REMARK                         _______ _______ _______ _____ _____    ______ ____
ROOT
ATOM      1  C   LIG A   1      -1.555   1.333   0.976  0.00  0.00    +0.162 A 
ATOM      2  C   LIG A   1      -0.694   0.255   1.076  0.00  0.00    +0.166 A 
ATOM      3  C   LIG A   1       0.680   0.432   1.213  0.00  0.00    +0.005 A 
ATOM      4  C   LIG A   1       1.350  -0.892   1.348  0.00  0.00    +0.065 C 
ATOM      5  C   LIG A   1       0.180  -1.811   0.917  0.00  0.00    +0.211 C 
ATOM      6  O   LIG A   1      -1.057  -1.070   1.066  0.00  0.00    -0.480 OA
ATOM      7  C   LIG A   1       1.789  -1.151   2.786  0.00  0.00    +0.016 C 
ATOM      8  C   LIG A   1       1.246   1.700   1.223  0.00  0.00    +0.015 A 
ATOM      9  C   LIG A   1       0.408   2.811   1.085  0.00  0.00    -0.021 A 
ATOM     10  C   LIG A   1      -0.985   2.612   0.986  0.00  0.00    +0.057 A 
ENDROOT
BRANCH   5  11
ATOM     11  C   LIG A   1       0.233  -2.354  -0.508  0.00  0.00    -0.003 A 
ATOM     12  C   LIG A   1      -0.390  -3.584  -0.799  0.00  0.00    +0.056 A 
ATOM     13  C   LIG A   1      -0.355  -4.047  -2.099  0.00  0.00    +0.167 A 
ATOM     14  C   LIG A   1       0.263  -3.342  -3.104  0.00  0.00    +0.166 A 
ATOM     15  C   LIG A   1       0.874  -2.134  -2.868  0.00  0.00    +0.050 A 
ATOM     16  C   LIG A   1       0.845  -1.634  -1.563  0.00  0.00    +0.011 A 
ATOM     17  O   LIG A   1       0.181  -3.966  -4.308  0.00  0.00    -0.453 OA
ATOM     18  C   LIG A   1      -0.579  -5.138  -3.953  0.00  0.00    +0.466 C 
ATOM     19  O   LIG A   1      -0.907  -5.207  -2.548  0.00  0.00    -0.453 OA
ENDBRANCH   5  11
BRANCH   9  20
ATOM     20  C   LIG A   1       0.987   4.162   1.090  0.00  0.00    +0.003 C 
ATOM     21  C   LIG A   1       0.441   5.196   0.434  0.00  0.00    -0.030 C 
ATOM     22  C   LIG A   1       0.996   6.583   0.414  0.00  0.00    +0.035 C 
ENDBRANCH   9  20
BRANCH   1  23
ATOM     23  O   LIG A   1      -2.914   1.332   0.857  0.00  0.00    -0.491 OA
ATOM     24  C   LIG A   1      -3.560   0.068   0.857  0.00  0.00    +0.277 C 
ENDBRANCH   1  23
TORSDOF 3
