@<TRIPOS>MOLECULE
NuBBE_507
 55 58 0 0 0
SMALL
GASTEIGER

@<TRIPOS>ATOM
      1 C           3.1626   -5.3292   -2.1938 C.3     1  LIG1       -0.0274
      2 C           2.5309   -4.0191   -1.7459 C.3     1  LIG1        0.1046
      3 O           3.2055   -2.9554   -2.4402 O.3     1  LIG1       -0.4577
      4 C           2.9166   -1.6794   -2.1073 C.2     1  LIG1        0.3433
      5 C           2.2867   -1.4285   -0.7821 C.ar    1  LIG1        0.1043
      6 C           1.8793   -0.1273   -0.4311 C.ar    1  LIG1        0.1380
      7 O           2.1563    0.9350   -1.2580 O.3     1  LIG1       -0.5055
      8 C           1.2397    0.1479    0.7936 C.ar    1  LIG1        0.0409
      9 C           0.7795    1.5625    1.1276 C.3     1  LIG1        0.0085
     10 C          -0.6922    1.8699    0.8577 C.2     1  LIG1        0.0102
     11 C          -1.6050    1.6449    2.0320 C.2     1  LIG1        0.1940
     12 C          -3.1134    1.8921    1.9275 C.3     1  LIG1        0.1548
     13 O          -3.7260    0.6272    1.6181 O.3     1  LIG1       -0.3780
     14 C          -3.6737    2.3432    3.2831 C.3     1  LIG1       -0.0259
     15 C          -3.4370    2.9132    0.8333 C.3     1  LIG1        0.1191
     16 H          -4.5096    2.8683    0.6013 H       1  LIG1        0.0678
     17 O          -3.1402    4.2471    1.2591 O.3     1  LIG1       -0.3837
     18 O          -1.1509    1.1009    3.0467 O.2     1  LIG1       -0.2892
     19 C          -1.2324    2.3150   -0.3021 C.2     1  LIG1       -0.0064
     20 C          -2.6524    2.6574   -0.4116 C.2     1  LIG1        0.0265
     21 C          -3.1829    2.7512   -1.6436 C.2     1  LIG1        0.0983
     22 O          -2.4622    2.5932   -2.8123 O.2     1  LIG1       -0.4677
     23 C          -1.0726    2.5602   -2.7112 C.2     1  LIG1        0.1023
     24 C          -0.3528    2.6229   -4.0191 C.3     1  LIG1       -0.0064
     25 C          -0.4482    2.4828   -1.5217 C.2     1  LIG1       -0.0159
     26 C           1.1169   -0.9231    1.6986 C.ar    1  LIG1        0.1270
     27 O           0.5798   -0.7682    2.9469 O.3     1  LIG1       -0.5061
     28 C           1.5968   -2.2168    1.4099 C.ar    1  LIG1       -0.0044
     29 C           1.4741   -3.3124    2.4414 C.3     1  LIG1       -0.0360
     30 C           2.1427   -2.4798    0.1390 C.ar    1  LIG1       -0.0200
     31 C           2.6659   -3.8361   -0.2420 C.3     1  LIG1        0.0106
     32 O           3.1773   -0.7369   -2.8642 O.2     1  LIG1       -0.2448
     33 H           3.0966   -5.4328   -3.2819 H       1  LIG1        0.0265
     34 H           2.6694   -6.1870   -1.7277 H       1  LIG1        0.0265
     35 H           4.2285   -5.3555   -1.9403 H       1  LIG1        0.0265
     36 H           1.4775   -4.0071   -2.0542 H       1  LIG1        0.0734
     37 H           2.5898    0.6107   -2.0798 H       1  LIG1        0.2922
     38 H           1.4107    2.2964    0.6105 H       1  LIG1        0.0365
     39 H           1.0229    1.7660    2.1800 H       1  LIG1        0.0365
     40 H          -3.4326   -0.0011    2.3058 H       1  LIG1        0.2109
     41 H          -3.5509    1.5638    4.0442 H       1  LIG1        0.0263
     42 H          -4.7505    2.5339    3.2094 H       1  LIG1        0.0263
     43 H          -3.1810    3.2487    3.6528 H       1  LIG1        0.0263
     44 H          -3.9704    4.6376    1.5829 H       1  LIG1        0.2104
     45 H          -4.2131    2.9943   -1.8614 H       1  LIG1        0.1033
     46 H          -0.6113    1.7526   -4.6317 H       1  LIG1        0.0308
     47 H           0.7346    2.6281   -3.8898 H       1  LIG1        0.0308
     48 H          -0.6337    3.5275   -4.5664 H       1  LIG1        0.0308
     49 H           0.6280    2.5264   -1.4780 H       1  LIG1        0.0657
     50 H          -0.1448   -0.1099    2.9345 H       1  LIG1        0.2922
     51 H           1.3422   -2.9238    3.4559 H       1  LIG1        0.0279
     52 H           2.3843   -3.9195    2.4728 H       1  LIG1        0.0279
     53 H           0.6160   -3.9488    2.2043 H       1  LIG1        0.0279
     54 H           2.1118   -4.6356    0.2609 H       1  LIG1        0.0349
     55 H           3.7170   -3.8878    0.0678 H       1  LIG1        0.0349
@<TRIPOS>BOND
     1     1     2    1
     2     2     3    1
     3     3     4    1
     4     4     5    1
     5     5     6   ar
     6     6     7    1
     7     6     8   ar
     8     8     9    1
     9     9    10    1
    10    10    11    1
    11    11    12    1
    12    12    13    1
    13    12    14    1
    14    12    15    1
    15    15    16    1
    16    15    17    1
    17    11    18    2
    18    10    19    2
    19    19    20    1
    20    15    20    1
    21    20    21    2
    22    21    22    1
    23    22    23    1
    24    23    24    1
    25    23    25    2
    26    19    25    1
    27     8    26   ar
    28    26    27    1
    29    26    28   ar
    30    28    29    1
    31     5    30   ar
    32    28    30   ar
    33    30    31    1
    34     2    31    1
    35     4    32    2
    36     1    33    1
    37     1    34    1
    38     1    35    1
    39     2    36    1
    40     7    37    1
    41     9    38    1
    42     9    39    1
    43    13    40    1
    44    14    41    1
    45    14    42    1
    46    14    43    1
    47    17    44    1
    48    21    45    1
    49    24    46    1
    50    24    47    1
    51    24    48    1
    52    25    49    1
    53    27    50    1
    54    29    51    1
    55    29    52    1
    56    29    53    1
    57    31    54    1
    58    31    55    1
