@<TRIPOS>MOLECULE
NuBBE_2244
 55 58 0 0 0
SMALL
GASTEIGER

@<TRIPOS>ATOM
      1 C          -4.1669    1.4775    0.8400 C.3     1  LIG1       -0.0534
      2 C          -3.0197    1.3473   -0.1934 C.3     1  LIG1        0.0176
      3 C          -3.5407    0.4599   -1.3501 C.3     1  LIG1       -0.0534
      4 C          -2.6449    2.7150   -0.8084 C.2     1  LIG1       -0.0681
      5 C          -1.3441    2.7103   -1.5706 C.3     1  LIG1       -0.0287
      6 C          -0.1525    2.4055   -0.6674 C.3     1  LIG1       -0.0167
      7 C          -0.3459    1.1727    0.1971 C.3     1  LIG1        0.1082
      8 O          -1.1147    1.5176    1.3850 O.3     1  LIG1       -0.3597
      9 C          -1.7963    0.6582    0.4809 C.3     1  LIG1        0.1085
     10 C          -2.0078   -0.7300    1.0458 C.3     1  LIG1       -0.0199
     11 C          -0.7503   -1.3793    1.6124 C.3     1  LIG1       -0.0468
     12 C           0.4256   -1.1933    0.6490 C.3     1  LIG1       -0.0297
     13 C           0.9065    0.2963    0.5759 C.3     1  LIG1        0.0285
     14 C           1.4845    0.8133    1.9244 C.3     1  LIG1       -0.0542
     15 C           2.0513    0.3367   -0.5000 C.3     1  LIG1        0.0643
     16 H           1.6187    0.1783   -1.4953 H       1  LIG1        0.0600
     17 O           2.6964    1.6176   -0.5164 O.3     1  LIG1       -0.3911
     18 C           3.1759   -0.6900   -0.2586 C.3     1  LIG1       -0.0174
     19 C           2.7158   -2.1452   -0.0437 C.3     1  LIG1       -0.0117
     20 C           3.9005   -2.9374    0.5558 C.3     1  LIG1       -0.0560
     21 C           2.2530   -2.7284   -1.3819 C.2     1  LIG1       -0.0851
     22 C           2.7044   -3.8300   -1.9981 C.2     1  LIG1       -0.1021
     23 C           1.5566   -2.1802    0.9794 C.3     1  LIG1       -0.0406
     24 C          -3.3462    3.8576   -0.6927 C.2     1  LIG1       -0.0988
     25 H          -3.8674    2.1000    1.6909 H       1  LIG1        0.0239
     26 H          -4.4673    0.5039    1.2409 H       1  LIG1        0.0239
     27 H          -5.0701    1.9103    0.3948 H       1  LIG1        0.0239
     28 H          -2.7308    0.1459   -2.0181 H       1  LIG1        0.0239
     29 H          -4.2923    0.9851   -1.9517 H       1  LIG1        0.0239
     30 H          -4.0161   -0.4537   -0.9759 H       1  LIG1        0.0239
     31 H          -1.1699    3.6731   -2.0675 H       1  LIG1        0.0311
     32 H          -1.3967    1.9680   -2.3759 H       1  LIG1        0.0311
     33 H           0.0635    3.2671   -0.0230 H       1  LIG1        0.0297
     34 H           0.6931    2.3035   -1.3468 H       1  LIG1        0.0297
     35 H          -2.3902   -1.3838    0.2544 H       1  LIG1        0.0294
     36 H          -2.7638   -0.7116    1.8375 H       1  LIG1        0.0294
     37 H          -0.9573   -2.4461    1.7639 H       1  LIG1        0.0269
     38 H          -0.5238   -0.9738    2.6034 H       1  LIG1        0.0269
     39 H           0.0412   -1.4629   -0.3451 H       1  LIG1        0.0308
     40 H           0.7716    0.7308    2.7497 H       1  LIG1        0.0237
     41 H           1.7483    1.8750    1.8521 H       1  LIG1        0.0237
     42 H           2.3829    0.2715    2.2314 H       1  LIG1        0.0237
     43 H           3.3665    1.6037   -1.2215 H       1  LIG1        0.2098
     44 H           3.7708   -0.3575    0.6033 H       1  LIG1        0.0298
     45 H           3.8826   -0.6409   -1.1000 H       1  LIG1        0.0298
     46 H           4.2306   -2.4973    1.5044 H       1  LIG1        0.0238
     47 H           4.7655   -2.9388   -0.1178 H       1  LIG1        0.0238
     48 H           3.6255   -3.9780    0.7640 H       1  LIG1        0.0238
     49 H           1.4630   -2.1855   -1.9001 H       1  LIG1        0.0572
     50 H           3.4862   -4.4597   -1.5877 H       1  LIG1        0.0532
     51 H           2.2856   -4.1365   -2.9529 H       1  LIG1        0.0532
     52 H           1.9361   -1.9701    1.9877 H       1  LIG1        0.0276
     53 H           1.1481   -3.1995    1.0242 H       1  LIG1        0.0276
     54 H          -4.2776    3.9259   -0.1428 H       1  LIG1        0.0535
     55 H          -2.9969    4.7818   -1.1445 H       1  LIG1        0.0535
@<TRIPOS>BOND
     1     2     4    1
     2     4     5    1
     3     5     6    1
     4     6     7    1
     5     7     8    1
     6     7     9    1
     7     8     9    1
     8     2     9    1
     9     9    10    1
    10    10    11    1
    11    11    12    1
    12    12    13    1
    13     7    13    1
    14    13    15    1
    15    15    18    1
    16    18    19    1
    17    21    22    2
    18    19    23    1
    19    12    23    1
    20     1     2    1
    21     2     3    1
    22     4    24    2
    23    13    14    1
    24    19    20    1
    25    19    21    1
    26    15    17    1
    27    15    16    1
    28     1    25    1
    29     1    26    1
    30     1    27    1
    31     3    28    1
    32     3    29    1
    33     3    30    1
    34     5    31    1
    35     5    32    1
    36     6    33    1
    37     6    34    1
    38    10    35    1
    39    10    36    1
    40    11    37    1
    41    11    38    1
    42    12    39    1
    43    14    40    1
    44    14    41    1
    45    14    42    1
    46    17    43    1
    47    18    44    1
    48    18    45    1
    49    20    46    1
    50    20    47    1
    51    20    48    1
    52    21    49    1
    53    22    50    1
    54    22    51    1
    55    23    52    1
    56    23    53    1
    57    24    54    1
    58    24    55    1
