REMARK  Name = NuBBE_107
REMARK  14 active torsions:
REMARK  status: ('A' for Active; 'I' for Inactive)
REMARK    1  A    between atoms: C_2  and  C_3
REMARK    2  A    between atoms: C_4  and  C_32
REMARK    3  A    between atoms: C_6  and  C_7
REMARK    4  A    between atoms: C_7  and  O_8
REMARK    5  A    between atoms: O_8  and  C_9
REMARK    6  A    between atoms: C_13  and  O_15
REMARK    7  A    between atoms: O_15  and  C_16
REMARK    8  A    between atoms: C_19  and  C_27
REMARK    9  A    between atoms: C_21  and  O_26
REMARK   10  A    between atoms: C_23  and  O_25
REMARK   11  A    between atoms: C_27  and  O_28
REMARK   12  A    between atoms: C_29  and  O_31
REMARK   13  A    between atoms: C_32  and  C_33
REMARK   14  A    between atoms: C_33  and  O_34
REMARK                            x       y       z     vdW  Elec       q    Type
REMARK                         _______ _______ _______ _____ _____    ______ ____
ROOT
ATOM      1  C   LIG A   1      -1.938   0.336   0.408  0.00  0.00    +0.088 C 
ATOM      2  C   LIG A   1      -1.498   1.768   0.891  0.00  0.00    +0.052 C 
ATOM      3  C   LIG A   1      -1.056   2.579  -0.325  0.00  0.00    +0.075 C 
ATOM      4  C   LIG A   1      -0.703   1.957  -1.463  0.00  0.00    +0.201 C 
ATOM      5  O   LIG A   1      -0.665   0.608  -1.685  0.00  0.00    -0.470 OA
ATOM      6  C   LIG A   1      -0.819  -0.214  -0.520  0.00  0.00    +0.316 C 
ENDROOT
BRANCH   1   8
ATOM      7  C   LIG A   1      -4.083  -0.804  -0.338  0.00  0.00    +0.004 C 
ATOM      8  C   LIG A   1      -3.280   0.271  -0.326  0.00  0.00    -0.025 C 
ENDBRANCH   1   8
BRANCH   3   9
ATOM      9  C   LIG A   1      -0.901   4.063  -0.293  0.00  0.00    +0.338 C 
ATOM     10  O   LIG A   1      -0.842   4.734   0.737  0.00  0.00    -0.245 OA
BRANCH   9  11
ATOM     11  O   LIG A   1      -0.832   4.555  -1.559  0.00  0.00    -0.465 OA
ATOM     12  C   LIG A   1      -0.623   5.960  -1.692  0.00  0.00    +0.280 C 
ENDBRANCH   9  11
ENDBRANCH   3   9
BRANCH   6  13
ATOM     13  O   LIG A   1       0.412  -0.338   0.217  0.00  0.00    -0.309 OA
BRANCH  13  14
ATOM     14  C   LIG A   1       1.451  -0.964  -0.550  0.00  0.00    +0.286 C 
ATOM     15  O   LIG A   1       1.038  -2.315  -0.845  0.00  0.00    -0.340 OA
ATOM     16  C   LIG A   1       2.153  -3.189  -1.088  0.00  0.00    +0.178 C 
ATOM     17  C   LIG A   1       2.902  -3.457   0.233  0.00  0.00    +0.177 C 
ATOM     18  C   LIG A   1       2.872  -2.208   1.135  0.00  0.00    +0.179 C 
ATOM     19  C   LIG A   1       2.771  -0.927   0.286  0.00  0.00    +0.201 C 
BRANCH  18  20
ATOM     20  O   LIG A   1       1.785  -2.301   2.064  0.00  0.00    -0.386 OA
ATOM     21  H   LIG A   1       0.951  -2.250   1.556  0.00  0.00    +0.210 HD
ENDBRANCH  18  20
BRANCH  17  22
ATOM     22  O   LIG A   1       4.251  -3.837  -0.056  0.00  0.00    -0.387 OA
ATOM     23  H   LIG A   1       4.652  -4.144   0.777  0.00  0.00    +0.210 HD
ENDBRANCH  17  22
BRANCH  19  24
ATOM     24  O   LIG A   1       3.900  -0.822  -0.600  0.00  0.00    -0.384 OA
ATOM     25  H   LIG A   1       4.716  -0.917  -0.078  0.00  0.00    +0.210 HD
ENDBRANCH  19  24
BRANCH  16  26
ATOM     26  C   LIG A   1       1.631  -4.505  -1.677  0.00  0.00    +0.190 C 
BRANCH  26  27
ATOM     27  O   LIG A   1       0.967  -4.277  -2.920  0.00  0.00    -0.392 OA
ATOM     28  H   LIG A   1       0.383  -3.509  -2.786  0.00  0.00    +0.209 HD
ENDBRANCH  26  27
ENDBRANCH  16  26
ENDBRANCH  13  14
ENDBRANCH   6  13
BRANCH   2  29
ATOM     29  C   LIG A   1      -2.514   2.421   1.849  0.00  0.00    +0.129 C 
BRANCH  29  30
ATOM     30  C   LIG A   1      -2.697   1.603   3.101  0.00  0.00    +0.305 C 
ATOM     31  O   LIG A   1      -3.565   0.760   3.299  0.00  0.00    -0.251 OA
BRANCH  30  32
ATOM     32  O   LIG A   1      -1.759   1.850   4.038  0.00  0.00    -0.481 OA
ATOM     33  H   LIG A   1      -1.991   1.265   4.790  0.00  0.00    +0.295 HD
ENDBRANCH  30  32
ENDBRANCH  29  30
ENDBRANCH   2  29
TORSDOF 13
