@<TRIPOS>MOLECULE
NuBBE_829
 52 56 0 0 0
SMALL
GASTEIGER

@<TRIPOS>ATOM
      1 O           1.0070    3.1774   -1.6617 O.2     1  LIG1       -0.2503
      2 C           1.1401    2.5813   -0.6017 C.2     1  LIG1        0.3154
      3 C           1.7480    1.2246   -0.5058 C.3     1  LIG1        0.1093
      4 H           2.8069    1.3933   -0.2471 H       1  LIG1        0.0461
      5 C           1.7072    0.3019   -1.6872 C.3     1  LIG1        0.1173
      6 O           2.1879   -0.9185   -1.0867 O.3     1  LIG1       -0.4601
      7 C           1.8580   -0.9029    0.2526 C.2     1  LIG1        0.3149
      8 O           2.1458   -1.7682    1.0542 O.2     1  LIG1       -0.2502
      9 H           2.4018    0.6145   -2.4738 H       1  LIG1        0.0742
     10 C           0.3072    0.0755   -2.2591 C.3     1  LIG1       -0.0107
     11 C          -0.7502   -0.4234   -1.2360 C.3     1  LIG1       -0.0183
     12 H          -1.6734    0.1161   -1.5096 H       1  LIG1        0.0315
     13 C          -1.1636   -1.9450   -1.4124 C.3     1  LIG1        0.0682
     14 C           0.0039   -2.9307   -1.6003 C.3     1  LIG1       -0.0491
     15 C          -2.0289   -2.0677   -2.6950 C.2     1  LIG1        0.3131
     16 O          -2.9073   -3.1068   -2.6152 O.3     1  LIG1       -0.4675
     17 C          -3.7629   -3.2584   -3.7493 C.3     1  LIG1        0.0817
     18 O          -1.9164   -1.3460   -3.6781 O.2     1  LIG1       -0.2502
     19 C          -2.0143   -2.4134   -0.2087 C.3     1  LIG1       -0.0372
     20 C          -1.3823   -2.0913    1.1328 C.3     1  LIG1       -0.0518
     21 C          -1.2628   -0.5923    1.3060 C.3     1  LIG1       -0.0489
     22 C          -0.4517    0.1140    0.2078 C.3     1  LIG1       -0.0203
     23 H          -0.8823    1.1268    0.2010 H       1  LIG1        0.0315
     24 C           1.0660    0.3481    0.5276 C.3     1  LIG1        0.0907
     25 C           1.3759    1.0258    1.8535 C.3     1  LIG1        0.0056
     26 C           0.8131    2.4589    1.8668 C.3     1  LIG1        0.1320
     27 H          -0.2548    2.4003    2.1137 H       1  LIG1        0.0786
     28 C           1.4743    3.2898    2.9202 C.ar    1  LIG1        0.0304
     29 C           1.0727    3.4408    4.2328 C.ar    1  LIG1        0.0983
     30 O           1.9147    4.2649    4.9046 O.2     1  LIG1       -0.4706
     31 C           2.8675    4.6602    4.0239 C.ar    1  LIG1        0.0921
     32 C           2.6461    4.0918    2.7922 C.ar    1  LIG1       -0.0172
     33 O           0.8495    3.1573    0.5879 O.3     1  LIG1       -0.4561
     34 H           0.3902   -0.6182   -3.1001 H       1  LIG1        0.0304
     35 H          -0.0530    1.0167   -2.6928 H       1  LIG1        0.0304
     36 H          -0.3691   -3.9420   -1.8042 H       1  LIG1        0.0240
     37 H           0.6278   -3.0112   -0.7097 H       1  LIG1        0.0240
     38 H           0.6432   -2.6711   -2.4485 H       1  LIG1        0.0240
     39 H          -4.1867   -2.2991   -4.0636 H       1  LIG1        0.0661
     40 H          -4.5889   -3.9154   -3.4625 H       1  LIG1        0.0661
     41 H          -3.2100   -3.7257   -4.5688 H       1  LIG1        0.0661
     42 H          -2.1835   -3.4974   -0.2587 H       1  LIG1        0.0276
     43 H          -3.0109   -1.9523   -0.2558 H       1  LIG1        0.0276
     44 H          -0.4085   -2.5762    1.2399 H       1  LIG1        0.0266
     45 H          -2.0189   -2.4954    1.9290 H       1  LIG1        0.0266
     46 H          -0.8839   -0.3715    2.3067 H       1  LIG1        0.0268
     47 H          -2.2800   -0.1748    1.2895 H       1  LIG1        0.0268
     48 H           2.4665    1.0523    1.9994 H       1  LIG1        0.0315
     49 H           1.0088    0.4562    2.7142 H       1  LIG1        0.0315
     50 H           0.2493    3.0479    4.8138 H       1  LIG1        0.1033
     51 H           3.6161    5.3349    4.4154 H       1  LIG1        0.1029
     52 H           3.2489    4.2438    1.9071 H       1  LIG1        0.0653
@<TRIPOS>BOND
     1     2     3    1
     2     3     5    1
     3     5     6    1
     4     6     7    1
     5     5    10    1
     6    10    11    1
     7    11    13    1
     8    15    16    1
     9    16    17    1
    10    15    18    2
    11    13    19    1
    12    19    20    1
    13    20    21    1
    14    21    22    1
    15    11    22    1
    16    22    24    1
    17     7    24    1
    18     3    24    1
    19    24    25    1
    20    25    26    1
    21    28    29   ar
    22    29    30   ar
    23    30    31   ar
    24    31    32   ar
    25    28    32   ar
    26    26    33    1
    27     2    33    1
    28     1     2    2
    29     3     4    1
    30     5     9    1
    31     7     8    2
    32    11    12    1
    33    13    14    1
    34    13    15    1
    35    22    23    1
    36    26    28    1
    37    26    27    1
    38    10    34    1
    39    10    35    1
    40    14    36    1
    41    14    37    1
    42    14    38    1
    43    17    39    1
    44    17    40    1
    45    17    41    1
    46    19    42    1
    47    19    43    1
    48    20    44    1
    49    20    45    1
    50    21    46    1
    51    21    47    1
    52    25    48    1
    53    25    49    1
    54    29    50    1
    55    31    51    1
    56    32    52    1
