REMARK  Name = NuBBE_199
REMARK  10 active torsions:
REMARK  status: ('A' for Active; 'I' for Inactive)
REMARK    1  A    between atoms: O_1  and  C_2
REMARK    2  A    between atoms: C_4  and  O_5
REMARK    3  A    between atoms: C_9  and  C_10
REMARK    4  A    between atoms: C_12  and  C_13
REMARK    5  A    between atoms: C_14  and  O_15
REMARK    6  A    between atoms: C_17  and  O_18
REMARK    7  A    between atoms: C_22  and  C_23
REMARK    8  A    between atoms: C_26  and  O_27
REMARK    9  A    between atoms: O_27  and  C_28
REMARK   10  A    between atoms: C_34  and  O_35
REMARK                            x       y       z     vdW  Elec       q    Type
REMARK                         _______ _______ _______ _____ _____    ______ ____
ROOT
ATOM      1  C   LIG A   1       2.561  -0.805   0.233  0.00  0.00    +0.018 A 
ATOM      2  C   LIG A   1       2.087   0.535   0.194  0.00  0.00    +0.024 A 
ATOM      3  C   LIG A   1       2.711   1.625   0.871  0.00  0.00    +0.031 A 
ATOM      4  C   LIG A   1       3.893   1.269   1.567  0.00  0.00    +0.125 A 
ATOM      5  C   LIG A   1       4.400  -0.028   1.598  0.00  0.00    +0.046 A 
ATOM      6  C   LIG A   1       3.734  -1.054   0.953  0.00  0.00    +0.015 A 
ENDROOT
BRANCH   1  13
ATOM      7  C   LIG A   1      -1.783  -2.992  -3.378  0.00  0.00    +0.124 A 
ATOM      8  C   LIG A   1      -1.412  -4.331  -3.442  0.00  0.00    +0.091 A 
ATOM      9  C   LIG A   1      -0.297  -4.764  -2.718  0.00  0.00    +0.135 A 
ATOM     10  C   LIG A   1       0.435  -3.866  -1.937  0.00  0.00    +0.105 A 
ATOM     11  C   LIG A   1       1.614  -4.266  -1.152  0.00  0.00    +0.197 A 
ATOM     12  C   LIG A   1       2.312  -3.182  -0.436  0.00  0.00    +0.098 A 
ATOM     13  C   LIG A   1       1.861  -1.921  -0.471  0.00  0.00    +0.139 A 
ATOM     14  O   LIG A   1       0.713  -1.556  -1.160  0.00  0.00    -0.454 OA
ATOM     15  O   LIG A   1       2.040  -5.399  -1.061  0.00  0.00    -0.287 OA
ATOM     16  C   LIG A   1       0.046  -2.518  -1.887  0.00  0.00    +0.146 A 
ATOM     17  C   LIG A   1      -1.065  -2.082  -2.609  0.00  0.00    +0.092 A 
BRANCH   7  18
ATOM     18  O   LIG A   1      -2.856  -2.521  -4.075  0.00  0.00    -0.506 OA
ATOM     19  H   LIG A   1      -3.259  -3.247  -4.577  0.00  0.00    +0.292 HD
ENDBRANCH   7  18
BRANCH   9  20
ATOM     20  O   LIG A   1       0.072  -6.076  -2.798  0.00  0.00    -0.506 OA
ATOM     21  H   LIG A   1      -0.539  -6.577  -3.359  0.00  0.00    +0.292 HD
ENDBRANCH   9  20
ENDBRANCH   1  13
BRANCH   3  22
ATOM     22  C   LIG A   1       2.111   3.034   0.831  0.00  0.00    +0.070 A 
ATOM     23  C   LIG A   1       2.911   4.209   0.826  0.00  0.00    +0.132 A 
ATOM     24  C   LIG A   1       2.384   5.507   0.781  0.00  0.00    +0.092 A 
ATOM     25  C   LIG A   1       1.015   5.697   0.739  0.00  0.00    +0.135 A 
ATOM     26  C   LIG A   1       0.162   4.593   0.752  0.00  0.00    +0.106 A 
ATOM     27  C   LIG A   1       0.698   3.283   0.800  0.00  0.00    +0.154 A 
ATOM     28  O   LIG A   1      -0.154   2.194   0.849  0.00  0.00    -0.454 OA
ATOM     29  C   LIG A   1      -1.529   2.368   0.774  0.00  0.00    +0.139 A 
ATOM     30  C   LIG A   1      -2.126   3.561   0.726  0.00  0.00    +0.098 A 
ATOM     31  C   LIG A   1      -1.310   4.778   0.720  0.00  0.00    +0.197 A 
ATOM     32  O   LIG A   1      -1.883   5.858   0.685  0.00  0.00    -0.287 OA
BRANCH  29  33
ATOM     33  C   LIG A   1      -2.313   1.112   0.808  0.00  0.00    +0.018 A 
ATOM     34  C   LIG A   1      -1.776  -0.007   1.456  0.00  0.00    +0.015 A 
ATOM     35  C   LIG A   1      -2.473  -1.216   1.511  0.00  0.00    +0.046 A 
ATOM     36  C   LIG A   1      -3.726  -1.338   0.916  0.00  0.00    +0.120 A 
ATOM     37  C   LIG A   1      -4.277  -0.234   0.266  0.00  0.00    +0.046 A 
ATOM     38  C   LIG A   1      -3.576   0.978   0.206  0.00  0.00    +0.015 A 
BRANCH  36  39
ATOM     39  O   LIG A   1      -4.490  -2.474   0.904  0.00  0.00    -0.495 OA
ATOM     40  C   LIG A   1      -3.906  -3.618   1.519  0.00  0.00    +0.277 C 
ENDBRANCH  36  39
ENDBRANCH  29  33
BRANCH  23  41
ATOM     41  O   LIG A   1       4.285   4.137   0.875  0.00  0.00    -0.506 OA
ATOM     42  H   LIG A   1       4.644   5.011   1.125  0.00  0.00    +0.292 HD
ENDBRANCH  23  41
BRANCH  25  43
ATOM     43  O   LIG A   1       0.534   6.972   0.690  0.00  0.00    -0.506 OA
ATOM     44  H   LIG A   1       1.251   7.621   0.623  0.00  0.00    +0.292 HD
ENDBRANCH  25  43
ENDBRANCH   3  22
BRANCH   4  45
ATOM     45  O   LIG A   1       4.666   2.133   2.292  0.00  0.00    -0.506 OA
ATOM     46  H   LIG A   1       4.626   2.975   1.805  0.00  0.00    +0.292 HD
ENDBRANCH   4  45
TORSDOF 9
