REMARK  Name = NuBBE_1137
REMARK  6 active torsions:
REMARK  status: ('A' for Active; 'I' for Inactive)
REMARK    1  A    between atoms: C_1  and  C_2
REMARK    2  A    between atoms: C_2  and  C_3
REMARK    3  A    between atoms: C_4  and  C_5
REMARK    4  A    between atoms: C_25  and  C_27
REMARK    5  A    between atoms: C_28  and  C_29
REMARK    6  A    between atoms: C_28  and  C_30
REMARK                            x       y       z     vdW  Elec       q    Type
REMARK                         _______ _______ _______ _____ _____    ______ ____
ROOT
ATOM      1  C   LIG A   1      -1.797  -0.303  -0.731  0.00  0.00    +0.020 C 
ATOM      2  C   LIG A   1      -0.292  -0.250  -0.423  0.00  0.00    +0.012 C 
ATOM      3  C   LIG A   1       0.410  -1.412  -1.109  0.00  0.00    -0.032 A 
ATOM      4  C   LIG A   1       0.309  -2.765  -0.784  0.00  0.00    +0.031 A 
ATOM      5  C   LIG A   1       1.022  -3.660  -1.594  0.00  0.00    +0.047 A 
ATOM      6  C   LIG A   1       1.807  -3.253  -2.677  0.00  0.00    -0.000 A 
ATOM      7  C   LIG A   1       2.369  -4.428  -3.250  0.00  0.00    +0.027 A 
ATOM      8  C   LIG A   1       1.916  -5.508  -2.528  0.00  0.00    +0.083 A 
ATOM      9  N   LIG A   1       1.105  -5.034  -1.531  0.00  0.00    -0.361 N 
ATOM     10  H   LIG A   1       0.626  -5.604  -0.849  0.00  0.00    +0.165 HD
ATOM     11  C   LIG A   1       1.885  -1.882  -2.995  0.00  0.00    +0.014 A 
ATOM     12  C   LIG A   1       1.166  -0.985  -2.204  0.00  0.00    -0.036 A 
ATOM     13  C   LIG A   1       1.037   0.497  -2.435  0.00  0.00    +0.043 C 
ATOM     14  C   LIG A   1       0.397   0.967  -1.109  0.00  0.00    +0.027 C 
ENDROOT
BRANCH  13  15
ATOM     15  C   LIG A   1       0.183   0.811  -3.640  0.00  0.00    -0.020 C 
ATOM     16  C   LIG A   1       0.298   1.861  -4.478  0.00  0.00    -0.079 C 
ATOM     17  C   LIG A   1       1.322   2.956  -4.356  0.00  0.00    +0.038 C 
ATOM     18  C   LIG A   1      -0.652   2.022  -5.636  0.00  0.00    +0.038 C 
ENDBRANCH  13  15
BRANCH   2  19
ATOM     19  C   LIG A   1      -0.045  -0.235   1.081  0.00  0.00    -0.015 C 
ATOM     20  C   LIG A   1      -0.489   0.706   1.931  0.00  0.00    +0.006 C 
BRANCH  20  21
ATOM     21  C   LIG A   1      -0.240   0.710   3.385  0.00  0.00    -0.004 A 
ATOM     22  C   LIG A   1      -1.152   1.286   4.272  0.00  0.00    +0.038 A 
ATOM     23  N   LIG A   1      -2.374   1.944   3.936  0.00  0.00    -0.343 N 
ATOM     24  H   LIG A   1      -2.880   1.412   3.232  0.00  0.00    +0.146 HD
ATOM     25  C   LIG A   1      -3.056   2.053   5.236  0.00  0.00    +0.106 C 
ATOM     26  C   LIG A   1      -1.979   2.091   6.332  0.00  0.00    +0.055 C 
ATOM     27  C   LIG A   1      -0.876   1.364   5.643  0.00  0.00    -0.025 A 
ATOM     28  C   LIG A   1       0.291   0.856   6.184  0.00  0.00    +0.005 A 
ATOM     29  C   LIG A   1       1.204   0.258   5.319  0.00  0.00    +0.001 A 
ATOM     30  C   LIG A   1       0.947   0.195   3.937  0.00  0.00    +0.010 A 
ENDBRANCH  20  21
ENDBRANCH   2  19
TORSDOF 3
