@<TRIPOS>MOLECULE
NuBBE_871
 33 34 0 0 0
SMALL
GASTEIGER

@<TRIPOS>ATOM
      1 O          -2.3718   -1.0641   -0.8664 O.2     2  LEU2       -0.2735
      2 C          -1.5199   -0.7056   -0.0567 C.2     2  LEU2        0.2365
      3 N          -0.7971   -1.5923    0.7126 N.am    1  PRO1       -0.2884
      4 CA         -0.2010   -1.1878    1.9696 C.3     1  PRO1        0.1023
      5 HA         -1.0164   -1.1033    2.7013 H       1  PRO1        0.0597
      6 CB          0.6901   -2.3689    2.3100 C.3     1  PRO1       -0.0243
      7 CG         -0.1642   -3.5549    1.8523 C.3     1  PRO1       -0.0350
      8 CD         -0.9233   -3.0321    0.6318 C.3     1  PRO1        0.0156
      9 CA         -0.9212    0.7285   -0.0622 C.3     2  LEU2        0.0999
     10 HA         -1.7582    1.4248   -0.1769 H       2  LEU2        0.0595
     11 N          -0.2428    1.1037    1.1825 N.am    2  LEU2       -0.3025
     12 C           0.4805    0.1753    1.9048 C.2     1  PRO1        0.2342
     13 O           1.4078    0.5213    2.6279 O.2     1  PRO1       -0.2738
     14 CB          0.0408    0.8067   -1.2659 C.3     2  LEU2       -0.0236
     15 CG          0.6976    2.1789   -1.5155 C.3     2  LEU2       -0.0446
     16 CD1         1.6239    2.0886   -2.7323 C.3     2  LEU2       -0.0626
     17 CD2        -0.3279    3.2917   -1.7291 C.3     2  LEU2       -0.0626
     18 HB1         0.9429   -2.4184    3.3730 H       1  PRO1        0.0288
     19 HB2         1.6254   -2.3334    1.7377 H       1  PRO1        0.0288
     20 HG1        -0.8769   -3.8210    2.6423 H       1  PRO1        0.0281
     21 HG2         0.4316   -4.4437    1.6258 H       1  PRO1        0.0281
     22 HD1        -1.9774   -3.3268    0.6414 H       1  PRO1        0.0465
     23 HD2        -0.4694   -3.3616   -0.3080 H       1  PRO1        0.0465
     24 H           0.1474    2.0365    1.2336 H       2  LEU2        0.1495
     25 HB1         0.8373    0.0606   -1.1360 H       2  LEU2        0.0290
     26 HB2        -0.5039    0.5058   -2.1716 H       2  LEU2        0.0290
     27 HG          1.3184    2.4433   -0.6511 H       2  LEU2        0.0296
     28 HD11        1.0636    1.8452   -3.6417 H       2  LEU2        0.0232
     29 HD12        2.3849    1.3147   -2.5855 H       2  LEU2        0.0232
     30 HD13        2.1428    3.0385   -2.8984 H       2  LEU2        0.0232
     31 HD21       -1.0185    3.0450   -2.5425 H       2  LEU2        0.0232
     32 HD22        0.1697    4.2340   -1.9830 H       2  LEU2        0.0232
     33 HD23       -0.9152    3.4709   -0.8236 H       2  LEU2        0.0232
@<TRIPOS>BOND
     1     2     3   am
     2     3     4    1
     3     4     6    1
     4     6     7    1
     5     7     8    1
     6     3     8    1
     7     2     9    1
     8     9    11    1
     9    11    12   am
    10     4    12    1
    11    14    15    1
    12    15    16    1
    13    15    17    1
    14     1     2    2
    15     4     5    1
    16     9    10    1
    17     9    14    1
    18    12    13    2
    19     6    18    1
    20     6    19    1
    21     7    20    1
    22     7    21    1
    23     8    22    1
    24     8    23    1
    25    11    24    1
    26    14    25    1
    27    14    26    1
    28    15    27    1
    29    16    28    1
    30    16    29    1
    31    16    30    1
    32    17    31    1
    33    17    32    1
    34    17    33    1
