@<TRIPOS>MOLECULE
NuBBE_1741
 29 29 0 0 0
SMALL
GASTEIGER

@<TRIPOS>ATOM
      1 C          -1.5576    0.1231    0.8046 C.3     1  LIG1       -0.0175
      2 C          -1.8844   -0.0378   -0.6815 C.3     1  LIG1       -0.0600
      3 C          -2.3891   -0.9086    1.5918 C.3     1  LIG1       -0.0600
      4 C          -0.0368    0.0815    1.1828 C.3     1  LIG1        0.0721
      5 O           0.0284    0.1040    2.6285 O.3     1  LIG1       -0.3880
      6 C           0.7516    1.3284    0.7261 C.3     1  LIG1       -0.0198
      7 C           1.1668    1.3546   -0.7445 C.3     1  LIG1       -0.0294
      8 C           1.5355    0.0090   -1.3093 C.2     1  LIG1       -0.0763
      9 C           1.3351   -1.1319   -0.6291 C.2     1  LIG1       -0.0823
     10 C           0.7043   -1.1995    0.7323 C.3     1  LIG1       -0.0053
     11 C           2.1476    0.0189   -2.6807 C.3     1  LIG1       -0.0438
     12 H          -1.9412    1.1047    1.1169 H       1  LIG1        0.0323
     13 H          -1.5179   -0.9881   -1.0803 H       1  LIG1        0.0233
     14 H          -1.4783    0.7779   -1.2797 H       1  LIG1        0.0233
     15 H          -2.9694   -0.0194   -0.8384 H       1  LIG1        0.0233
     16 H          -2.1177   -1.9358    1.3307 H       1  LIG1        0.0233
     17 H          -3.4564   -0.7857    1.3745 H       1  LIG1        0.0233
     18 H          -2.2702   -0.7863    2.6727 H       1  LIG1        0.0233
     19 H          -0.3914    0.9277    2.9306 H       1  LIG1        0.2102
     20 H           1.6668    1.3957    1.3335 H       1  LIG1        0.0296
     21 H           0.1954    2.2429    0.9693 H       1  LIG1        0.0296
     22 H           2.0248    2.0324   -0.8407 H       1  LIG1        0.0311
     23 H           0.3700    1.7961   -1.3514 H       1  LIG1        0.0311
     24 H           1.6379   -2.0839   -1.0600 H       1  LIG1        0.0572
     25 H           1.5004   -1.4376    1.4508 H       1  LIG1        0.0335
     26 H           0.0281   -2.0604    0.7630 H       1  LIG1        0.0335
     27 H           3.0773    0.5969   -2.6780 H       1  LIG1        0.0274
     28 H           1.4574    0.4718   -3.3999 H       1  LIG1        0.0274
     29 H           2.3829   -0.9904   -3.0345 H       1  LIG1        0.0274
@<TRIPOS>BOND
     1     1     2    1
     2     1     3    1
     3     1     4    1
     4     4     5    1
     5     4     6    1
     6     6     7    1
     7     7     8    1
     8     8     9    2
     9     9    10    1
    10     4    10    1
    11     8    11    1
    12     1    12    1
    13     2    13    1
    14     2    14    1
    15     2    15    1
    16     3    16    1
    17     3    17    1
    18     3    18    1
    19     5    19    1
    20     6    20    1
    21     6    21    1
    22     7    22    1
    23     7    23    1
    24     9    24    1
    25    10    25    1
    26    10    26    1
    27    11    27    1
    28    11    28    1
    29    11    29    1
