@<TRIPOS>MOLECULE
NuBBE_1854
 32 34 0 0 0
SMALL
GASTEIGER

@<TRIPOS>ATOM
      1 C          -1.9145   -3.1486    3.3983 C.3     1  LIG1        0.0788
      2 O          -1.0503   -3.7893    2.4687 O.3     1  LIG1       -0.4951
      3 C          -0.5002   -3.0007    1.4923 C.ar    1  LIG1        0.1208
      4 C           0.3082   -3.6868    0.5838 C.ar    1  LIG1       -0.0180
      5 C           0.9439   -3.0321   -0.4768 C.ar    1  LIG1       -0.0343
      6 C           0.7423   -1.6538   -0.5951 C.ar    1  LIG1        0.0472
      7 N           1.2286   -0.7630   -1.5301 N.ar    1  LIG1       -0.3567
      8 C           0.7710    0.4932   -1.2511 C.ar    1  LIG1        0.0344
      9 C           1.1036    1.7296   -2.0122 C.3     1  LIG1        0.0391
     10 N           0.1396    2.8025   -1.6792 N.3     1  LIG1       -0.2994
     11 C           0.5855    4.0743   -2.2414 C.3     1  LIG1       -0.0124
     12 C          -0.0627    2.9157   -0.2131 C.3     1  LIG1        0.0030
     13 C          -0.6933    1.6401    0.4062 C.3     1  LIG1       -0.0126
     14 C          -0.0253    0.4213   -0.1280 C.ar    1  LIG1       -0.0165
     15 C          -0.0556   -0.9329    0.2978 C.ar    1  LIG1        0.0066
     16 C          -0.6876   -1.6199    1.3567 C.ar    1  LIG1       -0.0105
     17 H          -2.2809   -3.9101    4.0934 H       1  LIG1        0.0660
     18 H          -2.7837   -2.7124    2.8948 H       1  LIG1        0.0660
     19 H          -1.3761   -2.3958    3.9835 H       1  LIG1        0.0660
     20 H           0.4456   -4.7598    0.7009 H       1  LIG1        0.0655
     21 H           1.5649   -3.5809   -1.1764 H       1  LIG1        0.0639
     22 H           1.8311   -1.0145   -2.3011 H       1  LIG1        0.1656
     23 H           1.0630    1.5242   -3.0883 H       1  LIG1        0.0490
     24 H           2.1284    2.0311   -1.7596 H       1  LIG1        0.0490
     25 H           0.6990    3.9961   -3.3284 H       1  LIG1        0.0391
     26 H           1.5410    4.4032   -1.8171 H       1  LIG1        0.0391
     27 H          -0.1592    4.8570   -2.0594 H       1  LIG1        0.0391
     28 H          -0.7296    3.7579    0.0091 H       1  LIG1        0.0430
     29 H           0.8963    3.1254    0.2809 H       1  LIG1        0.0430
     30 H          -1.7596    1.5997    0.1526 H       1  LIG1        0.0326
     31 H          -0.6081    1.6810    1.4976 H       1  LIG1        0.0326
     32 H          -1.3055   -1.0520    2.0405 H       1  LIG1        0.0661
@<TRIPOS>BOND
     1     1     2    1
     2     2     3    1
     3     3     4   ar
     4     4     5   ar
     5     5     6   ar
     6     6     7   ar
     7     7     8   ar
     8     8     9    1
     9     9    10    1
    10    10    11    1
    11    10    12    1
    12    12    13    1
    13     8    14   ar
    14    13    14    1
    15    14    15   ar
    16     6    15   ar
    17    15    16   ar
    18     3    16   ar
    19     1    17    1
    20     1    18    1
    21     1    19    1
    22     4    20    1
    23     5    21    1
    24     7    22    1
    25     9    23    1
    26     9    24    1
    27    11    25    1
    28    11    26    1
    29    11    27    1
    30    12    28    1
    31    12    29    1
    32    13    30    1
    33    13    31    1
    34    16    32    1
