@<TRIPOS>MOLECULE
NuBBE_2048
 46 49 0 0 0
SMALL
GASTEIGER

@<TRIPOS>ATOM
      1 O          -3.4939   -3.2485   -0.4329 O.3     1  LIG1       -0.4885
      2 C          -4.3858   -2.4739   -1.2318 C.3     1  LIG1        0.0791
      3 C          -2.1572   -2.9290   -0.5276 C.ar    1  LIG1        0.2039
      4 C          -1.6639   -1.6261   -0.7215 C.ar    1  LIG1        0.1723
      5 C          -0.2872   -1.3984   -0.8458 C.ar    1  LIG1        0.0389
      6 C           0.2351   -0.0292   -1.1774 C.3     1  LIG1        0.1388
      7 H           0.7804   -0.0796   -2.1299 H       1  LIG1        0.0793
      8 C          -0.8455    1.0487   -1.2522 C.3     1  LIG1        0.0632
      9 H          -1.1715    1.1854   -2.2878 H       1  LIG1        0.0423
     10 C          -2.0097    0.6664   -0.3625 C.3     1  LIG1        0.1004
     11 O          -2.5482   -0.5798   -0.7995 O.3     1  LIG1       -0.4870
     12 C          -0.0671    2.1970   -0.7191 C.ar    1  LIG1        0.0118
     13 C           1.0745    1.7206   -0.0801 C.ar    1  LIG1        0.1704
     14 O           1.1843    0.3586   -0.1582 O.3     1  LIG1       -0.4793
     15 C           1.9709    2.5618    0.5831 C.ar    1  LIG1        0.2076
     16 O           3.1106    2.1532    1.2078 O.3     1  LIG1       -0.4884
     17 C           3.4429    0.7700    1.2155 C.3     1  LIG1        0.0791
     18 C           1.6610    3.9330    0.5715 C.ar    1  LIG1        0.2070
     19 C           0.4998    4.3937   -0.0935 C.ar    1  LIG1        0.1627
     20 C          -0.3753    3.5331   -0.7517 C.ar    1  LIG1       -0.0091
     21 O           0.1705    5.7226   -0.0782 O.3     1  LIG1       -0.5032
     22 O           2.4024    4.9615    1.1234 O.3     1  LIG1       -0.4884
     23 C           3.1955    4.6430    2.2593 C.3     1  LIG1        0.0791
     24 C           0.6068   -2.4633   -0.6907 C.ar    1  LIG1       -0.0479
     25 C           0.1341   -3.7459   -0.4304 C.ar    1  LIG1       -0.0157
     26 C          -1.2416   -3.9885   -0.3398 C.ar    1  LIG1        0.1652
     27 O          -1.7620   -5.2419   -0.1144 O.3     1  LIG1       -0.4913
     28 C          -0.9025   -6.1657    0.5479 C.3     1  LIG1        0.0790
     29 H          -4.0257   -2.3742   -2.2625 H       1  LIG1        0.0660
     30 H          -4.5860   -1.4971   -0.7814 H       1  LIG1        0.0660
     31 H          -5.3503   -2.9882   -1.2611 H       1  LIG1        0.0660
     32 H          -2.8083    1.4137   -0.4398 H       1  LIG1        0.0704
     33 H          -1.7476    0.6052    0.7041 H       1  LIG1        0.0704
     34 H           4.3776    0.6530    1.7699 H       1  LIG1        0.0660
     35 H           3.6213    0.3991    0.2000 H       1  LIG1        0.0660
     36 H           2.6840    0.1795    1.7404 H       1  LIG1        0.0660
     37 H          -1.2611    3.9189   -1.2425 H       1  LIG1        0.0659
     38 H           0.8387    6.1408    0.5089 H       1  LIG1        0.2923
     39 H           3.5606    5.5863    2.6775 H       1  LIG1        0.0660
     40 H           4.0834    4.0650    1.9900 H       1  LIG1        0.0660
     41 H           2.5991    4.1440    3.0305 H       1  LIG1        0.0660
     42 H           1.6794   -2.2948   -0.7684 H       1  LIG1        0.0624
     43 H           0.8646   -4.5414   -0.3259 H       1  LIG1        0.0655
     44 H          -1.4968   -7.0396    0.8302 H       1  LIG1        0.0660
     45 H          -0.4846   -5.7353    1.4652 H       1  LIG1        0.0660
     46 H          -0.1057   -6.5139   -0.1183 H       1  LIG1        0.0660
@<TRIPOS>BOND
     1     1     2    1
     2     1     3    1
     3     3     4   ar
     4     4     5   ar
     5     5     6    1
     6     6     7    1
     7     6     8    1
     8     8     9    1
     9     8    10    1
    10    10    11    1
    11     4    11    1
    12     8    12    1
    13    12    13   ar
    14    13    14    1
    15     6    14    1
    16    13    15   ar
    17    15    16    1
    18    16    17    1
    19    15    18   ar
    20    18    19   ar
    21    19    20   ar
    22    12    20   ar
    23    19    21    1
    24    18    22    1
    25    22    23    1
    26     5    24   ar
    27    24    25   ar
    28    25    26   ar
    29     3    26   ar
    30    26    27    1
    31    27    28    1
    32     2    29    1
    33     2    30    1
    34     2    31    1
    35    10    32    1
    36    10    33    1
    37    17    34    1
    38    17    35    1
    39    17    36    1
    40    20    37    1
    41    21    38    1
    42    23    39    1
    43    23    40    1
    44    23    41    1
    45    24    42    1
    46    25    43    1
    47    28    44    1
    48    28    45    1
    49    28    46    1
