REMARK  Name = NuBBE_29
REMARK  13 active torsions:
REMARK  status: ('A' for Active; 'I' for Inactive)
REMARK    1  A    between atoms: C_1  and  C_2
REMARK    2  A    between atoms: C_2  and  C_3
REMARK    3  A    between atoms: C_3  and  C_4
REMARK    4  A    between atoms: C_4  and  C_5
REMARK    5  A    between atoms: C_5  and  C_6
REMARK    6  A    between atoms: C_6  and  C_7
REMARK    7  A    between atoms: C_7  and  C_8
REMARK    8  A    between atoms: C_8  and  C_9
REMARK    9  A    between atoms: C_9  and  C_10
REMARK   10  A    between atoms: N_11  and  C_13
REMARK   11  A    between atoms: C_13  and  C_14
REMARK   12  A    between atoms: C_14  and  C_15
REMARK   13  A    between atoms: C_14  and  C_16
REMARK                            x       y       z     vdW  Elec       q    Type
REMARK                         _______ _______ _______ _____ _____    ______ ____
ROOT
ATOM      1  C   LIG A   1      -0.080   0.487  -2.145  0.00  0.00    +0.096 C 
ENDROOT
BRANCH   1   2
ATOM      2  C   LIG A   1      -0.165   1.075  -3.503  0.00  0.00    +0.213 C 
ATOM      3  N   LIG A   1       0.912   1.757  -4.029  0.00  0.00    -0.315 N 
ATOM      4  H   LIG A   1       0.667   2.105  -4.968  0.00  0.00    +0.149 HD
ATOM      5  O   LIG A   1      -1.233   1.203  -4.097  0.00  0.00    -0.276 OA
BRANCH   3   6
ATOM      6  C   LIG A   1       2.311   1.544  -3.751  0.00  0.00    +0.107 C 
BRANCH   6   7
ATOM      7  C   LIG A   1       2.958   1.947  -2.359  0.00  0.00    +0.000 C 
ATOM      8  C   LIG A   1       2.575   1.177  -1.089  0.00  0.00    +0.009 C 
ATOM      9  C   LIG A   1       4.500   1.786  -2.433  0.00  0.00    +0.009 C 
ENDBRANCH   6   7
ENDBRANCH   3   6
ENDBRANCH   1   2
BRANCH   1  10
ATOM     10  C   LIG A   1      -1.032  -0.434  -1.468  0.00  0.00    +0.009 C 
BRANCH  10  11
ATOM     11  C   LIG A   1      -0.364  -0.852  -0.114  0.00  0.00    +0.000 C 
BRANCH  11  12
ATOM     12  C   LIG A   1      -1.263  -1.815   0.657  0.00  0.00    +0.000 C 
BRANCH  12  13
ATOM     13  C   LIG A   1      -0.711  -2.299   2.004  0.00  0.00    -0.000 C 
BRANCH  13  14
ATOM     14  C   LIG A   1      -0.553  -1.229   3.089  0.00  0.00    -0.000 C 
BRANCH  14  15
ATOM     15  C   LIG A   1      -1.829  -0.450   3.426  0.00  0.00    -0.000 C 
BRANCH  15  17
ATOM     16  C   LIG A   1      -4.211  -0.540   4.256  0.00  0.00    +0.004 C 
ATOM     17  C   LIG A   1      -2.954  -1.340   3.958  0.00  0.00    -0.003 C 
ENDBRANCH  15  17
ENDBRANCH  14  15
ENDBRANCH  13  14
ENDBRANCH  12  13
ENDBRANCH  11  12
ENDBRANCH  10  11
ENDBRANCH   1  10
TORSDOF 10
