@<TRIPOS>MOLECULE
NuBBE_294
 24 25 0 0 0
SMALL
GASTEIGER

@<TRIPOS>ATOM
      1 C          -1.6933   -0.0834    3.0374 C.3     1  LIG1        0.0788
      2 O          -2.2345   -0.0589    1.7160 O.3     1  LIG1       -0.4943
      3 C          -1.3999    0.6197    0.8691 C.ar    1  LIG1        0.1344
      4 C          -1.6272    1.9924    0.7184 C.ar    1  LIG1       -0.0190
      5 C          -0.8556    2.7374   -0.1718 C.ar    1  LIG1       -0.0548
      6 C           0.1305    2.1066   -0.9279 C.ar    1  LIG1       -0.0184
      7 C           0.3409    0.7308   -0.7964 C.ar    1  LIG1        0.1423
      8 O           1.3193    0.1934   -1.5974 O.2     1  LIG1       -0.4596
      9 C           1.5397   -1.1708   -1.5456 C.ar    1  LIG1        0.1062
     10 C           2.5974   -1.6453   -2.4922 C.3     1  LIG1       -0.0062
     11 C           0.8811   -2.0018   -0.7282 C.ar    1  LIG1        0.0237
     12 C          -0.4212   -0.0232    0.1001 C.ar    1  LIG1        0.1054
     13 C          -0.1441   -1.4727    0.1895 C.ar    1  LIG1        0.1963
     14 O          -0.6894   -2.2333    0.9779 O.2     1  LIG1       -0.2869
     15 H          -1.7356    0.9141    3.4881 H       1  LIG1        0.0660
     16 H          -0.6646   -0.4597    3.0543 H       1  LIG1        0.0660
     17 H          -2.3112   -0.7551    3.6406 H       1  LIG1        0.0660
     18 H          -2.4139    2.4768    1.2917 H       1  LIG1        0.0654
     19 H          -1.0313    3.8045   -0.2842 H       1  LIG1        0.0620
     20 H           0.7286    2.6836   -1.6291 H       1  LIG1        0.0654
     21 H           3.5506   -1.1548   -2.2701 H       1  LIG1        0.0308
     22 H           2.3170   -1.4051   -3.5229 H       1  LIG1        0.0308
     23 H           2.7527   -2.7273   -2.4290 H       1  LIG1        0.0308
     24 H           1.0643   -3.0680   -0.6885 H       1  LIG1        0.0689
@<TRIPOS>BOND
     1     1     2    1
     2     2     3    1
     3     3     4   ar
     4     4     5   ar
     5     5     6   ar
     6     6     7   ar
     7     7     8   ar
     8     8     9   ar
     9     9    10    1
    10     9    11   ar
    11     7    12   ar
    12     3    12   ar
    13    12    13   ar
    14    11    13   ar
    15    13    14    2
    16     1    15    1
    17     1    16    1
    18     1    17    1
    19     4    18    1
    20     5    19    1
    21     6    20    1
    22    10    21    1
    23    10    22    1
    24    10    23    1
    25    11    24    1
