REMARK  Name = NuBBE_591
REMARK  3 active torsions:
REMARK  status: ('A' for Active; 'I' for Inactive)
REMARK    1  A    between atoms: C_1  and  C_2
REMARK    2  A    between atoms: C_4  and  C_8
REMARK    3  A    between atoms: C_9  and  C_11
REMARK                            x       y       z     vdW  Elec       q    Type
REMARK                         _______ _______ _______ _____ _____    ______ ____
ROOT
ATOM      1  C   LIG A   1      -0.138  -1.296  -3.066  0.00  0.00    +0.009 C 
ATOM      2  C   LIG A   1      -0.471  -1.329  -1.560  0.00  0.00    +0.008 C 
ATOM      3  C   LIG A   1       0.232  -2.528  -0.892  0.00  0.00    +0.061 C 
ATOM      4  C   LIG A   1       1.710  -2.290  -0.628  0.00  0.00    +0.167 C 
ATOM      5  O   LIG A   1       2.478  -3.229  -0.427  0.00  0.00    -0.292 OA
ATOM      6  C   LIG A   1      -0.433  -2.987   0.404  0.00  0.00    +0.016 C 
ATOM      7  C   LIG A   1      -0.133   0.039  -0.907  0.00  0.00    +0.057 C 
ATOM      8  C   LIG A   1       1.357   0.200  -0.712  0.00  0.00    +0.016 A 
ATOM      9  C   LIG A   1       2.223  -0.896  -0.570  0.00  0.00    +0.025 A 
ATOM     10  C   LIG A   1       3.610  -0.701  -0.369  0.00  0.00    +0.015 A 
ATOM     11  C   LIG A   1       4.151   0.585  -0.308  0.00  0.00    +0.050 A 
ATOM     12  C   LIG A   1       3.287   1.645  -0.453  0.00  0.00    +0.167 A 
ATOM     13  C   LIG A   1       1.937   1.461  -0.650  0.00  0.00    +0.171 A 
ATOM     14  O   LIG A   1       1.276   2.648  -0.769  0.00  0.00    -0.452 OA
ATOM     15  C   LIG A   1       2.355   3.589  -0.601  0.00  0.00    +0.466 C 
ATOM     16  O   LIG A   1       3.638   2.958  -0.419  0.00  0.00    -0.453 OA
ENDROOT
BRANCH   7  17
ATOM     17  C   LIG A   1      -0.991   0.333   0.328  0.00  0.00    -0.036 A 
ATOM     18  C   LIG A   1      -0.469   0.361   1.645  0.00  0.00    +0.008 A 
ATOM     19  C   LIG A   1      -1.286   0.640   2.748  0.00  0.00    +0.050 A 
ATOM     20  C   LIG A   1      -2.618   0.893   2.515  0.00  0.00    +0.166 A 
ATOM     21  O   LIG A   1      -3.552   1.182   3.459  0.00  0.00    -0.453 OA
ATOM     22  C   LIG A   1      -4.725   1.349   2.637  0.00  0.00    +0.466 C 
ATOM     23  O   LIG A   1      -4.473   1.154   1.229  0.00  0.00    -0.453 OA
ATOM     24  C   LIG A   1      -3.142   0.876   1.246  0.00  0.00    +0.167 A 
ATOM     25  C   LIG A   1      -2.362   0.604   0.141  0.00  0.00    +0.053 A 
ENDBRANCH   7  17
TORSDOF 1
