REMARK  Name = NuBBE_1464
REMARK  14 active torsions:
REMARK  status: ('A' for Active; 'I' for Inactive)
REMARK    1  A    between atoms: C_1  and  C_2
REMARK    2  A    between atoms: C_4  and  C_5
REMARK    3  A    between atoms: C_10  and  C_11
REMARK    4  A    between atoms: C_10  and  C_12
REMARK    5  A    between atoms: C_13  and  C_15
REMARK    6  A    between atoms: C_15  and  O_17
REMARK    7  A    between atoms: C_15  and  C_18
REMARK    8  A    between atoms: C_18  and  O_19
REMARK    9  A    between atoms: O_19  and  C_20
REMARK   10  A    between atoms: C_24  and  C_25
REMARK   11  A    between atoms: C_26  and  C_28
REMARK   12  A    between atoms: C_38  and  O_40
REMARK   13  A    between atoms: O_40  and  C_41
REMARK   14  A    between atoms: C_41  and  C_42
REMARK                            x       y       z     vdW  Elec       q    Type
REMARK                         _______ _______ _______ _____ _____    ______ ____
ROOT
ATOM      1  C   LIG A   1       1.597   2.440  -2.009  0.00  0.00    +0.057 C 
ATOM      2  C   LIG A   1       1.139   1.826  -0.727  0.00  0.00    +0.125 C 
ATOM      3  C   LIG A   1       0.521   0.452  -0.478  0.00  0.00    +0.070 C 
ATOM      4  C   LIG A   1       1.476  -0.232   0.550  0.00  0.00    +0.045 C 
ATOM      5  C   LIG A   1       2.414  -1.180  -0.245  0.00  0.00    +0.020 C 
ATOM      6  C   LIG A   1       2.372   0.923   0.987  0.00  0.00    +0.109 C 
ATOM      7  O   LIG A   1       2.142   2.098   0.298  0.00  0.00    -0.488 OA
ATOM      8  C   LIG A   1       3.246   0.876   1.994  0.00  0.00    +0.088 C 
ATOM      9  C   LIG A   1       3.024  -0.245   2.926  0.00  0.00    +0.165 C 
ATOM     10  C   LIG A   1       1.543  -0.554   3.219  0.00  0.00    +0.034 C 
ATOM     11  C   LIG A   1       0.921   0.740   3.825  0.00  0.00    +0.019 C 
ATOM     12  C   LIG A   1       1.449  -1.567   4.383  0.00  0.00    +0.019 C 
ATOM     13  C   LIG A   1       0.820  -0.940   1.836  0.00  0.00    +0.056 C 
ATOM     14  O   LIG A   1       3.976  -0.787   3.472  0.00  0.00    -0.292 OA
ATOM     15  C   LIG A   1      -0.331   1.740  -0.297  0.00  0.00    +0.044 C 
ATOM     16  C   LIG A   1      -1.552   1.625  -1.280  0.00  0.00    +0.023 C 
ATOM     17  C   LIG A   1      -1.382   2.490  -2.543  0.00  0.00    +0.016 C 
ATOM     18  C   LIG A   1      -2.871   2.032  -0.538  0.00  0.00    +0.216 C 
ATOM     19  O   LIG A   1      -2.686   3.343   0.036  0.00  0.00    -0.456 OA
ATOM     20  C   LIG A   1      -1.672   3.501   0.922  0.00  0.00    +0.308 C 
ATOM     21  C   LIG A   1      -0.708   2.340   1.039  0.00  0.00    +0.133 C 
ATOM     22  O   LIG A   1      -1.581   4.508   1.615  0.00  0.00    -0.251 OA
ATOM     23  C   LIG A   1      -1.593   0.115  -1.610  0.00  0.00    +0.056 C 
ATOM     24  C   LIG A   1      -0.154  -0.403  -1.539  0.00  0.00    +0.189 C 
ENDROOT
BRANCH  18  25
ATOM     25  C   LIG A   1      -4.130   2.006  -1.379  0.00  0.00    +0.031 A 
ATOM     26  C   LIG A   1      -4.986   3.065  -1.630  0.00  0.00    +0.202 A 
ATOM     27  O   LIG A   1      -6.034   2.683  -2.402  0.00  0.00    -0.471 OA
ATOM     28  C   LIG A   1      -5.871   1.364  -2.663  0.00  0.00    +0.195 A 
ATOM     29  C   LIG A   1      -4.726   0.898  -2.061  0.00  0.00    +0.048 A 
ENDBRANCH  18  25
BRANCH  13  30
ATOM     30  C   LIG A   1       0.580  -2.479   1.709  0.00  0.00    +0.227 C 
BRANCH  30  31
ATOM     31  O   LIG A   1      -0.215  -2.749   0.555  0.00  0.00    -0.380 OA
ATOM     32  H   LIG A   1      -0.148  -3.711   0.383  0.00  0.00    +0.210 HD
ENDBRANCH  30  31
BRANCH  30  33
ATOM     33  C   LIG A   1       1.808  -3.441   1.812  0.00  0.00    +0.336 C 
ATOM     34  O   LIG A   1       2.962  -3.141   2.094  0.00  0.00    -0.248 OA
BRANCH  33  35
ATOM     35  O   LIG A   1       1.345  -4.712   1.670  0.00  0.00    -0.466 OA
ATOM     36  C   LIG A   1       2.243  -5.668   2.220  0.00  0.00    +0.280 C 
ENDBRANCH  33  35
ENDBRANCH  30  33
ENDBRANCH  13  30
BRANCH  24  37
ATOM     37  O   LIG A   1       0.455  -0.298  -2.834  0.00  0.00    -0.461 OA
BRANCH  37  38
ATOM     38  C   LIG A   1       0.186  -1.352  -3.660  0.00  0.00    +0.304 C 
ATOM     39  C   LIG A   1       0.535  -1.040  -5.083  0.00  0.00    +0.136 C 
ATOM     40  O   LIG A   1      -0.308  -2.417  -3.313  0.00  0.00    -0.251 OA
ENDBRANCH  37  38
ENDBRANCH  24  37
TORSDOF 7
