REMARK  Name = NuBBE_2222
REMARK  10 active torsions:
REMARK  status: ('A' for Active; 'I' for Inactive)
REMARK    1  A    between atoms: C_1  and  C_2
REMARK    2  A    between atoms: C_1  and  C_13
REMARK    3  A    between atoms: C_2  and  C_3
REMARK    4  A    between atoms: C_3  and  C_4
REMARK    5  A    between atoms: C_6  and  O_7
REMARK    6  A    between atoms: O_7  and  C_8
REMARK    7  A    between atoms: C_9  and  O_12
REMARK    8  A    between atoms: C_14  and  O_15
REMARK    9  A    between atoms: O_15  and  C_16
REMARK   10  A    between atoms: C_18  and  O_21
REMARK                            x       y       z     vdW  Elec       q    Type
REMARK                         _______ _______ _______ _____ _____    ______ ____
ROOT
ATOM      1  C   LIG A   1      -0.464  -0.637  -0.045  0.00  0.00    +0.009 C 
ENDROOT
BRANCH   1   2
ATOM      2  C   LIG A   1      -0.013  -2.096  -0.193  0.00  0.00    +0.039 C 
BRANCH   2   3
ATOM      3  C   LIG A   1       1.497  -2.216  -0.159  0.00  0.00    -0.005 A 
ATOM      4  C   LIG A   1       2.277  -2.140  -1.335  0.00  0.00    +0.127 A 
ATOM      5  C   LIG A   1       3.674  -2.181  -1.244  0.00  0.00    +0.091 A 
ATOM      6  C   LIG A   1       4.287  -2.300   0.000  0.00  0.00    +0.120 A 
ATOM      7  C   LIG A   1       3.531  -2.403   1.161  0.00  0.00    +0.046 A 
ATOM      8  C   LIG A   1       2.142  -2.359   1.081  0.00  0.00    +0.011 A 
BRANCH   4   9
ATOM      9  O   LIG A   1       1.578  -2.021  -2.507  0.00  0.00    -0.495 OA
ATOM     10  C   LIG A   1       2.330  -1.991  -3.715  0.00  0.00    +0.277 C 
ENDBRANCH   4   9
BRANCH   6  11
ATOM     11  O   LIG A   1       5.645  -2.316   0.127  0.00  0.00    -0.507 OA
ATOM     12  H   LIG A   1       6.043  -2.123  -0.739  0.00  0.00    +0.292 HD
ENDBRANCH   6  11
ENDBRANCH   2   3
ENDBRANCH   1   2
BRANCH   1  13
ATOM     13  C   LIG A   1      -1.993  -0.505  -0.050  0.00  0.00    +0.035 C 
BRANCH  13  14
ATOM     14  C   LIG A   1      -2.466   0.929   0.070  0.00  0.00    -0.044 A 
ATOM     15  C   LIG A   1      -2.163   1.687   1.218  0.00  0.00    +0.053 A 
ATOM     16  C   LIG A   1      -2.597   3.010   1.335  0.00  0.00    +0.162 A 
ATOM     17  C   LIG A   1      -3.342   3.571   0.295  0.00  0.00    +0.159 A 
ATOM     18  C   LIG A   1      -3.667   2.838  -0.840  0.00  0.00    +0.049 A 
ATOM     19  C   LIG A   1      -3.231   1.517  -0.950  0.00  0.00    +0.007 A 
BRANCH  16  20
ATOM     20  O   LIG A   1      -2.364   3.845   2.399  0.00  0.00    -0.491 OA
ATOM     21  C   LIG A   1      -1.600   3.304   3.471  0.00  0.00    +0.277 C 
ENDBRANCH  16  20
BRANCH  17  22
ATOM     22  O   LIG A   1      -3.770   4.869   0.372  0.00  0.00    -0.503 OA
ATOM     23  H   LIG A   1      -3.422   5.197   1.224  0.00  0.00    +0.292 HD
ENDBRANCH  17  22
ENDBRANCH  13  14
ENDBRANCH   1  13
TORSDOF 8
