@<TRIPOS>MOLECULE
NuBBE_609
 75 79 0 0 0
SMALL
GASTEIGER

@<TRIPOS>ATOM
      1 C           3.8936   -2.3706    0.2473 C.2     1  LIG1       -0.0967
      2 C           2.6012   -2.1167    0.5305 C.2     1  LIG1       -0.0448
      3 C           2.0547   -1.4677    1.7961 C.3     1  LIG1       -0.0149
      4 H           1.5370   -2.2720    2.3326 H       1  LIG1        0.0347
      5 C           1.0337   -0.2932    1.5397 C.3     1  LIG1        0.0021
      6 C          -0.1095   -0.2195    2.6186 C.3     1  LIG1        0.0315
      7 H          -0.4870    0.8071    2.6630 H       1  LIG1        0.0505
      8 N          -1.1498   -0.9903    1.9961 N.am    1  LIG1       -0.3112
      9 H          -1.9886   -1.3155    2.4623 H       1  LIG1        0.1490
     10 C           0.1529   -0.6565    4.0840 C.3     1  LIG1       -0.0089
     11 C          -1.0633   -0.4894    4.9887 C.ar    1  LIG1       -0.0456
     12 C          -1.9737   -1.5418    5.1780 C.ar    1  LIG1       -0.0585
     13 C          -3.1536   -1.3442    5.9033 C.ar    1  LIG1       -0.0615
     14 C          -3.4336   -0.0975    6.4576 C.ar    1  LIG1       -0.0617
     15 C          -2.5082    0.9361    6.3333 C.ar    1  LIG1       -0.0615
     16 C          -1.3253    0.7392    5.6132 C.ar    1  LIG1       -0.0585
     17 C           0.2059   -0.3453    0.1573 C.3     1  LIG1        0.1000
     18 C          -1.0419   -1.0879    0.6275 C.2     1  LIG1        0.2241
     19 O          -1.8555   -1.6510   -0.0735 O.2     1  LIG1       -0.2750
     20 C          -0.1861    1.0970   -0.3942 C.3     1  LIG1        0.1463
     21 H           0.6001    1.4004   -1.0864 H       1  LIG1        0.0772
     22 O          -0.2252    2.0517    0.6982 O.3     1  LIG1       -0.4577
     23 C           0.6221    3.1147    0.6302 C.2     1  LIG1        0.3043
     24 C           0.5440    3.9334    1.8848 C.3     1  LIG1        0.0332
     25 O           1.4043    3.3499   -0.2781 O.2     1  LIG1       -0.2512
     26 C          -1.5291    1.1961   -1.0964 C.3     1  LIG1        0.1262
     27 H          -2.3335    0.8678   -0.4440 H       1  LIG1        0.0661
     28 C          -1.9225    1.4085   -2.5840 C.3     1  LIG1        0.1240
     29 H          -2.9564    1.1599   -2.8186 H       1  LIG1        0.0657
     30 C          -1.1041    1.5031   -3.8699 C.3     1  LIG1        0.1494
     31 O           0.2396    1.8407   -3.5937 O.3     1  LIG1       -0.3786
     32 C          -1.3436    0.2254   -4.7400 C.2     1  LIG1        0.1700
     33 C          -0.2173   -0.4251   -5.5482 C.3     1  LIG1        0.0211
     34 H          -0.7196   -0.8268   -6.4413 H       1  LIG1        0.0379
     35 C           0.3185   -1.6331   -4.7737 C.3     1  LIG1       -0.0254
     36 C           0.9318   -1.2770   -3.4528 C.2     1  LIG1       -0.0869
     37 C           0.2747   -1.3652   -2.2828 C.2     1  LIG1       -0.0810
     38 C           0.9699   -1.1195   -0.9601 C.3     1  LIG1        0.0247
     39 H           1.8340   -0.4775   -1.2041 H       1  LIG1        0.0383
     40 C           1.5469   -2.4598   -0.4785 C.3     1  LIG1        0.0836
     41 H           1.9805   -3.0206   -1.3165 H       1  LIG1        0.0646
     42 O           0.5908   -3.3071    0.1364 O.3     1  LIG1       -0.3869
     43 C           0.8791    0.4793   -6.0955 C.3     1  LIG1       -0.0553
     44 O          -2.4603   -0.3141   -4.7639 O.2     1  LIG1       -0.2940
     45 C          -1.6535    2.6612   -4.7244 C.3     1  LIG1       -0.0265
     46 O          -1.7338    2.5012   -1.6778 O.3     1  LIG1       -0.3610
     47 H           1.6167    0.6353    1.5666 H       1  LIG1        0.0336
     48 C           3.1943   -0.9718    2.7062 C.3     1  LIG1       -0.0583
     49 H           4.7087   -2.1440    0.9246 H       1  LIG1        0.0535
     50 H           4.1848   -2.8335   -0.6933 H       1  LIG1        0.0535
     51 H           0.4772   -1.7014    4.1415 H       1  LIG1        0.0331
     52 H           0.9600   -0.0489    4.5082 H       1  LIG1        0.0331
     53 H          -1.7825   -2.5235    4.7489 H       1  LIG1        0.0620
     54 H          -3.8626   -2.1598    6.0257 H       1  LIG1        0.0618
     55 H          -4.3685    0.0669    6.9885 H       1  LIG1        0.0618
     56 H          -2.7150    1.9018    6.7884 H       1  LIG1        0.0618
     57 H          -0.6157    1.5593    5.5384 H       1  LIG1        0.0620
     58 H           1.5363    3.9613    2.3445 H       1  LIG1        0.0342
     59 H          -0.1472    3.4861    2.6050 H       1  LIG1        0.0342
     60 H           0.2042    4.9439    1.6487 H       1  LIG1        0.0342
     61 H           0.6179    1.1428   -3.0429 H       1  LIG1        0.2108
     62 H           1.0720   -2.1602   -5.3727 H       1  LIG1        0.0314
     63 H          -0.4928   -2.3558   -4.6146 H       1  LIG1        0.0314
     64 H           1.9792   -0.9754   -3.4755 H       1  LIG1        0.0569
     65 H          -0.7600   -1.7083   -2.2697 H       1  LIG1        0.0573
     66 H          -0.1741   -3.3809   -0.4652 H       1  LIG1        0.2102
     67 H           1.5594    0.8473   -5.3244 H       1  LIG1        0.0237
     68 H           0.4544    1.3402   -6.6194 H       1  LIG1        0.0237
     69 H           1.4929   -0.0721   -6.8178 H       1  LIG1        0.0237
     70 H          -1.5674    3.6182   -4.1981 H       1  LIG1        0.0262
     71 H          -2.7063    2.5102   -4.9889 H       1  LIG1        0.0262
     72 H          -1.0875    2.7676   -5.6567 H       1  LIG1        0.0262
     73 H           3.8191   -0.2341    2.1878 H       1  LIG1        0.0236
     74 H           3.8361   -1.8023    3.0213 H       1  LIG1        0.0236
     75 H           2.8260   -0.4965    3.6148 H       1  LIG1        0.0236
@<TRIPOS>BOND
     1     1     2    2
     2     2     3    1
     3     3     5    1
     4     5     6    1
     5     6     8    1
     6     8     9    1
     7    10    11    1
     8    11    12   ar
     9    12    13   ar
    10    13    14   ar
    11    14    15   ar
    12    15    16   ar
    13    11    16   ar
    14     5    17    1
    15    17    18    1
    16     8    18   am
    17    18    19    2
    18    17    20    1
    19    22    23    1
    20    23    24    1
    21    23    25    2
    22    20    26    1
    23    26    27    1
    24    26    28    1
    25    28    29    1
    26    28    30    1
    27    30    31    1
    28    30    32    1
    29    32    33    1
    30    33    35    1
    31    35    36    1
    32    36    37    2
    33    37    38    1
    34    38    39    1
    35    17    38    1
    36    38    40    1
    37    40    41    1
    38     2    40    1
    39    40    42    1
    40    32    44    2
    41    30    45    1
    42    28    46    1
    43    26    46    1
    44     5    47    1
    45     6    10    1
    46     6     7    1
    47     3    48    1
    48     3     4    1
    49    33    43    1
    50    33    34    1
    51    20    22    1
    52    20    21    1
    53     1    49    1
    54     1    50    1
    55    10    51    1
    56    10    52    1
    57    12    53    1
    58    13    54    1
    59    14    55    1
    60    15    56    1
    61    16    57    1
    62    24    58    1
    63    24    59    1
    64    24    60    1
    65    31    61    1
    66    35    62    1
    67    35    63    1
    68    36    64    1
    69    37    65    1
    70    42    66    1
    71    43    67    1
    72    43    68    1
    73    43    69    1
    74    45    70    1
    75    45    71    1
    76    45    72    1
    77    48    73    1
    78    48    74    1
    79    48    75    1
