@<TRIPOS>MOLECULE
NuBBE_1158
 66 72 0 0 0
SMALL
GASTEIGER

@<TRIPOS>ATOM
      1 C          -2.1074    0.5018   -0.0455 C.3     1  LIG1       -0.0498
      2 C          -0.7143    0.2325    0.6168 C.3     1  LIG1        0.0622
      3 C          -0.6454   -1.3083    0.9499 C.3     1  LIG1        0.1283
      4 C          -1.1641   -1.9804    2.2329 C.3     1  LIG1        0.1861
      5 H          -1.3882   -1.3945    3.1127 H       1  LIG1        0.0743
      6 C          -0.8820   -3.4120    2.5174 C.2     1  LIG1        0.3398
      7 O          -0.4864   -4.2012    1.4708 O.3     1  LIG1       -0.4538
      8 C          -0.3411   -3.6960    0.1058 C.3     1  LIG1        0.1427
      9 H           0.4380   -4.3407   -0.3249 H       1  LIG1        0.0794
     10 C          -1.5913   -4.0101   -0.6604 C.2     1  LIG1        0.0792
     11 C          -2.8282   -4.3184   -0.2646 C.2     1  LIG1       -0.0030
     12 C          -3.7014   -4.6016   -1.4121 C.3     1  LIG1        0.2233
     13 O          -4.2733   -5.8854   -1.3037 O.3     1  LIG1       -0.3545
     14 O          -2.8466   -4.5210   -2.5383 O.3     1  LIG1       -0.4282
     15 C          -1.5981   -4.1893   -2.1177 C.2     1  LIG1        0.3410
     16 O          -0.6245   -4.0739   -2.8386 O.2     1  LIG1       -0.2451
     17 C           0.2408   -2.2276    0.1168 C.3     1  LIG1        0.0423
     18 C           0.3744   -1.6346   -1.2899 C.3     1  LIG1       -0.0408
     19 C           1.0680   -0.2782   -1.2691 C.3     1  LIG1       -0.0478
     20 C           0.4086    0.7947   -0.3791 C.3     1  LIG1       -0.0146
     21 H          -0.1480    1.3789   -1.1235 H       1  LIG1        0.0318
     22 C           1.3814    1.9019    0.2754 C.3     1  LIG1        0.0412
     23 C           0.5150    3.0411    0.9022 C.3     1  LIG1        0.0057
     24 H           1.1450    3.5400    1.6556 H       1  LIG1        0.0340
     25 C           0.3248    4.0599   -0.2782 C.3     1  LIG1        0.0682
     26 C           0.7274    5.4761    0.1658 C.3     1  LIG1       -0.0358
     27 C          -1.0432    4.1469   -0.9515 C.3     1  LIG1       -0.0358
     28 O           1.2628    3.6261   -1.3048 O.3     1  LIG1       -0.3692
     29 C           2.2108    2.7972   -0.6438 C.3     1  LIG1        0.0788
     30 H           2.8252    3.4809   -0.0335 H       1  LIG1        0.0608
     31 C           3.1906    2.0794   -1.5191 C.3     1  LIG1        0.0718
     32 C           4.0478    1.1604   -0.6880 C.2     1  LIG1        0.3096
     33 O           3.5683    0.7405    0.5119 O.3     1  LIG1       -0.4639
     34 C           2.4390    1.3194    1.2143 C.3     1  LIG1        0.1011
     35 O           5.1107    0.7236   -1.1193 O.2     1  LIG1       -0.2508
     36 C          -0.7252    2.5967    1.6644 C.3     1  LIG1        0.0126
     37 C          -0.6418    1.1064    1.8788 C.2     1  LIG1        0.1427
     38 O          -0.3826    0.6648    2.9967 O.2     1  LIG1       -0.2967
     39 C           1.6429   -2.3409    0.7808 C.3     1  LIG1       -0.0531
     40 O          -1.0119   -3.8590    3.6482 O.2     1  LIG1       -0.2478
     41 O          -2.0037   -1.8038    1.1081 O.3     1  LIG1       -0.3512
     42 H          -2.2896   -0.1795   -0.8838 H       1  LIG1        0.0240
     43 H          -2.2097    1.5146   -0.4362 H       1  LIG1        0.0240
     44 H          -2.9236    0.3800    0.6772 H       1  LIG1        0.0240
     45 H          -3.1744   -4.3411    0.7585 H       1  LIG1        0.0640
     46 H          -4.5007   -3.8605   -1.5089 H       1  LIG1        0.1105
     47 H          -3.6076   -6.4717   -0.9100 H       1  LIG1        0.2139
     48 H          -0.6062   -1.5220   -1.7654 H       1  LIG1        0.0273
     49 H           0.9647   -2.3057   -1.9253 H       1  LIG1        0.0273
     50 H           1.0898    0.0881   -2.3034 H       1  LIG1        0.0269
     51 H           2.1078   -0.4472   -1.0010 H       1  LIG1        0.0269
     52 H           1.7507    5.5011    0.5559 H       1  LIG1        0.0257
     53 H           0.0525    5.8556    0.9399 H       1  LIG1        0.0257
     54 H           0.7123    6.1702   -0.6825 H       1  LIG1        0.0257
     55 H          -1.3344    3.1996   -1.4069 H       1  LIG1        0.0257
     56 H          -1.0135    4.8622   -1.7831 H       1  LIG1        0.0257
     57 H          -1.8261    4.4770   -0.2627 H       1  LIG1        0.0257
     58 H           3.8429    2.8180   -2.0005 H       1  LIG1        0.0403
     59 H           2.7081    1.5277   -2.3265 H       1  LIG1        0.0403
     60 H           2.8560    2.0829    1.8822 H       1  LIG1        0.0704
     61 H           2.0255    0.5495    1.8682 H       1  LIG1        0.0704
     62 H          -1.6710    2.8418    1.1829 H       1  LIG1        0.0346
     63 H          -0.7621    3.0890    2.6439 H       1  LIG1        0.0346
     64 H           2.3326   -2.9016    0.1394 H       1  LIG1        0.0237
     65 H           1.6145   -2.8491    1.7496 H       1  LIG1        0.0237
     66 H           2.0890   -1.3707    0.9791 H       1  LIG1        0.0237
@<TRIPOS>BOND
     1     2     3    1
     2     3     4    1
     3     4     6    1
     4     6     7    1
     5     7     8    1
     6    10    11    2
     7    11    12    1
     8    12    13    1
     9    12    14    1
    10    14    15    1
    11    10    15    1
    12    15    16    2
    13     8    17    1
    14    17    18    1
    15    18    19    1
    16    19    20    1
    17     2    20    1
    18    20    22    1
    19    22    23    1
    20    23    25    1
    21    25    28    1
    22    28    29    1
    23    22    29    1
    24    29    31    1
    25    31    32    1
    26    32    33    1
    27    33    34    1
    28    22    34    1
    29    23    36    1
    30    36    37    1
    31     2    37    1
    32     3    17    1
    33     4    41    1
    34     3    41    1
    35     1     2    1
    36     4     5    1
    37     6    40    2
    38     8     9    1
    39     8    10    1
    40    17    39    1
    41    20    21    1
    42    23    24    1
    43    25    26    1
    44    25    27    1
    45    29    30    1
    46    32    35    2
    47    37    38    2
    48     1    42    1
    49     1    43    1
    50     1    44    1
    51    11    45    1
    52    12    46    1
    53    13    47    1
    54    18    48    1
    55    18    49    1
    56    19    50    1
    57    19    51    1
    58    26    52    1
    59    26    53    1
    60    26    54    1
    61    27    55    1
    62    27    56    1
    63    27    57    1
    64    31    58    1
    65    31    59    1
    66    34    60    1
    67    34    61    1
    68    36    62    1
    69    36    63    1
    70    39    64    1
    71    39    65    1
    72    39    66    1
