@<TRIPOS>MOLECULE
NuBBE_301
 79 78 0 0 0
SMALL
GASTEIGER

@<TRIPOS>ATOM
      1 C           3.6592    1.8613   -3.7620 C.3     1  LIG1       -0.0182
      2 C           3.3089    0.8445   -2.6931 C.3     1  LIG1        0.0127
      3 H           3.7045    1.2291   -1.7473 H       1  LIG1        0.0885
      4 C           3.8646   -0.5876   -2.9113 C.3     1  LIG1        0.1485
      5 H           4.9615   -0.5107   -2.9892 H       1  LIG1        0.0792
      6 O           3.4774   -1.2161   -4.1717 O.3     1  LIG1       -0.4248
      7 C           2.2807   -1.7975   -4.2718 C.2     1  LIG1        0.5111
      8 O           2.1535   -2.3507   -5.4810 O.3     1  LIG1       -0.4281
      9 C           0.8668   -2.2594   -6.1241 C.3     1  LIG1        0.1086
     10 C           0.7363   -0.7981   -6.5975 C.3     1  LIG1       -0.0253
     11 C           0.9998   -3.1822   -7.3435 C.3     1  LIG1       -0.0253
     12 C          -0.3654   -2.6777   -5.3193 C.3     1  LIG1       -0.0253
     13 O           1.4064   -1.6695   -3.4461 O.2     1  LIG1       -0.2028
     14 C           3.5397   -1.4799   -1.7024 C.3     1  LIG1       -0.0051
     15 C           2.4979   -0.8889   -0.7157 C.3     1  LIG1       -0.0062
     16 C           1.3951    0.0833   -1.2135 C.3     1  LIG1       -0.0222
     17 H           1.3468    0.9140   -0.5001 H       1  LIG1        0.0850
     18 C          -0.0493   -0.4771   -1.3421 C.3     1  LIG1       -0.0097
     19 C          -0.6402   -0.9911   -0.0237 C.3     1  LIG1       -0.0480
     20 C          -2.0628   -1.5641   -0.1975 C.3     1  LIG1       -0.0529
     21 C          -2.6707   -2.1185    1.1014 C.3     1  LIG1       -0.0531
     22 C          -2.7682   -1.1025    2.2275 C.3     1  LIG1       -0.0531
     23 C          -3.5374    0.1766    1.9212 C.3     1  LIG1       -0.0531
     24 C          -3.5586    1.1587    3.0951 C.3     1  LIG1       -0.0531
     25 C          -2.2241    1.8040    3.5115 C.3     1  LIG1       -0.0531
     26 C          -1.0846    0.9140    4.0510 C.3     1  LIG1       -0.0530
     27 C           0.1645    1.6710    4.4477 C.3     1  LIG1       -0.0527
     28 C          -0.0292    2.7820    5.4692 C.3     1  LIG1       -0.0464
     29 C          -0.3816    2.3538    6.8953 C.3     1  LIG1        0.0055
     30 C          -1.7516    1.7431    7.1845 C.2     1  LIG1        0.1303
     31 C          -2.0174    1.2982    8.5916 C.3     1  LIG1       -0.0061
     32 O          -2.6383    1.5797    6.3500 O.2     1  LIG1       -0.2977
     33 N           1.8161    0.7466   -2.5052 N.4     1  LIG1        0.2338
     34 H           1.4017    0.1901   -3.2719 H       1  LIG1        0.2020
     35 H           1.3737    1.6753   -2.5796 H       1  LIG1        0.2020
     36 CL         -2.6965    9.1357    0.9719 Cl      2  LIG2        0.0000
     37 H           4.6856    1.7205   -4.1181 H       1  LIG1        0.0285
     38 H           3.6233    2.8684   -3.3231 H       1  LIG1        0.0285
     39 H           2.9821    1.8479   -4.6177 H       1  LIG1        0.0285
     40 H           1.6547   -0.4705   -7.1000 H       1  LIG1        0.0268
     41 H           0.6016   -0.1259   -5.7410 H       1  LIG1        0.0268
     42 H          -0.1081   -0.6605   -7.2775 H       1  LIG1        0.0268
     43 H           1.8820   -2.9171   -7.9395 H       1  LIG1        0.0268
     44 H           0.1161   -3.1469   -7.9861 H       1  LIG1        0.0268
     45 H           1.1532   -4.2163   -7.0128 H       1  LIG1        0.0268
     46 H          -0.5384   -2.0512   -4.4446 H       1  LIG1        0.0268
     47 H          -0.2767   -3.7104   -4.9657 H       1  LIG1        0.0268
     48 H          -1.2787   -2.5932   -5.9229 H       1  LIG1        0.0268
     49 H           4.4705   -1.6189   -1.1353 H       1  LIG1        0.0305
     50 H           3.2462   -2.4835   -1.9952 H       1  LIG1        0.0305
     51 H           3.0807   -0.3220    0.0256 H       1  LIG1        0.0321
     52 H           2.0648   -1.7196   -0.1453 H       1  LIG1        0.0321
     53 H          -0.7012    0.3119   -1.7418 H       1  LIG1        0.0320
     54 H          -0.1224   -1.3005   -2.0510 H       1  LIG1        0.0320
     55 H          -0.6406   -0.1610    0.6884 H       1  LIG1        0.0267
     56 H          -0.0056   -1.7819    0.3884 H       1  LIG1        0.0267
     57 H          -2.0355   -2.3848   -0.9244 H       1  LIG1        0.0265
     58 H          -2.7248   -0.7994   -0.6177 H       1  LIG1        0.0265
     59 H          -2.0326   -2.9375    1.4612 H       1  LIG1        0.0265
     60 H          -3.6580   -2.5496    0.9103 H       1  LIG1        0.0265
     61 H          -1.7399   -0.8736    2.4389 H       1  LIG1        0.0265
     62 H          -3.1659   -1.5682    3.1360 H       1  LIG1        0.0265
     63 H          -4.5750   -0.0905    1.6788 H       1  LIG1        0.0265
     64 H          -3.1347    0.6908    1.0424 H       1  LIG1        0.0265
     65 H          -4.0434    0.6913    3.9606 H       1  LIG1        0.0265
     66 H          -4.2216    1.9871    2.8015 H       1  LIG1        0.0265
     67 H          -2.4985    2.5215    4.2912 H       1  LIG1        0.0265
     68 H          -1.8443    2.4193    2.6903 H       1  LIG1        0.0265
     69 H          -0.7060    0.2544    3.2664 H       1  LIG1        0.0265
     70 H          -1.4267    0.2502    4.8534 H       1  LIG1        0.0265
     71 H           0.5831    2.1125    3.5304 H       1  LIG1        0.0265
     72 H           0.9213    0.9575    4.7985 H       1  LIG1        0.0265
     73 H          -0.7477    3.5173    5.0964 H       1  LIG1        0.0269
     74 H           0.9324    3.3121    5.5209 H       1  LIG1        0.0269
     75 H          -0.3480    3.2656    7.5041 H       1  LIG1        0.0341
     76 H           0.3893    1.6732    7.2729 H       1  LIG1        0.0341
     77 H          -1.7801    0.2374    8.6973 H       1  LIG1        0.0306
     78 H          -3.0792    1.4601    8.8024 H       1  LIG1        0.0306
     79 H          -1.4329    1.8947    9.2946 H       1  LIG1        0.0306
@<TRIPOS>BOND
     1     1     2    1
     2     2     3    1
     3     2     4    1
     4     4     5    1
     5     4     6    1
     6     6     7    1
     7     7     8    1
     8     8     9    1
     9     9    10    1
    10     9    11    1
    11     9    12    1
    12     7    13    2
    13     4    14    1
    14    14    15    1
    15    15    16    1
    16    18    19    1
    17    19    20    1
    18    20    21    1
    19    21    22    1
    20    22    23    1
    21    23    24    1
    22    24    25    1
    23    25    26    1
    24    26    27    1
    25    27    28    1
    26    28    29    1
    27    29    30    1
    28    30    31    1
    29    30    32    2
    30    16    33    1
    31    33    34    1
    32     2    33    1
    33    33    35    1
    34    16    18    1
    35    16    17    1
    36     1    37    1
    37     1    38    1
    38     1    39    1
    39    10    40    1
    40    10    41    1
    41    10    42    1
    42    11    43    1
    43    11    44    1
    44    11    45    1
    45    12    46    1
    46    12    47    1
    47    12    48    1
    48    14    49    1
    49    14    50    1
    50    15    51    1
    51    15    52    1
    52    18    53    1
    53    18    54    1
    54    19    55    1
    55    19    56    1
    56    20    57    1
    57    20    58    1
    58    21    59    1
    59    21    60    1
    60    22    61    1
    61    22    62    1
    62    23    63    1
    63    23    64    1
    64    24    65    1
    65    24    66    1
    66    25    67    1
    67    25    68    1
    68    26    69    1
    69    26    70    1
    70    27    71    1
    71    27    72    1
    72    28    73    1
    73    28    74    1
    74    29    75    1
    75    29    76    1
    76    31    77    1
    77    31    78    1
    78    31    79    1
