@<TRIPOS>MOLECULE
NuBBE_266
 74 77 0 0 0
SMALL
GASTEIGER

@<TRIPOS>ATOM
      1 H          -1.8036   -1.2163   -3.1533 H       1  LIG1        0.1490
      2 N          -1.2004   -1.0666   -2.3509 N.am    1  LIG1       -0.3112
      3 C          -0.3525    0.0170   -2.2855 C.2     1  LIG1        0.2243
      4 O          -0.1689    0.8159   -3.1833 O.2     1  LIG1       -0.2750
      5 C          -1.2752   -1.7880   -1.1073 C.3     1  LIG1        0.0315
      6 C          -1.7542   -3.2384   -1.2711 C.3     1  LIG1       -0.0089
      7 C          -3.1415   -3.4097   -1.8738 C.ar    1  LIG1       -0.0456
      8 C          -3.4304   -4.5879   -2.5804 C.ar    1  LIG1       -0.0585
      9 C          -4.6890   -4.7915   -3.1522 C.ar    1  LIG1       -0.0615
     10 C          -5.6847   -3.8288   -3.0124 C.ar    1  LIG1       -0.0617
     11 C          -5.4249   -2.6679   -2.2918 C.ar    1  LIG1       -0.0615
     12 C          -4.1670   -2.4639   -1.7196 C.ar    1  LIG1       -0.0585
     13 H          -2.0202   -1.2752   -0.4960 H       1  LIG1        0.0505
     14 C           0.1234   -1.4798   -0.4872 C.3     1  LIG1        0.0024
     15 C           0.2856    0.0540   -0.8957 C.3     1  LIG1        0.1011
     16 C          -0.6395    1.0202    0.0048 C.3     1  LIG1        0.1361
     17 H          -1.3601    0.3980    0.5481 H       1  LIG1        0.0790
     18 C           0.0168    1.9152    1.0603 C.2     1  LIG1       -0.0438
     19 C           0.0492    1.6502    2.3790 C.2     1  LIG1       -0.0464
     20 C           0.6196    2.4304    3.5440 C.3     1  LIG1        0.1392
     21 O           1.1359    1.4295    4.4405 O.3     1  LIG1       -0.3773
     22 C          -0.5749    3.0968    4.2595 C.3     1  LIG1       -0.0254
     23 O          -1.3572    2.0015   -0.7858 O.3     1  LIG1       -0.4563
     24 C          -2.7139    1.9084   -0.8270 C.2     1  LIG1        0.3045
     25 C          -3.3140    3.2180   -1.2468 C.3     1  LIG1        0.0333
     26 O          -3.3723    0.9260   -0.5168 O.2     1  LIG1       -0.2511
     27 C           1.7735    0.4884   -1.0067 C.3     1  LIG1        0.0250
     28 H           1.7912    1.4723   -1.4968 H       1  LIG1        0.0383
     29 C           2.4150    0.5972    0.3665 C.2     1  LIG1       -0.0810
     30 C           3.2003    1.6170    0.7289 C.2     1  LIG1       -0.0869
     31 C           3.4710    1.9391    2.1704 C.3     1  LIG1       -0.0254
     32 C           2.9348    3.3560    2.4343 C.3     1  LIG1        0.0213
     33 H           2.5490    3.8101    1.5113 H       1  LIG1        0.0379
     34 C           4.1176    4.2355    2.8792 C.3     1  LIG1       -0.0553
     35 C           1.7751    3.4881    3.4315 C.2     1  LIG1        0.1713
     36 O           1.7680    4.4624    4.2024 O.2     1  LIG1       -0.2937
     37 C           2.6260   -0.4751   -1.8558 C.3     1  LIG1        0.0836
     38 H           3.6443   -0.0713   -1.9271 H       1  LIG1        0.0646
     39 O           2.1735   -0.6332   -3.1911 O.3     1  LIG1       -0.3869
     40 H           0.0730   -1.5642    0.6062 H       1  LIG1        0.0336
     41 C           1.2457   -2.4631   -1.0168 C.3     1  LIG1       -0.0149
     42 H           0.9531   -2.8146   -2.0150 H       1  LIG1        0.0347
     43 C           1.3128   -3.7056   -0.1043 C.3     1  LIG1       -0.0583
     44 C           2.6266   -1.8382   -1.2119 C.2     1  LIG1       -0.0448
     45 C           3.8023   -2.3920   -0.8544 C.2     1  LIG1       -0.0967
     46 H          -1.0499   -3.7882   -1.9063 H       1  LIG1        0.0331
     47 H          -1.7732   -3.7236   -0.2881 H       1  LIG1        0.0331
     48 H          -2.6708   -5.3580   -2.6979 H       1  LIG1        0.0620
     49 H          -4.8908   -5.7027   -3.7089 H       1  LIG1        0.0618
     50 H          -6.6626   -3.9838   -3.4598 H       1  LIG1        0.0618
     51 H          -6.1998   -1.9147   -2.1715 H       1  LIG1        0.0618
     52 H          -4.0167   -1.5436   -1.1610 H       1  LIG1        0.0620
     53 H           0.4495    2.8392    0.6817 H       1  LIG1        0.0607
     54 H          -0.4335    0.7243    2.6990 H       1  LIG1        0.0603
     55 H           1.2984    1.8752    5.2929 H       1  LIG1        0.2112
     56 H          -0.9903    3.9177    3.6635 H       1  LIG1        0.0265
     57 H          -0.2819    3.5060    5.2348 H       1  LIG1        0.0265
     58 H          -1.3743    2.3768    4.4705 H       1  LIG1        0.0265
     59 H          -3.7116    3.1460   -2.2601 H       1  LIG1        0.0342
     60 H          -2.5636    4.0134   -1.2049 H       1  LIG1        0.0342
     61 H          -4.1077    3.4843   -0.5415 H       1  LIG1        0.0342
     62 H           2.0997   -0.1214    1.1239 H       1  LIG1        0.0573
     63 H           3.5354    2.3372   -0.0154 H       1  LIG1        0.0569
     64 H           4.5547    1.8734    2.3257 H       1  LIG1        0.0314
     65 H           3.0260    1.1972    2.8389 H       1  LIG1        0.0314
     66 H           4.5050    3.9114    3.8521 H       1  LIG1        0.0237
     67 H           3.8234    5.2863    2.9689 H       1  LIG1        0.0237
     68 H           4.9362    4.1875    2.1519 H       1  LIG1        0.0237
     69 H           1.8288    0.2238   -3.5095 H       1  LIG1        0.2102
     70 H           1.7080   -3.4467    0.8853 H       1  LIG1        0.0236
     71 H           1.9546   -4.4810   -0.5381 H       1  LIG1        0.0236
     72 H           0.3377   -4.1676    0.0503 H       1  LIG1        0.0236
     73 H           3.8877   -3.3684   -0.3932 H       1  LIG1        0.0535
     74 H           4.7428   -1.8764   -1.0333 H       1  LIG1        0.0535
@<TRIPOS>BOND
     1     2     3   am
     2     2     5    1
     3     6     7    1
     4     7     8   ar
     5     8     9   ar
     6     9    10   ar
     7    10    11   ar
     8    11    12   ar
     9     7    12   ar
    10     5    14    1
    11    14    15    1
    12     3    15    1
    13    15    16    1
    14    16    18    1
    15    18    19    2
    16    19    20    1
    17    23    24    1
    18    24    25    1
    19    24    26    2
    20    15    27    1
    21    27    29    1
    22    29    30    2
    23    30    31    1
    24    31    32    1
    25    32    35    1
    26    20    35    1
    27    27    37    1
    28    14    41    1
    29    41    44    1
    30    37    44    1
    31     1     2    1
    32     3     4    2
    33     5     6    1
    34     5    13    1
    35    14    40    1
    36    27    28    1
    37    35    36    2
    38    37    38    1
    39    37    39    1
    40    44    45    2
    41    16    23    1
    42    16    17    1
    43    20    22    1
    44    20    21    1
    45    32    34    1
    46    32    33    1
    47    41    43    1
    48    41    42    1
    49     6    46    1
    50     6    47    1
    51     8    48    1
    52     9    49    1
    53    10    50    1
    54    11    51    1
    55    12    52    1
    56    18    53    1
    57    19    54    1
    58    21    55    1
    59    22    56    1
    60    22    57    1
    61    22    58    1
    62    25    59    1
    63    25    60    1
    64    25    61    1
    65    29    62    1
    66    30    63    1
    67    31    64    1
    68    31    65    1
    69    34    66    1
    70    34    67    1
    71    34    68    1
    72    39    69    1
    73    43    70    1
    74    43    71    1
    75    43    72    1
    76    45    73    1
    77    45    74    1
