@<TRIPOS>MOLECULE
NuBBE_1801
 71 71 0 0 0
SMALL
GASTEIGER

@<TRIPOS>ATOM
      1 O          -3.9907    0.2157    1.8268 O.2     1  LIG1       -0.2505
      2 C          -2.7734    0.0397    1.7736 C.2     1  LIG1        0.3107
      3 O          -2.1895   -1.0777    1.2548 O.3     1  LIG1       -0.4611
      4 C          -1.7332    0.9922    2.2973 C.3     1  LIG1        0.0622
      5 C          -1.6693    0.8757    3.8258 C.3     1  LIG1       -0.0114
      6 C          -0.6426    1.7734    4.5412 C.3     1  LIG1        0.0830
      7 O           0.6668    1.4545    4.0610 O.3     1  LIG1       -0.3716
      8 C           1.7676    2.1673    4.6268 C.3     1  LIG1        0.0535
      9 C           1.8510    1.9742    6.1362 C.3     1  LIG1       -0.0389
     10 C           3.0479    1.6438    3.9759 C.3     1  LIG1       -0.0389
     11 C          -1.0193    3.2676    4.4852 C.3     1  LIG1        0.0742
     12 O          -1.1100    3.7843    3.1582 O.3     1  LIG1       -0.3746
     13 C          -1.4343    5.1806    3.1069 C.3     1  LIG1        0.0532
     14 C          -1.5266    5.5860    1.6382 C.3     1  LIG1       -0.0390
     15 C          -2.7552    5.5011    3.8066 C.3     1  LIG1       -0.0390
     16 C          -0.5227    0.5030    1.5316 C.3     1  LIG1       -0.0027
     17 C          -0.7753   -0.9840    1.4588 C.3     1  LIG1        0.1038
     18 C          -0.0067   -1.6202    0.3123 C.3     1  LIG1       -0.0156
     19 C          -0.2689   -3.1235    0.1862 C.3     1  LIG1       -0.0497
     20 C           0.5280   -3.7554   -0.9613 C.3     1  LIG1       -0.0529
     21 C           0.1587   -3.1377   -2.3116 C.3     1  LIG1       -0.0531
     22 C           0.9261   -3.7479   -3.4816 C.3     1  LIG1       -0.0531
     23 C           0.5014   -3.0727   -4.7944 C.3     1  LIG1       -0.0531
     24 C           1.2479   -3.6348   -6.0075 C.3     1  LIG1       -0.0531
     25 C           0.8245   -2.9559   -7.3203 C.3     1  LIG1       -0.0533
     26 C           1.5688   -3.5433   -8.5257 C.3     1  LIG1       -0.0559
     27 C           1.1702   -2.8885   -9.8423 C.3     1  LIG1       -0.0653
     28 H          -2.0027    1.9971    1.9721 H       1  LIG1        0.0415
     29 H          -1.4597   -0.1673    4.1011 H       1  LIG1        0.0299
     30 H          -2.6662    1.0865    4.2377 H       1  LIG1        0.0299
     31 H          -0.6858    1.4761    5.5964 H       1  LIG1        0.0619
     32 H           1.6804    3.2302    4.3795 H       1  LIG1        0.0590
     33 H           2.7602    2.4266    6.5424 H       1  LIG1        0.0254
     34 H           1.8361    0.9090    6.3898 H       1  LIG1        0.0254
     35 H           1.0002    2.4391    6.6427 H       1  LIG1        0.0254
     36 H           3.0413    0.5510    3.9008 H       1  LIG1        0.0254
     37 H           3.9365    1.9538    4.5362 H       1  LIG1        0.0254
     38 H           3.1458    2.0324    2.9563 H       1  LIG1        0.0254
     39 H          -0.2974    3.8698    5.0437 H       1  LIG1        0.0586
     40 H          -1.9935    3.3578    4.9726 H       1  LIG1        0.0586
     41 H          -0.6187    5.7440    3.5749 H       1  LIG1        0.0590
     42 H          -2.2640    4.9743    1.1059 H       1  LIG1        0.0254
     43 H          -0.5669    5.4363    1.1332 H       1  LIG1        0.0254
     44 H          -1.8096    6.6391    1.5362 H       1  LIG1        0.0254
     45 H          -3.5623    4.8641    3.4287 H       1  LIG1        0.0254
     46 H          -3.0323    6.5503    3.6709 H       1  LIG1        0.0254
     47 H          -2.6863    5.3280    4.8852 H       1  LIG1        0.0254
     48 H           0.4581    0.7362    1.9434 H       1  LIG1        0.0309
     49 H          -0.5513    0.9523    0.5299 H       1  LIG1        0.0309
     50 H          -0.5295   -1.4893    2.3995 H       1  LIG1        0.0734
     51 H           1.0676   -1.4481    0.4498 H       1  LIG1        0.0301
     52 H          -0.3091   -1.1162   -0.6111 H       1  LIG1        0.0301
     53 H          -1.3379   -3.3082    0.0258 H       1  LIG1        0.0266
     54 H           0.0022   -3.6218    1.1251 H       1  LIG1        0.0266
     55 H           0.3236   -4.8329   -0.9796 H       1  LIG1        0.0265
     56 H           1.6019   -3.6378   -0.7716 H       1  LIG1        0.0265
     57 H           0.3747   -2.0648   -2.3029 H       1  LIG1        0.0265
     58 H          -0.9203   -3.2494   -2.4734 H       1  LIG1        0.0265
     59 H           0.7352   -4.8258   -3.5278 H       1  LIG1        0.0265
     60 H           2.0023   -3.6099   -3.3202 H       1  LIG1        0.0265
     61 H           0.6825   -1.9929   -4.7200 H       1  LIG1        0.0265
     62 H          -0.5786   -3.2065   -4.9324 H       1  LIG1        0.0265
     63 H           1.0593   -4.7125   -6.0767 H       1  LIG1        0.0265
     64 H           2.3263   -3.5015   -5.8610 H       1  LIG1        0.0265
     65 H           1.0211   -1.8787   -7.2570 H       1  LIG1        0.0265
     66 H          -0.2556   -3.0786   -7.4658 H       1  LIG1        0.0265
     67 H           1.3624   -4.6173   -8.5972 H       1  LIG1        0.0263
     68 H           2.6503   -3.4301   -8.3870 H       1  LIG1        0.0263
     69 H           0.0982   -3.0019  -10.0320 H       1  LIG1        0.0230
     70 H           1.7081   -3.3594  -10.6728 H       1  LIG1        0.0230
     71 H           1.4122   -1.8209   -9.8498 H       1  LIG1        0.0230
@<TRIPOS>BOND
     1     1     2    2
     2     2     3    1
     3     2     4    1
     4     4     5    1
     5     5     6    1
     6     6     7    1
     7     7     8    1
     8     8     9    1
     9     8    10    1
    10     6    11    1
    11    11    12    1
    12    12    13    1
    13    13    14    1
    14    13    15    1
    15     4    16    1
    16    16    17    1
    17     3    17    1
    18    17    18    1
    19    18    19    1
    20    19    20    1
    21    20    21    1
    22    21    22    1
    23    22    23    1
    24    23    24    1
    25    24    25    1
    26    25    26    1
    27    26    27    1
    28     4    28    1
    29     5    29    1
    30     5    30    1
    31     6    31    1
    32     8    32    1
    33     9    33    1
    34     9    34    1
    35     9    35    1
    36    10    36    1
    37    10    37    1
    38    10    38    1
    39    11    39    1
    40    11    40    1
    41    13    41    1
    42    14    42    1
    43    14    43    1
    44    14    44    1
    45    15    45    1
    46    15    46    1
    47    15    47    1
    48    16    48    1
    49    16    49    1
    50    17    50    1
    51    18    51    1
    52    18    52    1
    53    19    53    1
    54    19    54    1
    55    20    55    1
    56    20    56    1
    57    21    57    1
    58    21    58    1
    59    22    59    1
    60    22    60    1
    61    23    61    1
    62    23    62    1
    63    24    63    1
    64    24    64    1
    65    25    65    1
    66    25    66    1
    67    26    67    1
    68    26    68    1
    69    27    69    1
    70    27    70    1
    71    27    71    1
