@<TRIPOS>MOLECULE
NuBBE_115
 165 173 0 0 0
SMALL
GASTEIGER

@<TRIPOS>ATOM
      1 C           3.2537   -3.6414   -2.8802 C.3     1  LIG1       -0.0590
      2 C           2.6096   -2.5763   -1.9463 C.3     1  LIG1       -0.0250
      3 C           1.3904   -1.9708   -2.6343 C.3     1  LIG1       -0.0278
      4 C           1.8052   -1.0103   -3.8154 C.3     1  LIG1       -0.0052
      5 C           3.1180   -1.2904   -4.6416 C.3     1  LIG1       -0.0572
      6 C           2.0449    0.3389   -3.0272 C.3     1  LIG1        0.0672
      7 H           2.2917    1.1397   -3.7384 H       1  LIG1        0.0602
      8 C           3.2197    0.0862   -2.0213 C.3     1  LIG1       -0.0255
      9 C           3.6161   -1.3841   -1.6395 C.3     1  LIG1       -0.0447
     10 O           0.8424    0.7399   -2.2980 O.3     1  LIG1       -0.3449
     11 C           0.8375    2.0774   -1.7386 C.3     1  LIG1        0.1886
     12 H           1.3100    2.6862   -2.4982 H       1  LIG1        0.0938
     13 O           1.6946    2.2316   -0.5890 O.3     1  LIG1       -0.3405
     14 C           1.0606    2.2587    0.6867 C.3     1  LIG1        0.1130
     15 H           0.6879    3.2801    0.8350 H       1  LIG1        0.0647
     16 C          -0.1253    1.3151    0.6707 C.3     1  LIG1        0.1119
     17 H           0.0779    0.3551    0.1713 H       1  LIG1        0.0647
     18 C          -1.1989    2.0959   -0.0878 C.3     1  LIG1        0.1144
     19 H          -1.4988    2.9823    0.4937 H       1  LIG1        0.0648
     20 C          -0.6782    2.5051   -1.4945 C.3     1  LIG1        0.1406
     21 H          -1.3348    1.9947   -2.2111 H       1  LIG1        0.0675
     22 O          -0.8996    3.9450   -1.6829 O.3     1  LIG1       -0.3377
     23 C          -0.6349    4.3363   -3.0446 C.3     1  LIG1        0.1889
     24 H          -0.8211    3.4562   -3.6525 H       1  LIG1        0.0938
     25 O           0.7571    4.5765   -3.2157 O.3     1  LIG1       -0.3405
     26 C           1.1333    5.8451   -3.7356 C.3     1  LIG1        0.1130
     27 H           0.7719    5.8945   -4.7710 H       1  LIG1        0.0647
     28 C           0.4602    6.8934   -2.8656 C.3     1  LIG1        0.1119
     29 H           0.5029    6.6216   -1.8024 H       1  LIG1        0.0647
     30 C          -1.0031    6.9203   -3.3242 C.3     1  LIG1        0.1144
     31 H          -1.0512    7.4556   -4.2837 H       1  LIG1        0.0648
     32 C          -1.6036    5.4787   -3.5058 C.3     1  LIG1        0.1406
     33 H          -2.5480    5.4311   -2.9539 H       1  LIG1        0.0675
     34 O          -1.9331    5.3509   -4.9254 O.3     1  LIG1       -0.3378
     35 C          -2.5258    4.1137   -5.3717 C.3     1  LIG1        0.1884
     36 H          -1.8170    3.2917   -5.2606 H       1  LIG1        0.0938
     37 O          -2.7459    4.1630   -6.7930 O.3     1  LIG1       -0.3431
     38 C          -3.6929    5.1458   -7.2073 C.3     1  LIG1        0.0873
     39 H          -3.2566    6.1315   -7.0081 H       1  LIG1        0.0621
     40 C          -5.0512    5.0139   -6.4820 C.3     1  LIG1        0.1095
     41 H          -5.6112    4.1513   -6.8656 H       1  LIG1        0.0646
     42 C          -4.8525    4.8546   -4.9661 C.3     1  LIG1        0.1140
     43 H          -4.5234    5.8110   -4.5433 H       1  LIG1        0.0648
     44 C          -3.8374    3.7611   -4.6532 C.3     1  LIG1        0.1341
     45 H          -3.6946    3.6797   -3.5705 H       1  LIG1        0.0671
     46 O          -4.3373    2.4850   -5.0776 O.3     1  LIG1       -0.3841
     47 O          -6.0799    4.5162   -4.3063 O.3     1  LIG1       -0.3864
     48 O          -5.8663    6.1726   -6.7160 O.3     1  LIG1       -0.3866
     49 C          -3.8564    5.0358   -8.7265 C.3     1  LIG1       -0.0361
     50 O          -1.7162    7.7684   -2.4068 O.3     1  LIG1       -0.3864
     51 O           1.0563    8.1845   -2.9798 O.3     1  LIG1       -0.3865
     52 C           2.6602    5.9422   -3.8229 C.3     1  LIG1        0.0730
     53 O           3.2992    5.9153   -2.5514 O.3     1  LIG1       -0.3924
     54 O          -2.3948    1.2984   -0.1471 O.3     1  LIG1       -0.3864
     55 O          -0.6096    1.0480    1.9752 O.3     1  LIG1       -0.3865
     56 C           2.0408    2.0756    1.8587 C.3     1  LIG1        0.0730
     57 O           2.7847    0.8645    1.8009 O.3     1  LIG1       -0.3924
     58 C           0.7266   -1.0665   -4.9102 C.3     1  LIG1       -0.0572
     59 C           0.2079   -2.9435   -2.7826 C.3     1  LIG1       -0.0486
     60 C          -0.3002   -3.3135   -1.3764 C.3     1  LIG1       -0.0463
     61 C           0.7902   -4.0088   -0.5183 C.3     1  LIG1       -0.0194
     62 C           2.1492   -3.2085   -0.5873 C.3     1  LIG1       -0.0257
     63 C           3.2683   -4.0485    0.0322 C.3     1  LIG1       -0.0306
     64 C           2.8845   -4.5362    1.3733 C.2     1  LIG1       -0.0835
     65 C           1.6567   -4.4823    1.9207 C.2     1  LIG1       -0.0602
     66 C           0.4003   -4.1317    1.0664 C.3     1  LIG1       -0.0050
     67 C          -0.2115   -2.8298    1.6710 C.3     1  LIG1       -0.0424
     68 C           0.5975   -2.2158    2.8096 C.3     1  LIG1       -0.0358
     69 C           0.9622   -3.1685    3.9714 C.3     1  LIG1        0.0769
     70 C           1.4587   -4.5763    3.4523 C.3     1  LIG1        0.0252
     71 C           2.6916   -5.1211    4.3009 C.3     1  LIG1        0.0733
     72 O           3.1643   -6.3394    3.6845 O.3     1  LIG1       -0.3880
     73 C           3.8895   -4.1029    4.3761 C.3     1  LIG1       -0.0146
     74 H           4.5824   -4.2910    3.5484 H       1  LIG1        0.0326
     75 C           3.4513   -2.6366    4.2503 C.3     1  LIG1       -0.0468
     76 C           2.0572   -2.4130    4.7992 C.3     1  LIG1       -0.0363
     77 C           4.7966   -4.2783    5.5987 C.3     1  LIG1       -0.0598
     78 C           2.2172   -5.6028    5.6828 C.3     1  LIG1       -0.0352
     79 C          -0.2537   -3.3224    4.9154 C.2     1  LIG1        0.3162
     80 O          -1.3294   -2.6812    4.5110 O.3     1  LIG1       -0.4318
     81 C          -1.8138   -1.6156    5.3719 C.3     1  LIG1        0.2337
     82 H          -0.9783   -0.9102    5.5164 H       1  LIG1        0.1085
     83 O          -2.2356   -2.1242    6.6315 O.3     1  LIG1       -0.3312
     84 C          -2.7508   -1.1125    7.4959 C.3     1  LIG1        0.1140
     85 H          -2.0108   -0.3109    7.6317 H       1  LIG1        0.0647
     86 C          -4.0353   -0.5229    6.8932 C.3     1  LIG1        0.1120
     87 H          -4.7941   -1.3035    6.7578 H       1  LIG1        0.0647
     88 C          -3.6921    0.0864    5.5335 C.3     1  LIG1        0.1152
     89 H          -3.0829    0.9908    5.6635 H       1  LIG1        0.0648
     90 C          -2.9727   -0.9191    4.6366 C.3     1  LIG1        0.1455
     91 H          -3.6837   -1.6741    4.2772 H       1  LIG1        0.0683
     92 O          -2.5036   -0.2382    3.4648 O.3     1  LIG1       -0.3829
     93 O          -4.8875    0.5304    4.8684 O.3     1  LIG1       -0.3864
     94 O          -4.6179    0.5086    7.6949 O.3     1  LIG1       -0.3865
     95 C          -2.9878   -1.7596    8.8616 C.3     1  LIG1        0.0731
     96 O          -3.5048   -0.8081    9.7863 O.3     1  LIG1       -0.3924
     97 O          -0.2043   -3.9355    6.0438 O.2     1  LIG1       -0.2501
     98 C          -0.6860   -5.2328    1.2357 C.3     1  LIG1       -0.0553
     99 C           0.9256   -5.4332   -1.1450 C.3     1  LIG1       -0.0585
    100 H           4.2705   -3.3773   -3.1818 H       1  LIG1        0.0235
    101 H           2.6655   -3.7885   -3.7910 H       1  LIG1        0.0235
    102 H           3.3203   -4.6417   -2.4584 H       1  LIG1        0.0235
    103 H           0.9739   -1.3187   -1.8571 H       1  LIG1        0.0312
    104 H           4.0562   -1.2341   -4.0856 H       1  LIG1        0.0236
    105 H           3.2335   -0.5410   -5.4362 H       1  LIG1        0.0236
    106 H           3.0988   -2.2597   -5.1485 H       1  LIG1        0.0236
    107 H           3.0410    0.5864   -1.0715 H       1  LIG1        0.0290
    108 H           4.1172    0.5724   -2.4280 H       1  LIG1        0.0290
    109 H           3.8515   -1.3541   -0.5668 H       1  LIG1        0.0271
    110 H           4.5937   -1.5913   -2.0906 H       1  LIG1        0.0271
    111 H          -5.2780    2.4659   -4.8064 H       1  LIG1        0.2101
    112 H          -6.6390    5.3206   -4.3220 H       1  LIG1        0.2100
    113 H          -5.3677    6.9557   -6.4210 H       1  LIG1        0.2100
    114 H          -4.5069    4.1970   -9.0038 H       1  LIG1        0.0255
    115 H          -2.8924    4.8584   -9.2170 H       1  LIG1        0.0255
    116 H          -4.2923    5.9511   -9.1407 H       1  LIG1        0.0255
    117 H          -2.5682    7.3664   -2.1736 H       1  LIG1        0.2100
    118 H           0.5046    8.7750   -2.4276 H       1  LIG1        0.2100
    119 H           2.9604    6.8572   -4.3448 H       1  LIG1        0.0584
    120 H           3.0455    5.0904   -4.3937 H       1  LIG1        0.0584
    121 H           3.0450    6.7355   -2.0924 H       1  LIG1        0.2095
    122 H          -2.4619    0.8804    0.7410 H       1  LIG1        0.2100
    123 H          -0.1805    0.2177    2.2485 H       1  LIG1        0.2100
    124 H           1.5239    2.1312    2.8277 H       1  LIG1        0.0584
    125 H           2.7620    2.8993    1.8536 H       1  LIG1        0.0584
    126 H           2.2766    0.1775    2.2644 H       1  LIG1        0.2095
    127 H          -0.2829   -0.8433   -4.5653 H       1  LIG1        0.0236
    128 H           0.7207   -2.0952   -5.3124 H       1  LIG1        0.0236
    129 H           0.9477   -0.4174   -5.7628 H       1  LIG1        0.0236
    130 H           0.4712   -3.8283   -3.3645 H       1  LIG1        0.0268
    131 H          -0.6396   -2.4733   -3.2883 H       1  LIG1        0.0268
    132 H          -1.1929   -3.9432   -1.4663 H       1  LIG1        0.0271
    133 H          -0.6578   -2.3873   -0.9181 H       1  LIG1        0.0271
    134 H           1.9903   -2.3391    0.0718 H       1  LIG1        0.0315
    135 H           4.1757   -3.4421    0.1338 H       1  LIG1        0.0310
    136 H           3.5493   -4.9229   -0.5571 H       1  LIG1        0.0310
    137 H           3.7477   -4.8784    1.9178 H       1  LIG1        0.0572
    138 H          -1.2322   -3.0185    2.0269 H       1  LIG1        0.0274
    139 H          -0.3284   -2.0372    0.9313 H       1  LIG1        0.0274
    140 H           0.0597   -1.3604    3.2075 H       1  LIG1        0.0276
    141 H           1.5106   -1.7878    2.3623 H       1  LIG1        0.0276
    142 H           0.6564   -5.3169    3.5892 H       1  LIG1        0.0384
    143 H           3.9963   -6.5972    4.1135 H       1  LIG1        0.2102
    144 H           3.4853   -2.3360    3.1945 H       1  LIG1        0.0269
    145 H           4.1616   -1.9701    4.7538 H       1  LIG1        0.0269
    146 H           1.8366   -1.3366    4.8095 H       1  LIG1        0.0276
    147 H           2.0401   -2.7000    5.8592 H       1  LIG1        0.0276
    148 H           5.1552   -5.3089    5.6761 H       1  LIG1        0.0233
    149 H           4.2854   -4.0037    6.5250 H       1  LIG1        0.0233
    150 H           5.6807   -3.6360    5.5059 H       1  LIG1        0.0233
    151 H           1.9718   -4.7871    6.3606 H       1  LIG1        0.0257
    152 H           2.9757   -6.2210    6.1743 H       1  LIG1        0.0257
    153 H           1.3388   -6.2507    5.5772 H       1  LIG1        0.0257
    154 H          -3.2652    0.2928    3.1563 H       1  LIG1        0.2102
    155 H          -5.4119    0.9819    5.5615 H       1  LIG1        0.2100
    156 H          -4.5061    0.2340    8.6325 H       1  LIG1        0.2100
    157 H          -2.0428   -2.1583    9.2483 H       1  LIG1        0.0584
    158 H          -3.6895   -2.5963    8.7806 H       1  LIG1        0.0584
    159 H          -3.4276   -1.2170   10.6691 H       1  LIG1        0.2095
    160 H          -1.0776   -5.2769    2.2581 H       1  LIG1        0.0238
    161 H          -0.3061   -6.2331    1.0065 H       1  LIG1        0.0238
    162 H          -1.5473   -5.0346    0.5866 H       1  LIG1        0.0238
    163 H           1.3362   -5.4076   -2.1552 H       1  LIG1        0.0235
    164 H          -0.0564   -5.9124   -1.2452 H       1  LIG1        0.0235
    165 H           1.5499   -6.1055   -0.5524 H       1  LIG1        0.0235
@<TRIPOS>BOND
     1     2     3    1
     2     3     4    1
     3     4     6    1
     4     6     8    1
     5     8     9    1
     6     2     9    1
     7    11    13    1
     8    13    14    1
     9    14    15    1
    10    14    16    1
    11    16    18    1
    12    18    19    1
    13    18    20    1
    14    11    20    1
    15    23    25    1
    16    25    26    1
    17    26    27    1
    18    26    28    1
    19    28    30    1
    20    30    31    1
    21    30    32    1
    22    23    32    1
    23    35    37    1
    24    37    38    1
    25    38    40    1
    26    40    41    1
    27    40    42    1
    28    42    44    1
    29    35    44    1
    30    40    48    1
    31    30    50    1
    32    26    52    1
    33    52    53    1
    34    18    54    1
    35    14    56    1
    36    56    57    1
    37     3    59    1
    38    59    60    1
    39    60    61    1
    40    61    62    1
    41     2    62    1
    42    62    63    1
    43    63    64    1
    44    64    65    2
    45    65    66    1
    46    66    67    1
    47    67    68    1
    48    68    69    1
    49    69    70    1
    50    65    70    1
    51    70    71    1
    52    71    73    1
    53    73    75    1
    54    75    76    1
    55    76    69    1
    56    79    80    1
    57    81    83    1
    58    83    84    1
    59    84    85    1
    60    84    86    1
    61    86    88    1
    62    88    89    1
    63    88    90    1
    64    81    90    1
    65    88    93    1
    66    84    95    1
    67    95    96    1
    68    79    97    2
    69    61    66    1
    70     1     2    1
    71     4     5    1
    72     4    58    1
    73     6     7    1
    74     6    10    1
    75    61    99    1
    76    66    98    1
    77    69    79    1
    78    71    72    1
    79    71    78    1
    80    73    74    1
    81    73    77    1
    82    11    12    1
    83    11    10    1
    84    16    55    1
    85    16    17    1
    86    20    22    1
    87    20    21    1
    88    23    24    1
    89    23    22    1
    90    28    51    1
    91    28    29    1
    92    32    34    1
    93    32    33    1
    94    35    36    1
    95    35    34    1
    96    38    49    1
    97    38    39    1
    98    42    47    1
    99    42    43    1
   100    44    46    1
   101    44    45    1
   102    81    82    1
   103    81    80    1
   104    86    94    1
   105    86    87    1
   106    90    92    1
   107    90    91    1
   108     1   100    1
   109     1   101    1
   110     1   102    1
   111     3   103    1
   112     5   104    1
   113     5   105    1
   114     5   106    1
   115     8   107    1
   116     8   108    1
   117     9   109    1
   118     9   110    1
   119    46   111    1
   120    47   112    1
   121    48   113    1
   122    49   114    1
   123    49   115    1
   124    49   116    1
   125    50   117    1
   126    51   118    1
   127    52   119    1
   128    52   120    1
   129    53   121    1
   130    54   122    1
   131    55   123    1
   132    56   124    1
   133    56   125    1
   134    57   126    1
   135    58   127    1
   136    58   128    1
   137    58   129    1
   138    59   130    1
   139    59   131    1
   140    60   132    1
   141    60   133    1
   142    62   134    1
   143    63   135    1
   144    63   136    1
   145    64   137    1
   146    67   138    1
   147    67   139    1
   148    68   140    1
   149    68   141    1
   150    70   142    1
   151    72   143    1
   152    75   144    1
   153    75   145    1
   154    76   146    1
   155    76   147    1
   156    77   148    1
   157    77   149    1
   158    77   150    1
   159    78   151    1
   160    78   152    1
   161    78   153    1
   162    92   154    1
   163    93   155    1
   164    94   156    1
   165    95   157    1
   166    95   158    1
   167    96   159    1
   168    98   160    1
   169    98   161    1
   170    98   162    1
   171    99   163    1
   172    99   164    1
   173    99   165    1
