@<TRIPOS>MOLECULE
NuBBE_1666
 50 52 0 0 0
SMALL
GASTEIGER

@<TRIPOS>ATOM
      1 O          -2.0927   -1.9474    1.1780 O.2     1  LIG1       -0.2918
      2 C          -2.4631   -0.8729    0.6936 C.2     1  LIG1        0.1663
      3 C          -3.8991   -0.7246    0.3125 C.ar    1  LIG1        0.0214
      4 C          -4.3163    0.1216   -0.7377 C.ar    1  LIG1       -0.0476
      5 C          -5.6738    0.2374   -1.0634 C.ar    1  LIG1       -0.0155
      6 C          -6.5777   -0.4995   -0.3296 C.ar    1  LIG1        0.1663
      7 O          -7.9251   -0.5100   -0.5078 O.3     1  LIG1       -0.4526
      8 C          -8.3296   -1.4299    0.5284 C.3     1  LIG1        0.2332
      9 O          -7.2217   -1.9648    1.2820 O.3     1  LIG1       -0.4526
     10 C          -6.1754   -1.3310    0.6881 C.ar    1  LIG1        0.1669
     11 C          -4.8472   -1.4711    1.0303 C.ar    1  LIG1       -0.0057
     12 C          -1.5221    0.3288    0.5767 C.3     1  LIG1        0.0222
     13 H          -1.8515    0.9786   -0.2388 H       1  LIG1        0.0381
     14 C          -1.6453    1.1204    1.8841 C.3     1  LIG1       -0.0551
     15 C          -0.0563   -0.1051    0.2607 C.3     1  LIG1       -0.0303
     16 H           0.2708   -0.8392    1.0086 H       1  LIG1        0.0308
     17 C           0.0047   -0.7873   -1.1171 C.3     1  LIG1       -0.0615
     18 C           0.8947    1.1120    0.3186 C.3     1  LIG1       -0.0243
     19 C           2.3368    0.8684   -0.0470 C.ar    1  LIG1       -0.0434
     20 C           2.8883    1.5472   -1.1306 C.ar    1  LIG1       -0.0549
     21 C           4.2408    1.4151   -1.4320 C.ar    1  LIG1       -0.0160
     22 C           5.0811    0.5840   -0.6778 C.ar    1  LIG1        0.1615
     23 O           6.4078    0.4236   -0.9824 O.3     1  LIG1       -0.4915
     24 C           6.9190    1.1398   -2.1005 C.3     1  LIG1        0.0790
     25 C           4.5369   -0.1105    0.4187 C.ar    1  LIG1        0.1617
     26 O           5.1735   -0.9516    1.2981 O.3     1  LIG1       -0.4914
     27 C           6.5744   -1.1416    1.1627 C.3     1  LIG1        0.0790
     28 C           3.1680    0.0388    0.7175 C.ar    1  LIG1       -0.0131
     29 H          -3.6015    0.6801   -1.3342 H       1  LIG1        0.0626
     30 H          -6.0069    0.8792   -1.8720 H       1  LIG1        0.0655
     31 H          -8.8766   -2.2609    0.0682 H       1  LIG1        0.1166
     32 H          -9.0016   -0.9054    1.2177 H       1  LIG1        0.1166
     33 H          -4.5513   -2.1378    1.8348 H       1  LIG1        0.0662
     34 H          -2.6912    1.2326    2.1902 H       1  LIG1        0.0237
     35 H          -1.2353    2.1294    1.7733 H       1  LIG1        0.0237
     36 H          -1.1147    0.6202    2.7018 H       1  LIG1        0.0237
     37 H          -0.7031   -1.6193   -1.1857 H       1  LIG1        0.0233
     38 H           0.9984   -1.2048   -1.3092 H       1  LIG1        0.0233
     39 H          -0.2286   -0.0810   -1.9211 H       1  LIG1        0.0233
     40 H           0.9068    1.5349    1.3303 H       1  LIG1        0.0316
     41 H           0.4904    1.9038   -0.3275 H       1  LIG1        0.0316
     42 H           2.2777    2.2016   -1.7478 H       1  LIG1        0.0621
     43 H           4.6062    1.9946   -2.2718 H       1  LIG1        0.0655
     44 H           7.9187    0.7580   -2.3233 H       1  LIG1        0.0660
     45 H           7.0036    2.2048   -1.8598 H       1  LIG1        0.0660
     46 H           6.3140    0.9826   -2.9999 H       1  LIG1        0.0660
     47 H           6.8986   -1.8350    1.9455 H       1  LIG1        0.0660
     48 H           7.1185   -0.2038    1.3169 H       1  LIG1        0.0660
     49 H           6.8198   -1.6099    0.2048 H       1  LIG1        0.0660
     50 H           2.7581   -0.4931    1.5751 H       1  LIG1        0.0658
@<TRIPOS>BOND
     1     1     2    2
     2     2     3    1
     3     3     4   ar
     4     4     5   ar
     5     5     6   ar
     6     6     7    1
     7     7     8    1
     8     8     9    1
     9     6    10   ar
    10     9    10    1
    11    10    11   ar
    12     3    11   ar
    13     2    12    1
    14    12    13    1
    15    12    14    1
    16    12    15    1
    17    15    16    1
    18    15    17    1
    19    15    18    1
    20    18    19    1
    21    19    20   ar
    22    20    21   ar
    23    21    22   ar
    24    22    23    1
    25    23    24    1
    26    22    25   ar
    27    25    26    1
    28    26    27    1
    29    25    28   ar
    30    19    28   ar
    31     4    29    1
    32     5    30    1
    33     8    31    1
    34     8    32    1
    35    11    33    1
    36    14    34    1
    37    14    35    1
    38    14    36    1
    39    17    37    1
    40    17    38    1
    41    17    39    1
    42    18    40    1
    43    18    41    1
    44    20    42    1
    45    21    43    1
    46    24    44    1
    47    24    45    1
    48    24    46    1
    49    27    47    1
    50    27    48    1
    51    27    49    1
    52    28    50    1
