@<TRIPOS>MOLECULE
NuBBE_2362
 51 53 0 0 0
SMALL
GASTEIGER

@<TRIPOS>ATOM
      1 C          -3.9158   -1.6002    1.9700 C.3     1  LIG1       -0.0595
      2 C          -2.3696   -1.6674    1.9133 C.3     1  LIG1       -0.0312
      3 C          -2.0042   -3.1290    1.5581 C.3     1  LIG1       -0.0595
      4 C          -1.8390   -1.3556    3.3231 C.3     1  LIG1       -0.0476
      5 C          -0.3190   -1.2946    3.4030 C.3     1  LIG1       -0.0518
      6 C           0.3752   -0.8713    2.1087 C.3     1  LIG1       -0.0433
      7 C          -0.4495    0.0766    1.2027 C.3     1  LIG1       -0.0034
      8 C          -0.7135    1.4152    1.9506 C.3     1  LIG1       -0.0553
      9 C          -1.8479   -0.5992    0.8664 C.3     1  LIG1       -0.0262
     10 H          -2.5805    0.2232    0.8786 H       1  LIG1        0.0314
     11 C          -1.9033   -1.1554   -0.5692 C.3     1  LIG1       -0.0449
     12 C          -1.5521   -0.0799   -1.5793 C.3     1  LIG1       -0.0271
     13 C          -0.1517    0.4030   -1.3427 C.ar    1  LIG1       -0.0432
     14 C           0.3817    0.4685   -0.0459 C.ar    1  LIG1       -0.0345
     15 C           1.6956    0.9630    0.0890 C.ar    1  LIG1       -0.0159
     16 C           2.4484    1.3628   -1.0212 C.ar    1  LIG1        0.1206
     17 O           3.7200    1.8274   -0.8337 O.3     1  LIG1       -0.5065
     18 C           1.9215    1.3047   -2.3107 C.ar    1  LIG1       -0.0031
     19 C           2.6813    1.7288   -3.5568 C.3     1  LIG1       -0.0181
     20 C           3.9139    0.8570   -3.8110 C.3     1  LIG1       -0.0585
     21 C           3.0427    3.2164   -3.5453 C.3     1  LIG1       -0.0585
     22 C           0.6095    0.8268   -2.4495 C.ar    1  LIG1       -0.0514
     23 H          -4.2596   -0.6021    2.2643 H       1  LIG1        0.0235
     24 H          -4.3162   -2.3134    2.7000 H       1  LIG1        0.0235
     25 H          -4.3658   -1.8349    0.9997 H       1  LIG1        0.0235
     26 H          -0.9328   -3.2677    1.3957 H       1  LIG1        0.0235
     27 H          -2.5235   -3.4696    0.6557 H       1  LIG1        0.0235
     28 H          -2.3005   -3.8118    2.3636 H       1  LIG1        0.0235
     29 H          -2.1995   -2.0986    4.0472 H       1  LIG1        0.0271
     30 H          -2.2591   -0.4049    3.6718 H       1  LIG1        0.0271
     31 H           0.0738   -2.2746    3.7020 H       1  LIG1        0.0266
     32 H          -0.0411   -0.6065    4.2113 H       1  LIG1        0.0266
     33 H           0.6454   -1.7658    1.5329 H       1  LIG1        0.0274
     34 H           1.3353   -0.4277    2.3970 H       1  LIG1        0.0274
     35 H          -1.3746    1.3004    2.8115 H       1  LIG1        0.0238
     36 H          -1.1841    2.1498    1.2849 H       1  LIG1        0.0238
     37 H           0.2149    1.8640    2.3229 H       1  LIG1        0.0238
     38 H          -2.9087   -1.5280   -0.7952 H       1  LIG1        0.0271
     39 H          -1.2089   -1.9970   -0.6845 H       1  LIG1        0.0271
     40 H          -2.2450    0.7669   -1.5097 H       1  LIG1        0.0313
     41 H          -1.6449   -0.5034   -2.5866 H       1  LIG1        0.0313
     42 H           2.1355    1.0573    1.0770 H       1  LIG1        0.0657
     43 H           3.9340    1.7872    0.1117 H       1  LIG1        0.2921
     44 H           2.0202    1.5826   -4.4222 H       1  LIG1        0.0345
     45 H           4.6844    0.9913   -3.0456 H       1  LIG1        0.0235
     46 H           4.3653    1.1058   -4.7777 H       1  LIG1        0.0235
     47 H           3.6446   -0.2049   -3.8313 H       1  LIG1        0.0235
     48 H           3.7800    3.4609   -2.7746 H       1  LIG1        0.0235
     49 H           2.1551    3.8336   -3.3670 H       1  LIG1        0.0235
     50 H           3.4681    3.5134   -4.5102 H       1  LIG1        0.0235
     51 H           0.1640    0.7765   -3.4423 H       1  LIG1        0.0624
@<TRIPOS>BOND
     1     2     4    1
     2     4     5    1
     3     5     6    1
     4     6     7    1
     5     7     9    1
     6     2     9    1
     7     9    11    1
     8    11    12    1
     9    12    13    1
    10    13    14   ar
    11     7    14    1
    12    14    15   ar
    13    15    16   ar
    14    16    18   ar
    15    19    20    1
    16    19    21    1
    17    18    22   ar
    18    13    22   ar
    19     1     2    1
    20     2     3    1
    21     7     8    1
    22     9    10    1
    23    16    17    1
    24    18    19    1
    25     1    23    1
    26     1    24    1
    27     1    25    1
    28     3    26    1
    29     3    27    1
    30     3    28    1
    31     4    29    1
    32     4    30    1
    33     5    31    1
    34     5    32    1
    35     6    33    1
    36     6    34    1
    37     8    35    1
    38     8    36    1
    39     8    37    1
    40    11    38    1
    41    11    39    1
    42    12    40    1
    43    12    41    1
    44    15    42    1
    45    17    43    1
    46    19    44    1
    47    20    45    1
    48    20    46    1
    49    20    47    1
    50    21    48    1
    51    21    49    1
    52    21    50    1
    53    22    51    1
