@<TRIPOS>MOLECULE
NuBBE_1025
 72 76 0 0 0
SMALL
GASTEIGER

@<TRIPOS>ATOM
      1 O           1.6933    0.4200   -4.6568 O.3     1  LIG1       -0.3912
      2 C           2.8658    0.8256   -3.8910 C.3     1  LIG1        0.0606
      3 H           3.5928    1.0567   -4.6732 H       1  LIG1        0.0599
      4 C           2.5559    2.1164   -3.1954 C.3     1  LIG1       -0.0258
      5 C           1.5106    1.9417   -2.1233 C.3     1  LIG1       -0.0447
      6 C           1.7610    0.7264   -1.1611 C.3     1  LIG1       -0.0252
      7 C           2.8726    1.2497   -0.1959 C.3     1  LIG1       -0.0590
      8 C           2.0515   -0.6122   -2.0605 C.3     1  LIG1       -0.0278
      9 C           1.8973   -1.9105   -1.2419 C.3     1  LIG1       -0.0486
     10 C           0.4777   -1.9707   -0.6038 C.3     1  LIG1       -0.0466
     11 C           0.1931   -0.8155    0.4115 C.3     1  LIG1       -0.0228
     12 C           1.1428   -1.0665    1.6135 C.3     1  LIG1       -0.0588
     13 C           0.4429    0.5405   -0.3545 C.3     1  LIG1       -0.0294
     14 H          -0.3284    0.5454   -1.1362 H       1  LIG1        0.0312
     15 C           0.1662    1.7748    0.5201 C.3     1  LIG1       -0.0486
     16 C          -1.2849    1.8265    0.8587 C.3     1  LIG1       -0.0457
     17 C          -1.6228    0.6048    1.6887 C.3     1  LIG1       -0.0135
     18 H          -0.9700    0.6445    2.5791 H       1  LIG1        0.0351
     19 C          -1.3449   -0.7790    0.9606 C.3     1  LIG1       -0.0199
     20 C          -2.3530   -0.9980   -0.2078 C.3     1  LIG1       -0.0585
     21 C          -1.6393   -1.8934    2.0215 C.3     1  LIG1       -0.0458
     22 C          -3.0442   -1.8312    2.6432 C.3     1  LIG1       -0.0434
     23 C          -3.5170   -0.4143    3.0454 C.3     1  LIG1       -0.0105
     24 C          -3.0649   -0.0884    4.4836 C.3     1  LIG1       -0.0558
     25 C          -2.9975    0.6911    2.1855 C.2     1  LIG1       -0.0639
     26 C          -3.9318    1.6930    2.0252 C.2     1  LIG1       -0.0839
     27 C          -5.2336    1.2760    2.6084 C.3     1  LIG1       -0.0337
     28 C          -5.0286   -0.2393    2.7554 C.3     1  LIG1       -0.0405
     29 H           1.1940   -0.7047   -2.7383 H       1  LIG1        0.0312
     30 C           3.3393   -0.3779   -2.9694 C.3     1  LIG1       -0.0056
     31 C           4.5229   -0.3753   -1.9566 C.3     1  LIG1       -0.0572
     32 C           4.0321   -1.2154   -4.0888 C.3     1  LIG1       -0.0572
     33 H           0.8774    0.5999   -4.1555 H       1  LIG1        0.2098
     34 H           2.1640    2.8395   -3.9229 H       1  LIG1        0.0290
     35 H           3.4783    2.5298   -2.7830 H       1  LIG1        0.0290
     36 H           0.5166    1.8613   -2.5817 H       1  LIG1        0.0271
     37 H           1.4958    2.8939   -1.5819 H       1  LIG1        0.0271
     38 H           3.8075    1.4955   -0.6981 H       1  LIG1        0.0235
     39 H           3.0869    0.5799    0.6334 H       1  LIG1        0.0235
     40 H           2.6043    2.2124    0.2550 H       1  LIG1        0.0235
     41 H           2.6666   -2.0212   -0.4748 H       1  LIG1        0.0268
     42 H           2.0008   -2.7756   -1.9099 H       1  LIG1        0.0268
     43 H           0.3302   -2.9463   -0.1234 H       1  LIG1        0.0271
     44 H          -0.2446   -1.9316   -1.4283 H       1  LIG1        0.0271
     45 H           2.1971   -0.9943    1.3596 H       1  LIG1        0.0235
     46 H           1.0262   -2.0943    1.9837 H       1  LIG1        0.0235
     47 H           0.9587   -0.3940    2.4538 H       1  LIG1        0.0235
     48 H           0.3884    2.7176    0.0198 H       1  LIG1        0.0268
     49 H           0.7703    1.7618    1.4359 H       1  LIG1        0.0268
     50 H          -1.8918    1.8788   -0.0566 H       1  LIG1        0.0271
     51 H          -1.4698    2.7546    1.4146 H       1  LIG1        0.0271
     52 H          -2.2294   -0.2789   -1.0196 H       1  LIG1        0.0235
     53 H          -3.3956   -0.9206    0.1120 H       1  LIG1        0.0235
     54 H          -2.2504   -2.0051   -0.6296 H       1  LIG1        0.0235
     55 H          -0.9296   -1.8299    2.8532 H       1  LIG1        0.0271
     56 H          -1.5006   -2.8858    1.5713 H       1  LIG1        0.0271
     57 H          -3.0553   -2.4778    3.5336 H       1  LIG1        0.0274
     58 H          -3.7545   -2.2999    1.9528 H       1  LIG1        0.0274
     59 H          -3.6356   -0.6499    5.2250 H       1  LIG1        0.0238
     60 H          -3.1606    0.9799    4.7234 H       1  LIG1        0.0238
     61 H          -2.0040   -0.3322    4.6166 H       1  LIG1        0.0238
     62 H          -3.7729    2.6179    1.5342 H       1  LIG1        0.0572
     63 H          -6.0485    1.4938    1.9060 H       1  LIG1        0.0308
     64 H          -5.4276    1.7714    3.5629 H       1  LIG1        0.0308
     65 H          -5.2585   -0.6822    1.7906 H       1  LIG1        0.0277
     66 H          -5.6762   -0.6921    3.4933 H       1  LIG1        0.0277
     67 H           4.2123   -0.4727   -0.9146 H       1  LIG1        0.0236
     68 H           5.2031    0.4658   -2.0744 H       1  LIG1        0.0236
     69 H           5.1097   -1.3041   -2.0222 H       1  LIG1        0.0236
     70 H           3.4709   -1.3382   -5.0167 H       1  LIG1        0.0236
     71 H           4.4751   -2.1661   -3.7893 H       1  LIG1        0.0236
     72 H           4.9144   -0.6022   -4.3943 H       1  LIG1        0.0236
@<TRIPOS>BOND
     1     2     4    1
     2     4     5    1
     3     5     6    1
     4     6     8    1
     5     8     9    1
     6     9    10    1
     7    10    11    1
     8    11    13    1
     9     6    13    1
    10    13    15    1
    11    15    16    1
    12    16    17    1
    13    17    19    1
    14    11    19    1
    15    19    21    1
    16    21    22    1
    17    22    23    1
    18    23    25    1
    19    17    25    1
    20    25    26    2
    21    26    27    1
    22    27    28    1
    23    23    28    1
    24     8    30    1
    25     2    30    1
    26     1     2    1
    27     2     3    1
    28     6     7    1
    29     8    29    1
    30    11    12    1
    31    13    14    1
    32    17    18    1
    33    19    20    1
    34    23    24    1
    35    30    31    1
    36    30    32    1
    37     1    33    1
    38     4    34    1
    39     4    35    1
    40     5    36    1
    41     5    37    1
    42     7    38    1
    43     7    39    1
    44     7    40    1
    45     9    41    1
    46     9    42    1
    47    10    43    1
    48    10    44    1
    49    12    45    1
    50    12    46    1
    51    12    47    1
    52    15    48    1
    53    15    49    1
    54    16    50    1
    55    16    51    1
    56    20    52    1
    57    20    53    1
    58    20    54    1
    59    21    55    1
    60    21    56    1
    61    22    57    1
    62    22    58    1
    63    24    59    1
    64    24    60    1
    65    24    61    1
    66    26    62    1
    67    27    63    1
    68    27    64    1
    69    28    65    1
    70    28    66    1
    71    31    67    1
    72    31    68    1
    73    31    69    1
    74    32    70    1
    75    32    71    1
    76    32    72    1
