@<TRIPOS>MOLECULE
NuBBE_1660
 54 57 0 0 0
SMALL
GASTEIGER

@<TRIPOS>ATOM
      1 C          -2.2555   -0.7913    1.1240 C.3     1  LIG1       -0.0589
      2 C          -0.8865   -0.0221    1.1518 C.3     1  LIG1       -0.0227
      3 C          -0.4908    0.4685   -0.2845 C.3     1  LIG1       -0.0202
      4 H           0.5752    0.7165   -0.2975 H       1  LIG1        0.0315
      5 C          -0.6770   -0.6951   -1.3256 C.3     1  LIG1        0.0240
      6 H          -1.7756   -0.8059   -1.3906 H       1  LIG1        0.0361
      7 C          -0.3083   -0.3496   -2.8250 C.3     1  LIG1        0.0968
      8 C          -1.0172   -1.3104   -3.8061 C.3     1  LIG1       -0.0314
      9 O           1.1058   -0.5251   -2.9855 O.3     1  LIG1       -0.3837
     10 C          -0.6405    1.0589   -3.1598 C.ar    1  LIG1        0.0249
     11 C          -1.0395    2.0205   -2.1268 C.ar    1  LIG1        0.1110
     12 C          -1.2311    1.7490   -0.7274 C.3     1  LIG1        0.0096
     13 O          -1.1727    3.2191   -2.6362 O.2     1  LIG1       -0.4674
     14 C          -0.8740    3.1334   -3.9867 C.ar    1  LIG1        0.0924
     15 C          -0.6125    1.8860   -4.2822 C.ar    1  LIG1       -0.0177
     16 C          -0.1441   -2.0478   -0.7524 C.3     1  LIG1        0.0873
     17 H          -1.0362   -2.6893   -0.7362 H       1  LIG1        0.0623
     18 C           0.4965   -2.0936    0.7124 C.3     1  LIG1        0.0852
     19 H           1.5356   -2.4244    0.6577 H       1  LIG1        0.0622
     20 C           0.3407   -0.8753    1.6888 C.3     1  LIG1       -0.0017
     21 H          -0.0354   -1.3000    2.6326 H       1  LIG1        0.0337
     22 C           1.7184   -0.0685    2.2981 C.3     1  LIG1       -0.0291
     23 C           2.4877   -0.9611    3.3279 C.3     1  LIG1       -0.0595
     24 C           2.8656    0.4789    1.3892 C.3     1  LIG1       -0.0595
     25 C           1.3098    1.1025    3.1364 C.3     1  LIG1       -0.0475
     26 C          -0.0664    1.5562    2.9019 C.3     1  LIG1       -0.0521
     27 C          -1.2487    1.0434    2.1409 C.3     1  LIG1       -0.0470
     28 O          -0.1818   -3.1990    1.3910 O.3     1  LIG1       -0.3889
     29 O           0.6786   -2.7826   -1.6591 O.3     1  LIG1       -0.3888
     30 H          -2.3762   -1.5571    0.3666 H       1  LIG1        0.0235
     31 H          -3.0799   -0.0848    0.9473 H       1  LIG1        0.0235
     32 H          -2.4541   -1.2868    2.0817 H       1  LIG1        0.0235
     33 H          -2.0495   -1.5465   -3.4990 H       1  LIG1        0.0261
     34 H          -0.4790   -2.2614   -3.9146 H       1  LIG1        0.0261
     35 H          -1.0911   -0.8996   -4.8233 H       1  LIG1        0.0261
     36 H           1.3029   -0.2384   -3.9026 H       1  LIG1        0.2106
     37 H          -2.3091    1.6699   -0.5249 H       1  LIG1        0.0347
     38 H          -0.8498    2.6086   -0.1534 H       1  LIG1        0.0347
     39 H          -0.9219    4.0906   -4.5065 H       1  LIG1        0.1029
     40 H          -0.3373    1.5228   -5.3249 H       1  LIG1        0.0653
     41 H           1.8191   -1.3923    4.0787 H       1  LIG1        0.0235
     42 H           3.2275   -0.3584    3.8886 H       1  LIG1        0.0235
     43 H           3.0529   -1.7613    2.8464 H       1  LIG1        0.0235
     44 H           2.5523    0.8623    0.4227 H       1  LIG1        0.0235
     45 H           3.6782   -0.2448    1.2530 H       1  LIG1        0.0235
     46 H           3.3917    1.3219    1.8827 H       1  LIG1        0.0235
     47 H           1.9485    2.0197    3.0511 H       1  LIG1        0.0271
     48 H           1.4366    0.9599    4.2328 H       1  LIG1        0.0271
     49 H          -0.4360    1.3663    3.9521 H       1  LIG1        0.0266
     50 H           0.1689    2.4753    2.3017 H       1  LIG1        0.0266
     51 H          -1.8390    1.8841    1.7142 H       1  LIG1        0.0271
     52 H          -1.9736    0.6729    2.8991 H       1  LIG1        0.0271
     53 H          -1.1344   -3.1570    1.1884 H       1  LIG1        0.2099
     54 H           1.3321   -2.1578   -2.0296 H       1  LIG1        0.2099
@<TRIPOS>BOND
     1     2     3    1
     2     3     5    1
     3     5     7    1
     4     7    10    1
     5    10    11   ar
     6    11    12    1
     7     3    12    1
     8    11    13   ar
     9    13    14   ar
    10    14    15   ar
    11    10    15   ar
    12     5    16    1
    13    16    18    1
    14    18    20    1
    15     2    20    1
    16    20    22    1
    17    22    25    1
    18    25    26    1
    19    26    27    1
    20     2    27    1
    21     1     2    1
    22     3     4    1
    23     5     6    1
    24    18    19    1
    25    18    28    1
    26    20    21    1
    27    22    23    1
    28    22    24    1
    29     7     9    1
    30     7     8    1
    31    16    29    1
    32    16    17    1
    33     1    30    1
    34     1    31    1
    35     1    32    1
    36     8    33    1
    37     8    34    1
    38     8    35    1
    39     9    36    1
    40    12    37    1
    41    12    38    1
    42    14    39    1
    43    15    40    1
    44    23    41    1
    45    23    42    1
    46    23    43    1
    47    24    44    1
    48    24    45    1
    49    24    46    1
    50    25    47    1
    51    25    48    1
    52    26    49    1
    53    26    50    1
    54    27    51    1
    55    27    52    1
    56    28    53    1
    57    29    54    1
