REMARK  Name = NuBBE_509
REMARK  5 active torsions:
REMARK  status: ('A' for Active; 'I' for Inactive)
REMARK    1  A    between atoms: O_1  and  C_2
REMARK    2  A    between atoms: C_6  and  O_9
REMARK    3  A    between atoms: C_7  and  C_8
REMARK    4  A    between atoms: O_9  and  C_10
REMARK    5  A    between atoms: C_12  and  C_16
REMARK                            x       y       z     vdW  Elec       q    Type
REMARK                         _______ _______ _______ _____ _____    ______ ____
ROOT
ATOM      1  C   LIG A   1      -1.547   0.407  -0.187  0.00  0.00    +0.138 A 
ATOM      2  C   LIG A   1      -0.745  -0.742  -0.118  0.00  0.00    +0.106 A 
ATOM      3  C   LIG A   1       0.641  -0.636  -0.193  0.00  0.00    +0.146 A 
ATOM      4  C   LIG A   1       1.235   0.616  -0.320  0.00  0.00    +0.093 A 
ATOM      5  C   LIG A   1       0.435   1.761  -0.365  0.00  0.00    +0.130 A 
ATOM      6  C   LIG A   1      -0.966   1.675  -0.341  0.00  0.00    +0.034 A 
ATOM      7  C   LIG A   1      -1.828   2.904  -0.425  0.00  0.00    +0.051 C 
ATOM      8  O   LIG A   1       1.480  -1.722  -0.145  0.00  0.00    -0.460 OA
ATOM      9  C   LIG A   1       0.924  -2.985  -0.019  0.00  0.00    +0.106 A 
ATOM     10  C   LIG A   1      -0.394  -3.217   0.069  0.00  0.00    +0.093 A 
ATOM     11  C   LIG A   1      -1.328  -2.083   0.029  0.00  0.00    +0.196 A 
ATOM     12  O   LIG A   1      -2.540  -2.247   0.113  0.00  0.00    -0.287 OA
ATOM     13  C   LIG A   1       1.937  -4.086   0.010  0.00  0.00    +0.086 C 
ENDROOT
BRANCH   1  14
ATOM     14  O   LIG A   1      -2.916   0.337  -0.108  0.00  0.00    -0.505 OA
ATOM     15  H   LIG A   1      -3.175  -0.607  -0.011  0.00  0.00    +0.292 HD
ENDBRANCH   1  14
BRANCH   5  16
ATOM     16  O   LIG A   1       1.059   2.973  -0.513  0.00  0.00    -0.495 OA
ATOM     17  C   LIG A   1       1.374   3.523   0.767  0.00  0.00    +0.277 C 
ENDBRANCH   5  16
TORSDOF 2
