REMARK  Name = NuBBE_965
REMARK  6 active torsions:
REMARK  status: ('A' for Active; 'I' for Inactive)
REMARK    1  A    between atoms: C_1  and  O_2
REMARK    2  A    between atoms: O_2  and  C_3
REMARK    3  A    between atoms: C_13  and  O_14
REMARK    4  A    between atoms: O_14  and  C_15
REMARK    5  A    between atoms: C_17  and  O_18
REMARK    6  A    between atoms: O_18  and  C_19
REMARK                            x       y       z     vdW  Elec       q    Type
REMARK                         _______ _______ _______ _____ _____    ______ ____
ROOT
ATOM      1  C   LIG A   1       0.330  -1.679   0.336  0.00  0.00    +0.142 A 
ATOM      2  C   LIG A   1       1.211  -1.990  -0.724  0.00  0.00    +0.082 A 
ATOM      3  C   LIG A   1       1.591  -0.918  -1.522  0.00  0.00    +0.231 A 
ATOM      4  O   LIG A   1       2.435  -1.322  -2.509  0.00  0.00    -0.445 OA
ATOM      5  C   LIG A   1       2.603  -2.655  -2.367  0.00  0.00    +0.198 A 
ATOM      6  C   LIG A   1       1.885  -3.114  -1.286  0.00  0.00    +0.055 A 
ATOM      7  N   LIG A   1       1.210   0.345  -1.411  0.00  0.00    -0.208 NA
ATOM      8  C   LIG A   1       0.349   0.646  -0.436  0.00  0.00    +0.120 A 
ATOM      9  C   LIG A   1      -0.107  -0.322   0.493  0.00  0.00    +0.050 A 
ATOM     10  C   LIG A   1      -1.000   0.096   1.520  0.00  0.00    +0.059 A 
ATOM     11  C   LIG A   1      -1.448   1.417   1.622  0.00  0.00    +0.124 A 
ATOM     12  C   LIG A   1      -1.013   2.339   0.686  0.00  0.00    +0.093 A 
ATOM     13  C   LIG A   1      -0.128   1.961  -0.335  0.00  0.00    +0.150 A 
ENDROOT
BRANCH   1  15
ATOM     14  C   LIG A   1      -0.294  -3.922   0.825  0.00  0.00    +0.277 C 
ATOM     15  O   LIG A   1      -0.122  -2.587   1.287  0.00  0.00    -0.494 OA
ENDBRANCH   1  15
BRANCH  11  16
ATOM     16  O   LIG A   1      -2.311   1.682   2.652  0.00  0.00    -0.495 OA
ATOM     17  C   LIG A   1      -2.730   3.038   2.802  0.00  0.00    +0.277 C 
ENDBRANCH  11  16
BRANCH  13  18
ATOM     18  O   LIG A   1       0.157   3.027  -1.167  0.00  0.00    -0.493 OA
ATOM     19  C   LIG A   1       0.990   2.806  -2.300  0.00  0.00    +0.277 C 
ENDBRANCH  13  18
TORSDOF 3
