@<TRIPOS>MOLECULE
NuBBE_585
 46 48 0 0 0
SMALL
GASTEIGER

@<TRIPOS>ATOM
      1 O           1.7714   -0.0164    4.4432 O.3     1  LIG1       -0.3891
      2 C           0.9719    0.2462    3.2876 C.3     1  LIG1        0.0861
      3 H           0.3917    1.1526    3.4905 H       1  LIG1        0.0621
      4 C           0.0315   -0.9325    3.0609 C.3     1  LIG1        0.0022
      5 C          -0.7466   -0.8066    1.7498 C.3     1  LIG1        0.0654
      6 H          -1.1797   -1.7942    1.5578 H       1  LIG1        0.0598
      7 C          -1.9130    0.1965    1.8134 C.3     1  LIG1        0.0111
      8 C          -2.7114    0.3714    0.4997 C.3     1  LIG1        0.1091
      9 H          -2.0460    0.8269   -0.2417 H       1  LIG1        0.0738
     10 O          -3.7633    1.3503    0.7364 O.3     1  LIG1       -0.4579
     11 C          -4.9627    0.9944    1.2586 C.2     1  LIG1        0.3319
     12 C          -5.2856   -0.4468    1.2564 C.2     1  LIG1        0.0187
     13 C          -4.5357   -1.3317    0.5887 C.2     1  LIG1       -0.0738
     14 C          -3.2937   -0.9019   -0.1198 C.3     1  LIG1        0.0032
     15 O          -5.7656    1.8070    1.6855 O.2     1  LIG1       -0.2456
     16 O           0.1440   -0.5600    0.6617 O.3     1  LIG1       -0.3665
     17 C           1.0108    0.5772    0.7991 C.3     1  LIG1        0.1057
     18 H           0.3996    1.4850    0.8632 H       1  LIG1        0.0667
     19 C           1.8789    0.4640    2.0706 C.3     1  LIG1        0.1107
     20 H           2.4879    1.3639    2.2169 H       1  LIG1        0.0648
     21 O           2.8028   -0.6420    2.0148 O.3     1  LIG1       -0.3863
     22 C           1.8469    0.6977   -0.4556 C.2     1  LIG1       -0.0525
     23 C           1.5754    0.0811   -1.6199 C.2     1  LIG1       -0.0560
     24 C           2.3145    0.2356   -2.8826 C.ar    1  LIG1       -0.0252
     25 C           2.0904   -0.6979   -3.9055 C.ar    1  LIG1       -0.0546
     26 C           2.7479   -0.5874   -5.1332 C.ar    1  LIG1       -0.0612
     27 C           3.6325    0.4640   -5.3565 C.ar    1  LIG1       -0.0617
     28 C           3.8406    1.4169   -4.3626 C.ar    1  LIG1       -0.0612
     29 C           3.1790    1.3079   -3.1365 C.ar    1  LIG1       -0.0546
     30 H           2.5566   -0.5025    4.1145 H       1  LIG1        0.2099
     31 H          -0.6443   -1.0575    3.9144 H       1  LIG1        0.0316
     32 H           0.6323   -1.8520    3.0245 H       1  LIG1        0.0316
     33 H          -2.5906   -0.0929    2.6253 H       1  LIG1        0.0326
     34 H          -1.5410    1.1893    2.0952 H       1  LIG1        0.0326
     35 H          -6.2068   -0.7299    1.7512 H       1  LIG1        0.0686
     36 H          -4.8438   -2.3719    0.5230 H       1  LIG1        0.0575
     37 H          -3.5633   -0.7111   -1.1668 H       1  LIG1        0.0343
     38 H          -2.5640   -1.7151   -0.1282 H       1  LIG1        0.0343
     39 H           2.4465   -1.2786    1.3655 H       1  LIG1        0.2100
     40 H           2.7083    1.3562   -0.3744 H       1  LIG1        0.0599
     41 H           0.7190   -0.5890   -1.6731 H       1  LIG1        0.0621
     42 H           1.3981   -1.5240   -3.7577 H       1  LIG1        0.0623
     43 H           2.5666   -1.3218   -5.9134 H       1  LIG1        0.0618
     44 H           4.1534    0.5459   -6.3065 H       1  LIG1        0.0618
     45 H           4.5143    2.2509   -4.5405 H       1  LIG1        0.0618
     46 H           3.3442    2.0828   -2.3939 H       1  LIG1        0.0623
@<TRIPOS>BOND
     1     2     4    1
     2     4     5    1
     3     7     8    1
     4     8     9    1
     5     8    10    1
     6    10    11    1
     7    11    12    1
     8    12    13    2
     9    13    14    1
    10     8    14    1
    11    11    15    2
    12     5    16    1
    13    16    17    1
    14    17    18    1
    15    17    19    1
    16    19    20    1
    17     2    19    1
    18    19    21    1
    19    17    22    1
    20    22    23    2
    21    23    24    1
    22    24    25   ar
    23    25    26   ar
    24    26    27   ar
    25    27    28   ar
    26    28    29   ar
    27    24    29   ar
    28     2     3    1
    29     2     1    1
    30     5     7    1
    31     5     6    1
    32     1    30    1
    33     4    31    1
    34     4    32    1
    35     7    33    1
    36     7    34    1
    37    12    35    1
    38    13    36    1
    39    14    37    1
    40    14    38    1
    41    21    39    1
    42    22    40    1
    43    23    41    1
    44    25    42    1
    45    26    43    1
    46    27    44    1
    47    28    45    1
    48    29    46    1
