@<TRIPOS>MOLECULE
NuBBE_2061
 48 51 0 0 0
SMALL
GASTEIGER

@<TRIPOS>ATOM
      1 C           3.9595   -2.7784    0.4774 C.3     1  LIG1        0.0372
      2 O           3.6952   -1.6483    1.2962 O.3     1  LIG1       -0.3755
      3 C           2.3431   -1.5513    1.7518 C.3     1  LIG1        0.0828
      4 H           2.1176   -2.4424    2.3517 H       1  LIG1        0.0642
      5 C           2.3040   -0.3482    2.6668 C.2     1  LIG1       -0.0550
      6 C           2.1488    0.8934    2.1644 C.2     1  LIG1       -0.0542
      7 C           2.0514    0.9800    0.7353 C.2     1  LIG1        0.0087
      8 C           3.0815    1.4559    0.0107 C.2     1  LIG1       -0.0304
      9 C           3.1225    0.8227   -1.3304 C.3     1  LIG1       -0.0118
     10 N           1.8317    0.0268   -1.5102 N.4     1  LIG1        0.2330
     11 O           2.0804   -1.1915   -2.0924 O.co2   1  LIG1       -0.7736
     12 C           0.9684    0.8101   -2.4612 C.3     1  LIG1       -0.0003
     13 C          -0.4122    0.2028   -2.5488 C.3     1  LIG1        0.1203
     14 H          -0.3963   -0.8714   -2.7641 H       1  LIG1        0.0698
     15 O          -1.1355    0.8580   -3.5939 O.3     1  LIG1       -0.3819
     16 C          -1.0859    0.4174   -1.2183 C.ar    1  LIG1       -0.0013
     17 C          -2.4695    0.6631   -1.1750 C.ar    1  LIG1       -0.0100
     18 C          -3.1451    0.8755    0.0259 C.ar    1  LIG1        0.1618
     19 O          -4.4674    1.2285    0.0515 O.3     1  LIG1       -0.4914
     20 C          -5.2977    0.6014   -0.9207 C.3     1  LIG1        0.0790
     21 C          -2.4208    0.8281    1.2205 C.ar    1  LIG1        0.1620
     22 O          -2.9210    1.0018    2.4881 O.3     1  LIG1       -0.4914
     23 C          -4.2785    0.6139    2.6817 C.3     1  LIG1        0.0790
     24 C          -1.0346    0.5892    1.1819 C.ar    1  LIG1       -0.0068
     25 C          -0.3364    0.3686   -0.0284 C.ar    1  LIG1        0.0174
     26 C           1.1764   -0.0151   -0.0379 C.3     1  LIG1        0.0441
     27 C           1.2974   -1.4377    0.6201 C.3     1  LIG1        0.0317
     28 H           5.0437   -2.8864    0.3880 H       1  LIG1        0.0524
     29 H           3.5628   -2.6279   -0.5279 H       1  LIG1        0.0524
     30 H           3.5499   -3.6925    0.9163 H       1  LIG1        0.0524
     31 H           2.4640   -0.4984    3.7278 H       1  LIG1        0.0598
     32 H           2.1926    1.7849    2.7779 H       1  LIG1        0.0620
     33 H           3.9284    1.9858    0.4190 H       1  LIG1        0.0630
     34 H           3.9451    0.1020   -1.3900 H       1  LIG1        0.0861
     35 H           3.2200    1.5501   -2.1406 H       1  LIG1        0.0861
     36 H           1.4688    0.7827   -3.4379 H       1  LIG1        0.0843
     37 H           0.9430    1.8551   -2.1236 H       1  LIG1        0.0843
     38 H          -0.8294    0.4632   -4.4288 H       1  LIG1        0.2105
     39 H          -2.9997    0.7281   -2.1198 H       1  LIG1        0.0659
     40 H          -6.3295    0.9001   -0.7138 H       1  LIG1        0.0660
     41 H          -5.2372   -0.4892   -0.8409 H       1  LIG1        0.0660
     42 H          -5.0670    0.9366   -1.9357 H       1  LIG1        0.0660
     43 H          -4.4474    0.4981    3.7564 H       1  LIG1        0.0660
     44 H          -4.4969   -0.3508    2.2091 H       1  LIG1        0.0660
     45 H          -4.9633    1.3947    2.3377 H       1  LIG1        0.0660
     46 H          -0.5147    0.5416    2.1367 H       1  LIG1        0.0660
     47 H           1.4533   -2.2161   -0.1299 H       1  LIG1        0.0359
     48 H           0.3365   -1.7148    1.0775 H       1  LIG1        0.0359
@<TRIPOS>BOND
     1     1     2    1
     2     3     5    1
     3     5     6    2
     4     6     7    1
     5     7     8    2
     6     8     9    1
     7     9    10    1
     8    10    12    1
     9    12    13    1
    10    13    16    1
    11    16    17   ar
    12    17    18   ar
    13    19    20    1
    14    18    21   ar
    15    22    23    1
    16    21    24   ar
    17    24    25   ar
    18    16    25   ar
    19    25    26    1
    20    10    26    1
    21     7    26    1
    22    26    27    1
    23     3    27    1
    24    10    11    1
    25    18    19    1
    26    21    22    1
    27    13    15    1
    28    13    14    1
    29     3     4    1
    30     3     2    1
    31     1    28    1
    32     1    29    1
    33     1    30    1
    34     5    31    1
    35     6    32    1
    36     8    33    1
    37     9    34    1
    38     9    35    1
    39    12    36    1
    40    12    37    1
    41    15    38    1
    42    17    39    1
    43    20    40    1
    44    20    41    1
    45    20    42    1
    46    23    43    1
    47    23    44    1
    48    23    45    1
    49    24    46    1
    50    27    47    1
    51    27    48    1
