REMARK  Name = NuBBE_2245
REMARK  6 active torsions:
REMARK  status: ('A' for Active; 'I' for Inactive)
REMARK    1  A    between atoms: C_1  and  C_2
REMARK    2  A    between atoms: C_2  and  C_3
REMARK    3  A    between atoms: C_9  and  O_10
REMARK    4  A    between atoms: C_15  and  C_16
REMARK    5  A    between atoms: C_15  and  C_17
REMARK    6  A    between atoms: C_22  and  C_23
REMARK                            x       y       z     vdW  Elec       q    Type
REMARK                         _______ _______ _______ _____ _____    ______ ____
ROOT
ATOM      1  C   LIG A   1      -3.155   1.604  -2.356  0.00  0.00    +0.016 C 
ATOM      2  C   LIG A   1      -1.612   1.500  -2.384  0.00  0.00    -0.006 C 
ATOM      3  C   LIG A   1      -1.174   0.791  -3.690  0.00  0.00    +0.016 C 
ATOM      4  C   LIG A   1      -1.024   2.932  -2.494  0.00  0.00    +0.011 C 
ATOM      5  C   LIG A   1      -1.187   3.706  -1.205  0.00  0.00    +0.005 C 
ATOM      6  C   LIG A   1      -0.380   3.030  -0.114  0.00  0.00    +0.036 C 
ATOM      7  C   LIG A   1      -0.506   1.516  -0.045  0.00  0.00    -0.037 A 
ATOM      8  C   LIG A   1      -1.110   0.778  -1.112  0.00  0.00    +0.007 A 
ATOM      9  C   LIG A   1      -1.210  -0.616  -0.944  0.00  0.00    +0.164 A 
ATOM     10  C   LIG A   1      -0.672  -1.258   0.178  0.00  0.00    +0.176 A 
ATOM     11  O   LIG A   1      -0.838  -2.639   0.292  0.00  0.00    -0.422 OA
ATOM     12  C   LIG A   1       0.386  -3.213   0.036  0.00  0.00    +0.313 C 
ATOM     13  C   LIG A   1       1.103  -3.543   1.324  0.00  0.00    +0.132 C 
ATOM     14  C   LIG A   1       1.594  -2.322   2.137  0.00  0.00    -0.000 C 
ATOM     15  C   LIG A   1       2.085  -2.873   3.499  0.00  0.00    +0.016 C 
ATOM     16  C   LIG A   1       0.421  -1.337   2.428  0.00  0.00    +0.050 C 
ATOM     17  O   LIG A   1       0.764  -3.582  -1.070  0.00  0.00    -0.250 OA
ATOM     18  C   LIG A   1      -0.067  -0.553   1.222  0.00  0.00    +0.003 A 
ATOM     19  C   LIG A   1       0.045   0.849   1.101  0.00  0.00    -0.040 A 
ATOM     20  C   LIG A   1       0.712   1.639   2.208  0.00  0.00    +0.044 C 
ENDROOT
BRANCH   9  21
ATOM     21  O   LIG A   1      -1.836  -1.439  -1.840  0.00  0.00    -0.503 OA
ATOM     22  H   LIG A   1      -2.609  -0.982  -2.195  0.00  0.00    +0.292 HD
ENDBRANCH   9  21
BRANCH  14  23
ATOM     23  C   LIG A   1       2.782  -1.572   1.534  0.00  0.00    -0.027 C 
ATOM     24  C   LIG A   1       3.417  -1.813   0.380  0.00  0.00    +0.004 C 
ENDBRANCH  14  23
TORSDOF 2
