@<TRIPOS>MOLECULE
NuBBE_1723
 51 54 0 0 0
SMALL
GASTEIGER

@<TRIPOS>ATOM
      1 O          -3.0837   -2.6336   -0.7576 O.3     1  LIG1       -0.4942
      2 C          -3.7196   -3.8879   -0.5386 C.3     1  LIG1        0.0788
      3 C          -1.7383   -2.5477   -0.5313 C.ar    1  LIG1        0.1380
      4 C          -1.1092   -1.3016   -0.6960 C.ar    1  LIG1        0.1069
      5 C           0.2663   -1.1587   -0.4472 C.ar    1  LIG1        0.1534
      6 C           1.0436   -2.2657   -0.0846 C.ar    1  LIG1        0.0597
      7 C           0.4108   -3.4929    0.0910 C.ar    1  LIG1        0.1359
      8 C          -0.9605   -3.6316   -0.1234 C.ar    1  LIG1        0.0234
      9 O           1.0567   -4.6387    0.4529 O.3     1  LIG1       -0.4814
     10 C           2.4062   -4.5333    0.9439 C.3     1  LIG1        0.1235
     11 C           3.1237   -3.2572    0.5741 C.2     1  LIG1       -0.0408
     12 C           2.4887   -2.1828    0.0963 C.2     1  LIG1       -0.0478
     13 C           3.1432   -5.7316    0.3411 C.3     1  LIG1       -0.0215
     14 C           2.3392   -4.6603    2.4692 C.3     1  LIG1       -0.0215
     15 O           0.9249    0.0482   -0.5348 O.2     1  LIG1       -0.4536
     16 C           0.1674    1.1857   -0.5013 C.ar    1  LIG1        0.1430
     17 C          -1.1887    1.1961   -0.7928 C.ar    1  LIG1        0.0684
     18 C          -1.8394   -0.0826   -1.1107 C.ar    1  LIG1        0.2039
     19 O          -2.9130   -0.0895   -1.6944 O.2     1  LIG1       -0.2863
     20 C          -1.9092    2.3882   -0.7791 C.ar    1  LIG1       -0.0012
     21 C          -1.2565    3.5734   -0.4376 C.ar    1  LIG1        0.1746
     22 C           0.1244    3.5712   -0.1660 C.ar    1  LIG1        0.1772
     23 C           0.8335    2.3716   -0.1980 C.ar    1  LIG1        0.0275
     24 O           0.7553    4.8298    0.0231 O.3     1  LIG1       -0.4221
     25 C           2.1068    5.0113    0.3461 C.2     1  LIG1        0.3093
     26 O           2.8969    4.1572    0.7200 O.2     1  LIG1       -0.2507
     27 C           2.4688    6.4566    0.1876 C.3     1  LIG1        0.0336
     28 O          -1.9150    4.8226   -0.4867 O.3     1  LIG1       -0.4222
     29 C          -3.3075    4.9484   -0.3592 C.2     1  LIG1        0.3093
     30 O          -4.0898    4.1010    0.0355 O.2     1  LIG1       -0.2507
     31 C          -3.7120    6.3156   -0.8287 C.3     1  LIG1        0.0336
     32 H          -4.7386   -3.8263   -0.9310 H       1  LIG1        0.0660
     33 H          -3.7796   -4.1025    0.5337 H       1  LIG1        0.0660
     34 H          -3.2201   -4.7014   -1.0752 H       1  LIG1        0.0660
     35 H          -1.3850   -4.6163    0.0401 H       1  LIG1        0.0691
     36 H           4.1977   -3.2117    0.7322 H       1  LIG1        0.0611
     37 H           3.0189   -1.2694   -0.1495 H       1  LIG1        0.0624
     38 H           3.1490   -5.6719   -0.7544 H       1  LIG1        0.0271
     39 H           2.6309   -6.6679    0.5929 H       1  LIG1        0.0271
     40 H           4.1785   -5.7979    0.6901 H       1  LIG1        0.0271
     41 H           1.7743   -3.8272    2.9063 H       1  LIG1        0.0271
     42 H           3.3353   -4.6734    2.9233 H       1  LIG1        0.0271
     43 H           1.8091   -5.5740    2.7612 H       1  LIG1        0.0271
     44 H          -2.9618    2.3626   -1.0451 H       1  LIG1        0.0664
     45 H           1.8996    2.3165   -0.0083 H       1  LIG1        0.0693
     46 H           1.8429    6.9291   -0.5744 H       1  LIG1        0.0342
     47 H           3.5066    6.5223   -0.1553 H       1  LIG1        0.0342
     48 H           2.3581    6.9732    1.1425 H       1  LIG1        0.0342
     49 H          -4.2768    6.8163   -0.0408 H       1  LIG1        0.0342
     50 H          -4.3180    6.2160   -1.7330 H       1  LIG1        0.0342
     51 H          -2.8350    6.9225   -1.0675 H       1  LIG1        0.0342
@<TRIPOS>BOND
     1     1     2    1
     2     1     3    1
     3     3     4   ar
     4     4     5   ar
     5     5     6   ar
     6     6     7   ar
     7     7     8   ar
     8     3     8   ar
     9     7     9    1
    10     9    10    1
    11    10    11    1
    12    11    12    2
    13     6    12    1
    14    10    13    1
    15    10    14    1
    16     5    15   ar
    17    15    16   ar
    18    16    17   ar
    19    17    18   ar
    20     4    18   ar
    21    18    19    2
    22    17    20   ar
    23    20    21   ar
    24    21    22   ar
    25    22    23   ar
    26    16    23   ar
    27    22    24    1
    28    24    25    1
    29    25    26    2
    30    25    27    1
    31    21    28    1
    32    28    29    1
    33    29    30    2
    34    29    31    1
    35     2    32    1
    36     2    33    1
    37     2    34    1
    38     8    35    1
    39    11    36    1
    40    12    37    1
    41    13    38    1
    42    13    39    1
    43    13    40    1
    44    14    41    1
    45    14    42    1
    46    14    43    1
    47    20    44    1
    48    23    45    1
    49    27    46    1
    50    27    47    1
    51    27    48    1
    52    31    49    1
    53    31    50    1
    54    31    51    1
