@<TRIPOS>MOLECULE
NuBBE_2353
 52 55 0 0 0
SMALL
GASTEIGER

@<TRIPOS>ATOM
      1 C          -1.7468    1.6896    1.1853 C.3     1  LIG1       -0.0590
      2 C          -0.3525    1.2080    0.6771 C.3     1  LIG1       -0.0254
      3 C           0.2868    0.3069    1.8150 C.3     1  LIG1       -0.0302
      4 H           0.0091    0.7845    2.7688 H       1  LIG1        0.0311
      5 C          -0.4250   -1.0475    1.8733 C.3     1  LIG1       -0.0487
      6 C          -0.2851   -1.8681    0.6139 C.3     1  LIG1       -0.0465
      7 C          -0.6836   -1.1538   -0.6835 C.3     1  LIG1       -0.0217
      8 C           0.1187   -1.7307   -1.8588 C.3     1  LIG1       -0.0258
      9 C          -0.9116   -1.8034   -2.9642 C.2     1  LIG1       -0.0730
     10 C          -0.7520   -2.5630   -3.9816 C.2     1  LIG1       -0.0992
     11 C          -0.5248    0.4373   -0.7096 C.3     1  LIG1       -0.0294
     12 C          -1.4776    1.1428   -1.7356 C.3     1  LIG1       -0.0487
     13 C          -2.6532    0.3398   -2.2174 C.3     1  LIG1       -0.0462
     14 C          -2.2698   -1.1162   -2.5138 C.3     1  LIG1       -0.0196
     15 H          -2.4249   -1.0715   -3.6078 H       1  LIG1        0.0346
     16 C          -2.1028   -1.6471   -1.1174 C.3     1  LIG1       -0.0403
     17 C           1.8663    0.2733    1.8665 C.3     1  LIG1       -0.0315
     18 C           2.4472   -0.4630    3.1015 C.3     1  LIG1       -0.0595
     19 C           2.5492   -0.3755    0.6459 C.3     1  LIG1       -0.0595
     20 C           2.2971    1.7502    1.9993 C.3     1  LIG1       -0.0476
     21 C           1.9678    2.5260    0.7407 C.3     1  LIG1       -0.0521
     22 C           0.4672    2.5409    0.4556 C.3     1  LIG1       -0.0471
     23 H          -2.4848    0.8858    1.2098 H       1  LIG1        0.0235
     24 H          -2.1542    2.5004    0.5718 H       1  LIG1        0.0235
     25 H          -1.6651    2.1124    2.1947 H       1  LIG1        0.0235
     26 H          -1.4929   -0.8934    2.0706 H       1  LIG1        0.0268
     27 H          -0.0728   -1.6351    2.7269 H       1  LIG1        0.0268
     28 H          -0.8984   -2.7695    0.7454 H       1  LIG1        0.0271
     29 H           0.7295   -2.2607    0.5472 H       1  LIG1        0.0271
     30 H           0.5016   -2.7362   -1.6391 H       1  LIG1        0.0315
     31 H           0.9527   -1.1135   -2.1902 H       1  LIG1        0.0315
     32 H           0.1991   -3.1042   -4.2050 H       1  LIG1        0.0534
     33 H          -1.5365   -2.7549   -4.7543 H       1  LIG1        0.0534
     34 H           0.4499    0.6156   -1.1796 H       1  LIG1        0.0312
     35 H          -0.8943    1.3833   -2.6326 H       1  LIG1        0.0268
     36 H          -1.8570    2.1001   -1.3835 H       1  LIG1        0.0268
     37 H          -3.1190    0.7990   -3.0993 H       1  LIG1        0.0271
     38 H          -3.4858    0.3614   -1.4873 H       1  LIG1        0.0271
     39 H          -2.2090   -2.7395   -1.0492 H       1  LIG1        0.0276
     40 H          -2.8396   -1.2726   -0.3982 H       1  LIG1        0.0276
     41 H           2.3871    0.1405    4.0127 H       1  LIG1        0.0235
     42 H           3.5147   -0.6780    2.9439 H       1  LIG1        0.0235
     43 H           1.9680   -1.4258    3.2908 H       1  LIG1        0.0235
     44 H           2.0801   -0.1168   -0.2980 H       1  LIG1        0.0235
     45 H           2.5698   -1.4656    0.7222 H       1  LIG1        0.0235
     46 H           3.5955   -0.0590    0.5673 H       1  LIG1        0.0235
     47 H           3.3666    1.8318    2.2265 H       1  LIG1        0.0271
     48 H           1.7758    2.2134    2.8513 H       1  LIG1        0.0271
     49 H           2.5216    2.1250   -0.1141 H       1  LIG1        0.0266
     50 H           2.3205    3.5580    0.8625 H       1  LIG1        0.0266
     51 H           0.3249    2.9121   -0.5675 H       1  LIG1        0.0271
     52 H           0.0523    3.3266    1.1011 H       1  LIG1        0.0271
@<TRIPOS>BOND
     1     2     3    1
     2     3     5    1
     3     5     6    1
     4     6     7    1
     5     7     8    1
     6     8     9    1
     7     7    11    1
     8     2    11    1
     9    11    12    1
    10    12    13    1
    11    13    14    1
    12     9    14    1
    13    14    16    1
    14     7    16    1
    15     3    17    1
    16    17    20    1
    17    20    21    1
    18    21    22    1
    19     2    22    1
    20     1     2    1
    21     3     4    1
    22     9    10    2
    23    14    15    1
    24    17    18    1
    25    17    19    1
    26     1    23    1
    27     1    24    1
    28     1    25    1
    29     5    26    1
    30     5    27    1
    31     6    28    1
    32     6    29    1
    33     8    30    1
    34     8    31    1
    35    10    32    1
    36    10    33    1
    37    11    34    1
    38    12    35    1
    39    12    36    1
    40    13    37    1
    41    13    38    1
    42    16    39    1
    43    16    40    1
    44    18    41    1
    45    18    42    1
    46    18    43    1
    47    19    44    1
    48    19    45    1
    49    19    46    1
    50    20    47    1
    51    20    48    1
    52    21    49    1
    53    21    50    1
    54    22    51    1
    55    22    52    1
