@<TRIPOS>MOLECULE
NuBBE_1347
 96 101 0 0 0
SMALL
GASTEIGER

@<TRIPOS>ATOM
      1 C          -5.1750    0.2029    0.5022 C.3     1  LIG1       -0.0562
      2 C          -4.0672   -0.1611    1.5236 C.3     1  LIG1        0.0055
      3 C          -4.5838    0.3422    2.8858 C.3     1  LIG1       -0.0562
      4 C          -3.8910   -1.7157    1.5509 C.3     1  LIG1        0.1084
      5 C          -2.7662   -2.1278    2.5049 C.3     1  LIG1       -0.0146
      6 C          -1.4247   -1.5027    2.1095 C.3     1  LIG1       -0.0437
      7 C          -1.4404    0.0493    1.9123 C.3     1  LIG1       -0.0249
      8 C          -1.4003    0.6758    3.3296 C.3     1  LIG1       -0.0590
      9 C          -2.7004    0.4751    1.0783 C.3     1  LIG1       -0.0268
     10 C          -2.7030    1.9995    0.8383 C.3     1  LIG1       -0.0486
     11 C          -1.4776    2.4277    0.0126 C.3     1  LIG1       -0.0463
     12 C          -0.0816    1.9645    0.5478 C.3     1  LIG1       -0.0194
     13 C           0.2811    2.9026    1.7293 C.3     1  LIG1       -0.0585
     14 C          -0.1839    0.4574    1.0271 C.3     1  LIG1       -0.0257
     15 C           1.1513   -0.0463    1.5980 C.3     1  LIG1       -0.0306
     16 C           2.3161    0.2840    0.7302 C.2     1  LIG1       -0.0836
     17 C           2.3164    1.1774   -0.2737 C.2     1  LIG1       -0.0632
     18 C           1.0784    2.0498   -0.6179 C.3     1  LIG1       -0.0051
     19 C           0.5011    1.5597   -1.9824 C.3     1  LIG1       -0.0553
     20 C           1.6013    3.5075   -0.8938 C.3     1  LIG1       -0.0429
     21 C           2.9252    3.8495   -0.1890 C.3     1  LIG1       -0.0463
     22 C           4.1116    2.8823   -0.5566 C.3     1  LIG1       -0.0253
     23 C           4.9279    3.5693   -1.6810 C.3     1  LIG1       -0.0590
     24 C           3.5815    1.5145   -1.0811 C.3     1  LIG1       -0.0111
     25 C           4.6615    0.3769   -1.2108 C.3     1  LIG1       -0.0343
     26 H           4.2504   -0.5571   -0.8106 H       1  LIG1        0.0307
     27 C           4.9254    0.0576   -2.6959 C.3     1  LIG1       -0.0616
     28 C           5.9973    0.6666   -0.4830 C.3     1  LIG1       -0.0407
     29 H           6.6368    1.2915   -1.1159 H       1  LIG1        0.0301
     30 C           6.7916   -0.6208   -0.2147 C.3     1  LIG1       -0.0622
     31 C           5.7703    1.4003    0.8332 C.3     1  LIG1       -0.0497
     32 C           5.0005    2.7137    0.7051 C.3     1  LIG1       -0.0468
     33 H          -4.8174   -2.2122    1.8657 H       1  LIG1        0.0739
     34 O          -3.4777   -2.2031    0.2463 O.3     1  LIG1       -0.4606
     35 C          -4.4042   -2.7270   -0.5974 C.2     1  LIG1        0.3117
     36 C          -3.7427   -3.1262   -1.8979 C.3     1  LIG1        0.0701
     37 C          -3.9686   -4.5706   -2.2632 C.ar    1  LIG1       -0.0368
     38 C          -5.0597   -4.9392   -3.0612 C.ar    1  LIG1       -0.0581
     39 C          -5.2874   -6.2805   -3.3717 C.ar    1  LIG1       -0.0615
     40 C          -4.4296   -7.2655   -2.8860 C.ar    1  LIG1       -0.0617
     41 C          -3.3375   -6.9096   -2.0970 C.ar    1  LIG1       -0.0615
     42 C          -3.1073   -5.5685   -1.7848 C.ar    1  LIG1       -0.0581
     43 O          -5.6057   -2.8170   -0.3581 O.2     1  LIG1       -0.2505
     44 H          -4.8532    0.0371   -0.5306 H       1  LIG1        0.0236
     45 H          -5.4746    1.2529    0.5896 H       1  LIG1        0.0236
     46 H          -6.0794   -0.3911    0.6777 H       1  LIG1        0.0236
     47 H          -3.9407    0.0803    3.7242 H       1  LIG1        0.0236
     48 H          -5.5644   -0.0970    3.1083 H       1  LIG1        0.0236
     49 H          -4.7042    1.4302    2.8901 H       1  LIG1        0.0236
     50 H          -2.6465   -3.2187    2.4732 H       1  LIG1        0.0301
     51 H          -3.0180   -1.8822    3.5410 H       1  LIG1        0.0301
     52 H          -1.0859   -1.9885    1.1855 H       1  LIG1        0.0272
     53 H          -0.6882   -1.7759    2.8774 H       1  LIG1        0.0272
     54 H          -1.8554    0.0257    4.0827 H       1  LIG1        0.0235
     55 H          -1.9275    1.6283    3.3994 H       1  LIG1        0.0235
     56 H          -0.3803    0.8437    3.6828 H       1  LIG1        0.0235
     57 H          -2.5383    0.0507    0.0737 H       1  LIG1        0.0312
     58 H          -2.7645    2.5691    1.7679 H       1  LIG1        0.0268
     59 H          -3.5854    2.2884    0.2572 H       1  LIG1        0.0268
     60 H          -1.4937    3.5171   -0.1143 H       1  LIG1        0.0271
     61 H          -1.6636    2.0120   -0.9811 H       1  LIG1        0.0271
     62 H          -0.4861    2.9155    2.5030 H       1  LIG1        0.0235
     63 H           0.3604    3.9463    1.4105 H       1  LIG1        0.0235
     64 H           1.2268    2.6321    2.2051 H       1  LIG1        0.0235
     65 H          -0.3207   -0.1236    0.1019 H       1  LIG1        0.0315
     66 H           1.1289   -1.1369    1.6943 H       1  LIG1        0.0310
     67 H           1.3504    0.3515    2.5969 H       1  LIG1        0.0310
     68 H           3.2205   -0.2545    0.9944 H       1  LIG1        0.0572
     69 H          -0.0444    0.6168   -1.8964 H       1  LIG1        0.0238
     70 H           1.2737    1.4067   -2.7421 H       1  LIG1        0.0238
     71 H          -0.1762    2.3105   -2.4100 H       1  LIG1        0.0238
     72 H           0.8391    4.2524   -0.6411 H       1  LIG1        0.0274
     73 H           1.7747    3.6507   -1.9698 H       1  LIG1        0.0274
     74 H           2.7460    3.8472    0.8910 H       1  LIG1        0.0271
     75 H           3.1967    4.8861   -0.4270 H       1  LIG1        0.0271
     76 H           4.3110    3.7259   -2.5733 H       1  LIG1        0.0235
     77 H           5.7995    2.9904   -1.9906 H       1  LIG1        0.0235
     78 H           5.2964    4.5503   -1.3606 H       1  LIG1        0.0235
     79 H           3.2321    1.6824   -2.1071 H       1  LIG1        0.0354
     80 H           5.3591    0.9146   -3.2202 H       1  LIG1        0.0233
     81 H           3.9944   -0.2181   -3.2033 H       1  LIG1        0.0233
     82 H           5.6113   -0.7879   -2.8077 H       1  LIG1        0.0233
     83 H           6.2118   -1.3301    0.3857 H       1  LIG1        0.0233
     84 H           7.7158   -0.3978    0.3303 H       1  LIG1        0.0233
     85 H           7.0788   -1.1179   -1.1458 H       1  LIG1        0.0233
     86 H           6.7330    1.6070    1.3184 H       1  LIG1        0.0268
     87 H           5.2345    0.7408    1.5275 H       1  LIG1        0.0268
     88 H           5.7091    3.5499    0.7657 H       1  LIG1        0.0271
     89 H           4.3936    2.7944    1.6163 H       1  LIG1        0.0271
     90 H          -2.6635   -2.9333   -1.8411 H       1  LIG1        0.0426
     91 H          -4.1171   -2.4616   -2.6859 H       1  LIG1        0.0426
     92 H          -5.7453   -4.1836   -3.4390 H       1  LIG1        0.0620
     93 H          -6.1395   -6.5569   -3.9870 H       1  LIG1        0.0618
     94 H          -4.6151   -8.3105   -3.1194 H       1  LIG1        0.0618
     95 H          -2.6674   -7.6781   -1.7207 H       1  LIG1        0.0618
     96 H          -2.2516   -5.3093   -1.1650 H       1  LIG1        0.0620
@<TRIPOS>BOND
     1     2     4    1
     2     4     5    1
     3     5     6    1
     4     6     7    1
     5     7     9    1
     6     2     9    1
     7     9    10    1
     8    10    11    1
     9    11    12    1
    10    12    14    1
    11     7    14    1
    12    14    15    1
    13    15    16    1
    14    16    17    2
    15    17    18    1
    16    12    18    1
    17    18    20    1
    18    20    21    1
    19    21    22    1
    20    22    24    1
    21    17    24    1
    22    24    25    1
    23    25    28    1
    24    28    31    1
    25    31    32    1
    26    22    32    1
    27    34    35    1
    28    35    36    1
    29    36    37    1
    30    37    38   ar
    31    38    39   ar
    32    39    40   ar
    33    40    41   ar
    34    41    42   ar
    35    37    42   ar
    36    35    43    2
    37     1     2    1
    38     2     3    1
    39     4    33    1
    40     4    34    1
    41     7     8    1
    42    12    13    1
    43    18    19    1
    44    22    23    1
    45    25    26    1
    46    25    27    1
    47    28    30    1
    48    28    29    1
    49     1    44    1
    50     1    45    1
    51     1    46    1
    52     3    47    1
    53     3    48    1
    54     3    49    1
    55     5    50    1
    56     5    51    1
    57     6    52    1
    58     6    53    1
    59     8    54    1
    60     8    55    1
    61     8    56    1
    62     9    57    1
    63    10    58    1
    64    10    59    1
    65    11    60    1
    66    11    61    1
    67    13    62    1
    68    13    63    1
    69    13    64    1
    70    14    65    1
    71    15    66    1
    72    15    67    1
    73    16    68    1
    74    19    69    1
    75    19    70    1
    76    19    71    1
    77    20    72    1
    78    20    73    1
    79    21    74    1
    80    21    75    1
    81    23    76    1
    82    23    77    1
    83    23    78    1
    84    24    79    1
    85    27    80    1
    86    27    81    1
    87    27    82    1
    88    30    83    1
    89    30    84    1
    90    30    85    1
    91    31    86    1
    92    31    87    1
    93    32    88    1
    94    32    89    1
    95    36    90    1
    96    36    91    1
    97    38    92    1
    98    39    93    1
    99    40    94    1
   100    41    95    1
   101    42    96    1
