REMARK  Name = NuBBE_2380
REMARK  12 active torsions:
REMARK  status: ('A' for Active; 'I' for Inactive)
REMARK    1  A    between atoms: C_1  and  C_26
REMARK    2  A    between atoms: C_1  and  C_27
REMARK    3  A    between atoms: C_3  and  C_4
REMARK    4  A    between atoms: C_4  and  O_6
REMARK    5  A    between atoms: O_6  and  C_7
REMARK    6  A    between atoms: C_9  and  O_21
REMARK    7  A    between atoms: C_10  and  O_11
REMARK    8  A    between atoms: O_11  and  C_12
REMARK    9  A    between atoms: C_13  and  C_18
REMARK   10  A    between atoms: C_18  and  C_19
REMARK   11  A    between atoms: C_18  and  C_20
REMARK   12  A    between atoms: O_21  and  C_22
REMARK                            x       y       z     vdW  Elec       q    Type
REMARK                         _______ _______ _______ _____ _____    ______ ____
ROOT
ATOM      1  C   LIG A   1       0.777  -3.648   0.700  0.00  0.00    -0.027 C 
ATOM      2  C   LIG A   1      -0.054  -2.289   0.841  0.00  0.00    +0.039 C 
ATOM      3  C   LIG A   1      -0.040  -1.274  -0.434  0.00  0.00    +0.103 C 
ATOM      4  C   LIG A   1       0.024   0.280  -0.077  0.00  0.00    +0.022 A 
ATOM      5  C   LIG A   1      -0.009   1.372  -1.032  0.00  0.00    +0.167 A 
ATOM      6  C   LIG A   1       0.013   2.759  -0.590  0.00  0.00    +0.165 A 
ATOM      7  C   LIG A   1      -0.038   3.064   0.789  0.00  0.00    +0.001 A 
ATOM      8  C   LIG A   1       0.033   1.978   1.675  0.00  0.00    +0.016 A 
ATOM      9  C   LIG A   1       0.096   0.634   1.273  0.00  0.00    -0.017 A 
ATOM     10  C   LIG A   1       0.272  -0.325   2.354  0.00  0.00    +0.004 C 
ATOM     11  C   LIG A   1       0.211  -1.640   2.169  0.00  0.00    -0.021 C 
ATOM     12  C   LIG A   1       1.220  -1.625  -1.260  0.00  0.00    +0.023 C 
ATOM     13  C   LIG A   1       1.351  -3.077  -1.730  0.00  0.00    +0.002 C 
ATOM     14  C   LIG A   1       0.806  -4.121  -0.763  0.00  0.00    +0.007 C 
ATOM     15  C   LIG A   1       0.081  -4.771   1.522  0.00  0.00    +0.011 C 
ATOM     16  C   LIG A   1       2.234  -3.577   1.226  0.00  0.00    +0.011 C 
ENDROOT
BRANCH   7  17
ATOM     17  C   LIG A   1      -0.128   4.436   1.454  0.00  0.00    +0.017 C 
ATOM     18  C   LIG A   1      -1.367   4.557   2.347  0.00  0.00    +0.012 C 
ATOM     19  C   LIG A   1       1.170   4.895   2.129  0.00  0.00    +0.012 C 
ENDBRANCH   7  17
BRANCH   3  20
ATOM     20  C   LIG A   1      -1.422  -1.551  -1.089  0.00  0.00    +0.318 C 
ATOM     21  O   LIG A   1      -2.481  -0.966  -0.734  0.00  0.00    -0.250 OA
BRANCH  20  22
ATOM     22  O   LIG A   1      -1.441  -2.621  -1.912  0.00  0.00    -0.467 OA
ATOM     23  C   LIG A   1      -2.710  -3.199  -2.276  0.00  0.00    +0.280 C 
ENDBRANCH  20  22
ENDBRANCH   3  20
BRANCH   6  24
ATOM     24  O   LIG A   1       0.326   3.699  -1.545  0.00  0.00    -0.491 OA
ATOM     25  C   LIG A   1      -0.303   4.973  -1.566  0.00  0.00    +0.277 C 
ENDBRANCH   6  24
BRANCH   5  26
ATOM     26  O   LIG A   1       0.044   1.001  -2.366  0.00  0.00    -0.491 OA
ATOM     27  C   LIG A   1      -0.529   1.826  -3.385  0.00  0.00    +0.277 C 
ENDBRANCH   5  26
TORSDOF 5
