@<TRIPOS>MOLECULE
NuBBE_1808
 51 50 0 0 0
SMALL
GASTEIGER

@<TRIPOS>ATOM
      1 C           0.4143    0.6767   -2.6391 C.3     1  LIG1       -0.0653
      2 C          -0.4808    1.5350   -1.8814 C.3     1  LIG1       -0.0557
      3 C          -0.7256    0.6584   -0.5025 C.3     1  LIG1       -0.0507
      4 C          -0.3492    0.0565    1.3158 C.3     1  LIG1       -0.0439
      5 C          -1.4195   -0.1218    2.6258 C.3     1  LIG1       -0.0624
      6 C           0.3958   -1.2480    1.3766 C.3     1  LIG1       -0.0505
      7 C          -0.2074   -2.2585    0.4875 C.3     1  LIG1       -0.0528
      8 C           0.9286   -3.2293    0.2312 C.3     1  LIG1       -0.0530
      9 C           2.0590   -2.8107   -0.7770 C.3     1  LIG1       -0.0531
     10 C           3.1247   -1.6574   -0.4824 C.3     1  LIG1       -0.0531
     11 C           2.8268   -0.1357   -0.7592 C.3     1  LIG1       -0.0531
     12 C           1.8502    0.5793    0.2004 C.3     1  LIG1       -0.0530
     13 C           1.0710    2.0418    0.3781 C.3     1  LIG1       -0.0528
     14 C          -0.6841    2.3466    1.1540 C.3     1  LIG1       -0.0496
     15 C          -2.3959    1.4171    0.8483 C.3     1  LIG1       -0.0350
     16 C          -3.0035    0.9792   -0.5092 C.2     1  LIG1       -0.0911
     17 C          -4.3368    1.4339   -0.8036 C.2     1  LIG1       -0.1026
     18 H           0.7885    1.0301   -3.5812 H       1  LIG1        0.0230
     19 H           0.0551   -0.3564   -2.6017 H       1  LIG1        0.0230
     20 H           1.2548    0.7910   -2.0189 H       1  LIG1        0.0230
     21 H          -1.4080    1.7274   -2.4569 H       1  LIG1        0.0263
     22 H          -0.1867    2.6059   -1.7587 H       1  LIG1        0.0263
     23 H          -1.1974   -0.2111   -0.8741 H       1  LIG1        0.0268
     24 H          -1.2115    1.6275   -0.4671 H       1  LIG1        0.0268
     25 H           0.3724    0.6858    1.8582 H       1  LIG1        0.0298
     26 H          -1.7346   -1.1622    2.6595 H       1  LIG1        0.0232
     27 H          -2.3925    0.3874    2.7208 H       1  LIG1        0.0232
     28 H          -0.9559    0.2798    3.5383 H       1  LIG1        0.0232
     29 H           0.7042   -1.4454    2.4109 H       1  LIG1        0.0268
     30 H           1.3958   -1.2523    1.0086 H       1  LIG1        0.0268
     31 H          -0.5415   -1.8802   -0.4797 H       1  LIG1        0.0265
     32 H          -1.0806   -2.6381    1.0187 H       1  LIG1        0.0265
     33 H           0.4432   -4.1453   -0.1048 H       1  LIG1        0.0265
     34 H           1.4204   -3.4285    1.1902 H       1  LIG1        0.0265
     35 H           1.6423   -2.7056   -1.7869 H       1  LIG1        0.0265
     36 H           2.6736   -3.7254   -0.8178 H       1  LIG1        0.0265
     37 H           3.9335   -1.8591   -1.2032 H       1  LIG1        0.0265
     38 H           3.5493   -1.7884    0.5140 H       1  LIG1        0.0265
     39 H           2.4788   -0.2764   -1.7815 H       1  LIG1        0.0265
     40 H           3.7000    0.4986   -0.7842 H       1  LIG1        0.0265
     41 H           2.2100    0.3326    1.2014 H       1  LIG1        0.0265
     42 H           1.0804   -0.0344   -0.2330 H       1  LIG1        0.0265
     43 H           1.0621    2.3494   -0.6429 H       1  LIG1        0.0265
     44 H           1.8088    2.7580    0.7488 H       1  LIG1        0.0265
     45 H          -0.9144    3.3692    0.8888 H       1  LIG1        0.0268
     46 H          -0.5136    2.3254    2.2502 H       1  LIG1        0.0268
     47 H          -3.0799    1.7729    1.5824 H       1  LIG1        0.0307
     48 H          -2.3408    0.2794    0.9549 H       1  LIG1        0.0307
     49 H          -2.7586    0.4921   -1.3586 H       1  LIG1        0.0566
     50 H          -4.8043    1.8864    0.0139 H       1  LIG1        0.0532
     51 H          -4.5205    1.4466   -1.8719 H       1  LIG1        0.0532
@<TRIPOS>BOND
     1     1     2    1
     2     2     3    1
     3     3     4    1
     4     4     5    1
     5     4     6    1
     6     6     7    1
     7     7     8    1
     8     8     9    1
     9     9    10    1
    10    10    11    1
    11    11    12    1
    12    12    13    1
    13    13    14    1
    14    14    15    1
    15    15    16    1
    16    16    17    2
    17     1    18    1
    18     1    19    1
    19     1    20    1
    20     2    21    1
    21     2    22    1
    22     3    23    1
    23     3    24    1
    24     4    25    1
    25     5    26    1
    26     5    27    1
    27     5    28    1
    28     6    29    1
    29     6    30    1
    30     7    31    1
    31     7    32    1
    32     8    33    1
    33     8    34    1
    34     9    35    1
    35     9    36    1
    36    10    37    1
    37    10    38    1
    38    11    39    1
    39    11    40    1
    40    12    41    1
    41    12    42    1
    42    13    43    1
    43    13    44    1
    44    14    45    1
    45    14    46    1
    46    15    47    1
    47    15    48    1
    48    16    49    1
    49    17    50    1
    50    17    51    1
