REMARK  Name = NuBBE_1805
REMARK  13 active torsions:
REMARK  status: ('A' for Active; 'I' for Inactive)
REMARK    1  A    between atoms: C_1  and  C_2
REMARK    2  A    between atoms: C_2  and  C_3
REMARK    3  A    between atoms: C_3  and  C_4
REMARK    4  A    between atoms: C_4  and  C_5
REMARK    5  A    between atoms: C_5  and  C_6
REMARK    6  A    between atoms: C_6  and  C_7
REMARK    7  A    between atoms: C_7  and  C_8
REMARK    8  A    between atoms: C_8  and  C_9
REMARK    9  A    between atoms: C_9  and  C_10
REMARK   10  A    between atoms: C_10  and  C_11
REMARK   11  A    between atoms: C_13  and  C_14
REMARK   12  A    between atoms: C_14  and  C_15
REMARK   13  A    between atoms: C_15  and  O_16
REMARK                            x       y       z     vdW  Elec       q    Type
REMARK                         _______ _______ _______ _____ _____    ______ ____
ROOT
ATOM      1  C   LIG A   1       1.199  -0.999   1.626  0.00  0.00    +0.045 C 
ENDROOT
BRANCH   1   2
ATOM      2  C   LIG A   1       0.361  -1.234   2.885  0.00  0.00    +0.177 C 
ATOM      3  C   LIG A   1      -0.686  -2.322   2.767  0.00  0.00    +0.059 C 
ATOM      4  C   LIG A   1      -0.820  -2.843   4.190  0.00  0.00    +0.103 C 
ATOM      5  C   LIG A   1       0.525  -2.502   4.779  0.00  0.00    +0.311 C 
ATOM      6  O   LIG A   1       1.216  -1.674   3.953  0.00  0.00    -0.461 OA
ATOM      7  O   LIG A   1       0.947  -2.897   5.867  0.00  0.00    -0.251 OA
BRANCH   4   8
ATOM      8  C   LIG A   1      -1.975  -2.189   4.944  0.00  0.00    +0.042 C 
BRANCH   8   9
ATOM      9  C   LIG A   1      -2.145  -2.738   6.357  0.00  0.00    +0.156 C 
BRANCH   9  10
ATOM     10  O   LIG A   1      -3.267  -2.115   6.970  0.00  0.00    -0.395 OA
ATOM     11  H   LIG A   1      -3.063  -1.169   7.062  0.00  0.00    +0.209 HD
ENDBRANCH   9  10
ENDBRANCH   8   9
ENDBRANCH   4   8
ENDBRANCH   1   2
BRANCH   1  12
ATOM     12  C   LIG A   1       0.399  -0.498   0.410  0.00  0.00    +0.003 C 
BRANCH  12  13
ATOM     13  C   LIG A   1       1.342  -0.219  -0.773  0.00  0.00    +0.000 C 
BRANCH  13  14
ATOM     14  C   LIG A   1       0.652  -0.010  -2.132  0.00  0.00    -0.000 C 
BRANCH  14  15
ATOM     15  C   LIG A   1       1.707   0.210  -3.236  0.00  0.00    -0.000 C 
BRANCH  15  16
ATOM     16  C   LIG A   1       1.145   0.462  -4.641  0.00  0.00    -0.000 C 
BRANCH  16  17
ATOM     17  C   LIG A   1       0.302   1.724  -4.814  0.00  0.00    -0.000 C 
BRANCH  17  18
ATOM     18  C   LIG A   1       1.034   3.036  -4.517  0.00  0.00    -0.000 C 
BRANCH  18  20
ATOM     19  C   LIG A   1      -1.077   4.201  -3.743  0.00  0.00    +0.004 C 
ATOM     20  C   LIG A   1       0.115   4.251  -4.689  0.00  0.00    -0.003 C 
ENDBRANCH  18  20
ENDBRANCH  17  18
ENDBRANCH  16  17
ENDBRANCH  15  16
ENDBRANCH  14  15
ENDBRANCH  13  14
ENDBRANCH  12  13
ENDBRANCH   1  12
TORSDOF 12
