REMARK  Name = NuBBE_643
REMARK  9 active torsions:
REMARK  status: ('A' for Active; 'I' for Inactive)
REMARK    1  A    between atoms: C_1  and  C_2
REMARK    2  A    between atoms: C_4  and  C_6
REMARK    3  A    between atoms: C_7  and  C_9
REMARK    4  A    between atoms: C_12  and  O_13
REMARK    5  A    between atoms: C_14  and  O_15
REMARK    6  A    between atoms: O_15  and  C_16
REMARK    7  A    between atoms: C_20  and  O_21
REMARK    8  A    between atoms: C_22  and  O_23
REMARK    9  A    between atoms: O_23  and  C_24
REMARK                            x       y       z     vdW  Elec       q    Type
REMARK                         _______ _______ _______ _____ _____    ______ ____
ROOT
ATOM      1  C   LIG A   1      -3.037   0.902  -0.575  0.00  0.00    +0.008 C 
ATOM      2  C   LIG A   1      -2.687   0.815   0.912  0.00  0.00    -0.006 C 
ATOM      3  C   LIG A   1      -1.991  -0.484   1.378  0.00  0.00    +0.001 C 
ATOM      4  C   LIG A   1      -2.831  -1.739   1.139  0.00  0.00    +0.009 C 
ATOM      5  C   LIG A   1      -0.510  -0.615   0.930  0.00  0.00    +0.053 C 
ATOM      6  C   LIG A   1       0.255   0.657   1.274  0.00  0.00    -0.033 A 
ATOM      7  C   LIG A   1       1.649   0.581   1.431  0.00  0.00    +0.053 A 
ATOM      8  C   LIG A   1       2.413   1.719   1.693  0.00  0.00    +0.159 A 
ATOM      9  C   LIG A   1       1.797   2.970   1.788  0.00  0.00    +0.162 A 
ATOM     10  C   LIG A   1       0.402   3.040   1.651  0.00  0.00    +0.053 A 
ATOM     11  C   LIG A   1      -0.384   1.901   1.402  0.00  0.00    -0.040 A 
ATOM     12  C   LIG A   1      -1.888   2.051   1.373  0.00  0.00    +0.039 C 
ENDROOT
BRANCH   5  13
ATOM     13  C   LIG A   1      -0.236  -1.090  -0.502  0.00  0.00    -0.036 A 
ATOM     14  C   LIG A   1      -0.069  -0.203  -1.573  0.00  0.00    +0.008 A 
ATOM     15  C   LIG A   1       0.171  -0.662  -2.871  0.00  0.00    +0.049 A 
ATOM     16  C   LIG A   1       0.308  -2.029  -3.113  0.00  0.00    +0.159 A 
ATOM     17  C   LIG A   1       0.221  -2.937  -2.059  0.00  0.00    +0.162 A 
ATOM     18  C   LIG A   1      -0.073  -2.463  -0.767  0.00  0.00    +0.053 A 
BRANCH  16  19
ATOM     19  O   LIG A   1       0.516  -2.440  -4.401  0.00  0.00    -0.503 OA
ATOM     20  H   LIG A   1       0.420  -1.679  -4.995  0.00  0.00    +0.292 HD
ENDBRANCH  16  19
BRANCH  17  21
ATOM     21  O   LIG A   1       0.353  -4.301  -2.127  0.00  0.00    -0.491 OA
ATOM     22  C   LIG A   1       1.180  -4.805  -3.171  0.00  0.00    +0.277 C 
ENDBRANCH  17  21
ENDBRANCH   5  13
BRANCH   8  23
ATOM     23  O   LIG A   1       3.761   1.564   1.852  0.00  0.00    -0.503 OA
ATOM     24  H   LIG A   1       3.981   0.620   1.780  0.00  0.00    +0.292 HD
ENDBRANCH   8  23
BRANCH   9  25
ATOM     25  O   LIG A   1       2.381   4.187   2.013  0.00  0.00    -0.491 OA
ATOM     26  C   LIG A   1       3.795   4.229   2.153  0.00  0.00    +0.277 C 
ENDBRANCH   9  25
TORSDOF 5
