@<TRIPOS>MOLECULE
NuBBE_2288
 49 52 0 0 0
SMALL
GASTEIGER

@<TRIPOS>ATOM
      1 C           1.1848    2.8111    0.0492 C.3     1  LIG1       -0.0555
      2 C           0.8004    1.3701    0.5031 C.3     1  LIG1       -0.0068
      3 C          -0.7367    1.2800    0.3716 C.2     1  LIG1       -0.0536
      4 C          -1.6065    1.4037    1.3988 C.2     1  LIG1       -0.0183
      5 C          -2.8049    0.4648    1.3998 C.2     1  LIG1        0.1631
      6 O          -3.6110    0.5362    2.2612 O.2     1  LIG1       -0.2920
      7 C          -2.8620   -0.5938    0.2462 C.3     1  LIG1        0.0431
      8 H          -3.2239   -1.5514    0.6256 H       1  LIG1        0.0426
      9 C          -1.5146   -0.7520   -0.4335 C.3     1  LIG1       -0.0298
     10 C          -1.2594    0.6637   -0.9318 C.3     1  LIG1       -0.0027
     11 C          -2.6790    1.1242   -1.4206 C.3     1  LIG1       -0.0219
     12 C          -3.5495   -0.0098   -0.9382 C.2     1  LIG1       -0.0653
     13 C          -4.5240   -0.6241   -1.6178 C.2     1  LIG1       -0.0987
     14 C          -0.2811    0.7979   -2.0867 C.3     1  LIG1       -0.0430
     15 C           1.0937    0.2223   -1.8133 C.3     1  LIG1       -0.0481
     16 C           1.5318    0.1856   -0.3391 C.3     1  LIG1       -0.0267
     17 H           2.5753    0.5503   -0.3754 H       1  LIG1        0.0314
     18 C           1.8100   -1.3618    0.2474 C.3     1  LIG1       -0.0313
     19 C           2.7842   -2.0926   -0.7366 C.3     1  LIG1       -0.0595
     20 C           0.7685   -2.4920    0.5592 C.3     1  LIG1       -0.0595
     21 C           2.4715   -1.2003    1.6046 C.3     1  LIG1       -0.0476
     22 C           2.0874    0.0805    2.3037 C.3     1  LIG1       -0.0518
     23 C           1.3215    1.3247    1.9292 C.3     1  LIG1       -0.0436
     24 H           0.7852    3.0945   -0.9220 H       1  LIG1        0.0238
     25 H           2.2731    2.9519    0.0259 H       1  LIG1        0.0238
     26 H           0.7953    3.5522    0.7681 H       1  LIG1        0.0238
     27 H          -1.4182    1.8815    2.3510 H       1  LIG1        0.0652
     28 H          -1.4838   -1.5023   -1.2307 H       1  LIG1        0.0284
     29 H          -0.8136   -1.0168    0.3321 H       1  LIG1        0.0284
     30 H          -2.7386    1.2274   -2.5091 H       1  LIG1        0.0319
     31 H          -2.9873    2.0741   -0.9669 H       1  LIG1        0.0319
     32 H          -4.8651   -0.2523   -2.5769 H       1  LIG1        0.0535
     33 H          -4.9387   -1.5653   -1.2653 H       1  LIG1        0.0535
     34 H          -0.1919    1.8550   -2.3719 H       1  LIG1        0.0274
     35 H          -0.6802    0.3037   -2.9813 H       1  LIG1        0.0274
     36 H           1.8183    0.8361   -2.3665 H       1  LIG1        0.0269
     37 H           1.1304   -0.7684   -2.2691 H       1  LIG1        0.0269
     38 H           2.3871   -3.0672   -1.0521 H       1  LIG1        0.0235
     39 H           3.7697   -2.2811   -0.3049 H       1  LIG1        0.0235
     40 H           2.9431   -1.5364   -1.6603 H       1  LIG1        0.0235
     41 H           0.2179   -2.8372   -0.3187 H       1  LIG1        0.0235
     42 H           0.0896   -2.2748    1.3944 H       1  LIG1        0.0235
     43 H           1.3027   -3.3931    0.9182 H       1  LIG1        0.0235
     44 H           3.5653   -1.3109    1.5725 H       1  LIG1        0.0271
     45 H           2.2213   -2.0202    2.3105 H       1  LIG1        0.0271
     46 H           1.4029   -0.2977    3.0549 H       1  LIG1        0.0266
     47 H           3.0755    0.5224    2.4034 H       1  LIG1        0.0266
     48 H           1.9982    2.1734    2.1538 H       1  LIG1        0.0274
     49 H           0.5653    1.5141    2.7043 H       1  LIG1        0.0274
@<TRIPOS>BOND
     1     1     2    1
     2     2     3    1
     3     3     4    2
     4     4     5    1
     5     5     6    2
     6     5     7    1
     7     7     8    1
     8     7     9    1
     9     9    10    1
    10     3    10    1
    11    10    11    1
    12    11    12    1
    13     7    12    1
    14    12    13    2
    15    10    14    1
    16    14    15    1
    17    15    16    1
    18    16    17    1
    19     2    16    1
    20    16    18    1
    21    18    19    1
    22    18    20    1
    23    18    21    1
    24    21    22    1
    25    22    23    1
    26     2    23    1
    27     1    24    1
    28     1    25    1
    29     1    26    1
    30     4    27    1
    31     9    28    1
    32     9    29    1
    33    11    30    1
    34    11    31    1
    35    13    32    1
    36    13    33    1
    37    14    34    1
    38    14    35    1
    39    15    36    1
    40    15    37    1
    41    19    38    1
    42    19    39    1
    43    19    40    1
    44    20    41    1
    45    20    42    1
    46    20    43    1
    47    21    44    1
    48    21    45    1
    49    22    46    1
    50    22    47    1
    51    23    48    1
    52    23    49    1
