@<TRIPOS>MOLECULE
NuBBE_2339
 54 56 0 0 0
SMALL
GASTEIGER

@<TRIPOS>ATOM
      1 C          -1.0889    2.1047   -4.2968 C.3     1  LIG1        0.0790
      2 O          -1.1953    3.1706   -3.3596 O.3     1  LIG1       -0.4913
      3 C          -1.0250    2.8577   -2.0361 C.ar    1  LIG1        0.1655
      4 C          -1.7366    3.5749   -1.0462 C.ar    1  LIG1        0.2035
      5 O          -2.5524    4.6513   -1.2900 O.3     1  LIG1       -0.4885
      6 C          -2.6634    5.1533   -2.6133 C.3     1  LIG1        0.0791
      7 C          -1.5990    3.1729    0.2992 C.ar    1  LIG1        0.1655
      8 O          -2.2336    3.6597    1.4165 O.3     1  LIG1       -0.4913
      9 C          -3.1619    4.7263    1.2927 C.3     1  LIG1        0.0790
     10 C          -0.7031    2.1378    0.6273 C.ar    1  LIG1       -0.0094
     11 C           0.0768    1.4954   -0.3425 C.ar    1  LIG1        0.0001
     12 C           1.1626    0.5033    0.0108 C.3     1  LIG1        0.1287
     13 H           2.1106    0.9881   -0.2788 H       1  LIG1        0.0787
     14 O           1.2462    0.3236    1.4254 O.2     1  LIG1       -0.4872
     15 C           1.4185   -1.0258    1.6115 C.2     1  LIG1        0.1130
     16 C           0.8413   -1.8713    0.5148 C.3     1  LIG1        0.0595
     17 C          -0.6905   -2.1252    0.7517 C.3     1  LIG1       -0.0185
     18 C          -1.0531   -2.9241    1.9897 C.2     1  LIG1       -0.0899
     19 C          -2.0973   -3.7583    2.0800 C.2     1  LIG1       -0.1026
     20 C           1.0614   -0.8998   -0.6662 C.3     1  LIG1        0.0138
     21 H           0.2209   -0.9430   -1.3726 H       1  LIG1        0.0350
     22 C           2.3349   -1.1541   -1.4951 C.3     1  LIG1       -0.0575
     23 C           2.1629   -1.4784    2.6176 C.2     1  LIG1        0.0271
     24 C           2.4932   -2.9118    2.6788 C.2     1  LIG1        0.2231
     25 C           2.2836   -3.7319    1.4215 C.2     1  LIG1        0.1637
     26 O           2.7952   -5.0125    1.2483 O.2     1  LIG1       -0.4916
     27 C           3.5541   -5.5422    2.3304 C.3     1  LIG1        0.0790
     28 C           1.5419   -3.2114    0.4273 C.2     1  LIG1       -0.0243
     29 O           2.9448   -3.3505    3.7236 O.2     1  LIG1       -0.2839
     30 C          -0.0976    1.8744   -1.6724 C.ar    1  LIG1       -0.0094
     31 H          -0.0994    2.1385   -4.7611 H       1  LIG1        0.0660
     32 H          -1.8405    2.2695   -5.0741 H       1  LIG1        0.0660
     33 H          -1.2782    1.1161   -3.8642 H       1  LIG1        0.0660
     34 H          -3.1779    4.4295   -3.2535 H       1  LIG1        0.0660
     35 H          -1.6878    5.4504   -3.0136 H       1  LIG1        0.0660
     36 H          -3.2834    6.0533   -2.5904 H       1  LIG1        0.0660
     37 H          -3.6732    4.8377    2.2550 H       1  LIG1        0.0660
     38 H          -3.9419    4.5150    0.5562 H       1  LIG1        0.0660
     39 H          -2.6407    5.6668    1.0876 H       1  LIG1        0.0660
     40 H          -0.5977    1.8659    1.6780 H       1  LIG1        0.0659
     41 H          -1.0988   -2.6400   -0.1308 H       1  LIG1        0.0320
     42 H          -1.2165   -1.1664    0.8264 H       1  LIG1        0.0320
     43 H          -0.4417   -2.7942    2.8801 H       1  LIG1        0.0567
     44 H          -2.7809   -3.9222    1.2542 H       1  LIG1        0.0532
     45 H          -2.3055   -4.2794    3.0116 H       1  LIG1        0.0532
     46 H           3.2337   -1.1593   -0.8688 H       1  LIG1        0.0234
     47 H           2.4644   -0.3742   -2.2546 H       1  LIG1        0.0234
     48 H           2.2780   -2.1102   -2.0251 H       1  LIG1        0.0234
     49 H           2.5689   -0.8376    3.3905 H       1  LIG1        0.0691
     50 H           3.8730   -6.5528    2.0632 H       1  LIG1        0.0660
     51 H           2.9423   -5.6303    3.2336 H       1  LIG1        0.0660
     52 H           4.4538   -4.9414    2.5007 H       1  LIG1        0.0660
     53 H           1.3695   -3.8097   -0.4632 H       1  LIG1        0.0620
     54 H           0.5289    1.4211   -2.4352 H       1  LIG1        0.0659
@<TRIPOS>BOND
     1     1     2    1
     2     2     3    1
     3     3     4   ar
     4     4     5    1
     5     5     6    1
     6     4     7   ar
     7     7     8    1
     8     8     9    1
     9     7    10   ar
    10    10    11   ar
    11    11    12    1
    12    12    13    1
    13    12    14    1
    14    14    15    1
    15    15    16    1
    16    16    17    1
    17    17    18    1
    18    18    19    2
    19    16    20    1
    20    12    20    1
    21    15    23    2
    22    23    24    1
    23    24    25    1
    24    25    26    1
    25    26    27    1
    26    25    28    2
    27    16    28    1
    28    24    29    2
    29    11    30   ar
    30     3    30   ar
    31    20    22    1
    32    20    21    1
    33     1    31    1
    34     1    32    1
    35     1    33    1
    36     6    34    1
    37     6    35    1
    38     6    36    1
    39     9    37    1
    40     9    38    1
    41     9    39    1
    42    10    40    1
    43    17    41    1
    44    17    42    1
    45    18    43    1
    46    19    44    1
    47    19    45    1
    48    22    46    1
    49    22    47    1
    50    22    48    1
    51    23    49    1
    52    27    50    1
    53    27    51    1
    54    27    52    1
    55    28    53    1
    56    30    54    1
