@<TRIPOS>MOLECULE
NuBBE_357
 42 42 0 0 0
SMALL
GASTEIGER

@<TRIPOS>ATOM
      1 O          -2.5788   -0.7558   -1.9246 O.3     1  LIG1       -0.5065
      2 C          -2.4069   -1.9536   -1.2927 C.ar    1  LIG1        0.1204
      3 C          -2.2452   -2.0655    0.0941 C.ar    1  LIG1       -0.0015
      4 C          -2.2523   -0.8771    1.0325 C.3     1  LIG1       -0.0058
      5 C          -0.9083   -0.1957    1.1174 C.2     1  LIG1       -0.0806
      6 C          -0.6059    1.1024    0.8999 C.2     1  LIG1       -0.0759
      7 C          -1.6099    2.1700    0.5570 C.3     1  LIG1       -0.0438
      8 C           0.8296    1.6031    1.0432 C.3     1  LIG1       -0.0286
      9 C           1.5976    1.5912   -0.2864 C.3     1  LIG1       -0.0308
     10 C           3.0275    2.0569   -0.1531 C.2     1  LIG1       -0.0850
     11 C           3.5083    3.3053   -0.3242 C.2     1  LIG1       -0.0796
     12 C           2.6666    4.5193   -0.6048 C.3     1  LIG1       -0.0440
     13 C           4.9876    3.5875   -0.2389 C.3     1  LIG1       -0.0440
     14 C          -2.0657   -3.3505    0.6370 C.ar    1  LIG1       -0.0408
     15 C          -2.0595   -4.4967   -0.1813 C.ar    1  LIG1        0.0593
     16 C          -1.8663   -5.8521    0.3839 C.2     1  LIG1        0.3368
     17 O          -1.6696   -5.8308    1.7120 O.3     1  LIG1       -0.4771
     18 O          -1.8754   -6.9027   -0.2461 O.2     1  LIG1       -0.2451
     19 C          -2.2354   -4.3534   -1.5620 C.ar    1  LIG1       -0.0443
     20 C          -2.4086   -3.0841   -2.1131 C.ar    1  LIG1       -0.0191
     21 H          -2.3811   -0.0381   -1.3017 H       1  LIG1        0.2921
     22 H          -2.5299   -1.2140    2.0401 H       1  LIG1        0.0357
     23 H          -3.0600   -0.2033    0.7332 H       1  LIG1        0.0357
     24 H          -0.0939   -0.8655    1.3993 H       1  LIG1        0.0575
     25 H          -2.6448    1.8270    0.6153 H       1  LIG1        0.0274
     26 H          -1.4378    2.5412   -0.4576 H       1  LIG1        0.0274
     27 H          -1.5212    3.0088    1.2559 H       1  LIG1        0.0274
     28 H           1.3646    0.9960    1.7858 H       1  LIG1        0.0313
     29 H           0.8154    2.6208    1.4565 H       1  LIG1        0.0313
     30 H           1.0724    2.1813   -1.0460 H       1  LIG1        0.0310
     31 H           1.6227    0.5652   -0.6778 H       1  LIG1        0.0310
     32 H           3.7376    1.2564    0.0566 H       1  LIG1        0.0572
     33 H           1.5964    4.3327   -0.4866 H       1  LIG1        0.0274
     34 H           2.8431    4.8739   -1.6254 H       1  LIG1        0.0274
     35 H           2.9292    5.3277    0.0871 H       1  LIG1        0.0274
     36 H           5.5754    2.6823   -0.0552 H       1  LIG1        0.0274
     37 H           5.1964    4.2912    0.5738 H       1  LIG1        0.0274
     38 H           5.3437    4.0282   -1.1766 H       1  LIG1        0.0274
     39 H          -1.9363   -3.4617    1.7102 H       1  LIG1        0.0630
     40 H          -1.5447   -6.7687    1.9604 H       1  LIG1        0.2954
     41 H          -2.2356   -5.2284   -2.2102 H       1  LIG1        0.0627
     42 H          -2.5410   -2.9707   -3.1869 H       1  LIG1        0.0654
@<TRIPOS>BOND
     1     1     2    1
     2     2     3   ar
     3     3     4    1
     4     4     5    1
     5     5     6    2
     6     6     7    1
     7     6     8    1
     8     8     9    1
     9     9    10    1
    10    10    11    2
    11    11    12    1
    12    11    13    1
    13     3    14   ar
    14    14    15   ar
    15    15    16    1
    16    16    17    1
    17    16    18    2
    18    15    19   ar
    19    19    20   ar
    20     2    20   ar
    21     1    21    1
    22     4    22    1
    23     4    23    1
    24     5    24    1
    25     7    25    1
    26     7    26    1
    27     7    27    1
    28     8    28    1
    29     8    29    1
    30     9    30    1
    31     9    31    1
    32    10    32    1
    33    12    33    1
    34    12    34    1
    35    12    35    1
    36    13    36    1
    37    13    37    1
    38    13    38    1
    39    14    39    1
    40    17    40    1
    41    19    41    1
    42    20    42    1
