REMARK  Name = NuBBE_2115
REMARK  9 active torsions:
REMARK  status: ('A' for Active; 'I' for Inactive)
REMARK    1  A    between atoms: C_1  and  C_2
REMARK    2  A    between atoms: C_2  and  C_3
REMARK    3  A    between atoms: C_3  and  C_4
REMARK    4  A    between atoms: C_4  and  C_5
REMARK    5  A    between atoms: C_5  and  C_6
REMARK    6  A    between atoms: C_6  and  C_7
REMARK    7  A    between atoms: C_7  and  C_8
REMARK    8  A    between atoms: C_8  and  C_9
REMARK    9  A    between atoms: C_9  and  C_10
REMARK                            x       y       z     vdW  Elec       q    Type
REMARK                         _______ _______ _______ _____ _____    ______ ____
ROOT
ATOM      1  C   LIG A   1       0.661   0.024  -0.296  0.00  0.00    -0.000 C 
ENDROOT
BRANCH   1   2
ATOM      2  C   LIG A   1       0.236   0.854  -1.494  0.00  0.00    -0.000 C 
BRANCH   2   3
ATOM      3  C   LIG A   1      -0.067   2.302  -1.113  0.00  0.00    -0.000 C 
BRANCH   3   5
ATOM      4  C   LIG A   1      -1.833   2.588  -2.926  0.00  0.00    +0.004 C 
ATOM      5  C   LIG A   1      -0.542   3.119  -2.316  0.00  0.00    -0.003 C 
ENDBRANCH   3   5
ENDBRANCH   2   3
ENDBRANCH   1   2
BRANCH   1   6
ATOM      6  C   LIG A   1       0.826  -1.444  -0.678  0.00  0.00    -0.000 C 
BRANCH   6   7
ATOM      7  C   LIG A   1       1.302  -2.363   0.450  0.00  0.00    -0.000 C 
BRANCH   7   8
ATOM      8  C   LIG A   1       0.346  -2.501   1.646  0.00  0.00    -0.000 C 
BRANCH   8   9
ATOM      9  C   LIG A   1       0.450  -1.370   2.675  0.00  0.00    -0.003 C 
ATOM     10  C   LIG A   1      -0.568  -1.519   3.795  0.00  0.00    +0.004 C 
ENDBRANCH   8   9
ENDBRANCH   7   8
ENDBRANCH   6   7
ENDBRANCH   1   6
TORSDOF 7
