REMARK  Name = NuBBE_1867
REMARK  13 active torsions:
REMARK  status: ('A' for Active; 'I' for Inactive)
REMARK    1  A    between atoms: C_1  and  O_2
REMARK    2  A    between atoms: O_2  and  C_3
REMARK    3  A    between atoms: C_7  and  C_8
REMARK    4  A    between atoms: C_9  and  O_17
REMARK    5  A    between atoms: C_11  and  O_12
REMARK    6  A    between atoms: O_12  and  C_13
REMARK    7  A    between atoms: C_14  and  O_15
REMARK    8  A    between atoms: C_18  and  O_19
REMARK    9  A    between atoms: O_19  and  C_20
REMARK   10  A    between atoms: C_24  and  O_25
REMARK   11  A    between atoms: O_25  and  C_26
REMARK   12  A    between atoms: C_27  and  O_28
REMARK   13  A    between atoms: O_28  and  C_29
REMARK                            x       y       z     vdW  Elec       q    Type
REMARK                         _______ _______ _______ _____ _____    ______ ____
ROOT
ATOM      1  C   LIG A   1      -1.934  -0.645  -2.577  0.00  0.00    +0.180 A 
ATOM      2  C   LIG A   1      -0.882  -0.294  -1.726  0.00  0.00    +0.113 A 
ATOM      3  C   LIG A   1      -0.413  -1.171  -0.773  0.00  0.00    +0.147 A 
ATOM      4  O   LIG A   1       0.502  -0.796   0.183  0.00  0.00    -0.451 OA
ATOM      5  C   LIG A   1       0.792   0.562   0.298  0.00  0.00    +0.184 A 
ATOM      6  C   LIG A   1       0.504   1.481  -0.652  0.00  0.00    +0.211 A 
ATOM      7  C   LIG A   1      -0.115   0.936  -1.882  0.00  0.00    +0.238 A 
ATOM      8  O   LIG A   1       0.058   1.432  -3.002  0.00  0.00    -0.283 OA
ATOM      9  C   LIG A   1      -0.875  -2.481  -0.778  0.00  0.00    +0.096 A 
ATOM     10  C   LIG A   1      -1.781  -2.928  -1.764  0.00  0.00    +0.169 A 
ATOM     11  C   LIG A   1      -2.327  -1.992  -2.667  0.00  0.00    +0.204 A 
ENDROOT
BRANCH   5  12
ATOM     12  C   LIG A   1       1.486   0.917   1.551  0.00  0.00    +0.066 A 
ATOM     13  C   LIG A   1       2.881   0.850   1.696  0.00  0.00    +0.131 A 
ATOM     14  C   LIG A   1       3.514   1.226   2.887  0.00  0.00    +0.095 A 
ATOM     15  C   LIG A   1       2.762   1.648   3.980  0.00  0.00    +0.165 A 
ATOM     16  C   LIG A   1       1.370   1.695   3.846  0.00  0.00    +0.159 A 
ATOM     17  C   LIG A   1       0.732   1.345   2.654  0.00  0.00    +0.064 A 
BRANCH  15  18
ATOM     18  O   LIG A   1       3.265   2.015   5.203  0.00  0.00    -0.491 OA
ATOM     19  C   LIG A   1       4.686   1.964   5.338  0.00  0.00    +0.277 C 
ENDBRANCH  15  18
BRANCH  16  20
ATOM     20  O   LIG A   1       0.587   2.084   4.901  0.00  0.00    -0.503 OA
ATOM     21  H   LIG A   1       1.209   2.258   5.635  0.00  0.00    +0.292 HD
ENDBRANCH  16  20
BRANCH  13  22
ATOM     22  O   LIG A   1       3.723   0.408   0.710  0.00  0.00    -0.506 OA
ATOM     23  H   LIG A   1       3.204   0.162  -0.072  0.00  0.00    +0.292 HD
ENDBRANCH  13  22
ENDBRANCH   5  12
BRANCH   1  25
ATOM     24  C   LIG A   1      -3.020   1.433  -2.562  0.00  0.00    +0.277 C 
ATOM     25  O   LIG A   1      -2.637   0.278  -3.320  0.00  0.00    -0.490 OA
ENDBRANCH   1  25
BRANCH   6  26
ATOM     26  O   LIG A   1       0.839   2.818  -0.528  0.00  0.00    -0.488 OA
ATOM     27  C   LIG A   1      -0.032   3.715  -1.221  0.00  0.00    +0.277 C 
ENDBRANCH   6  26
BRANCH  10  28
ATOM     28  O   LIG A   1      -2.166  -4.244  -1.847  0.00  0.00    -0.491 OA
ATOM     29  C   LIG A   1      -1.188  -5.195  -1.418  0.00  0.00    +0.277 C 
ENDBRANCH  10  28
BRANCH  11  30
ATOM     30  O   LIG A   1      -3.075  -2.275  -3.782  0.00  0.00    -0.488 OA
ATOM     31  C   LIG A   1      -4.177  -3.159  -3.684  0.00  0.00    +0.277 C 
ENDBRANCH  11  30
TORSDOF 8
