REMARK  Name = NuBBE_678
REMARK  10 active torsions:
REMARK  status: ('A' for Active; 'I' for Inactive)
REMARK    1  A    between atoms: C_3  and  C_5
REMARK    2  A    between atoms: C_5  and  C_6
REMARK    3  A    between atoms: C_6  and  C_7
REMARK    4  A    between atoms: C_8  and  C_9
REMARK    5  A    between atoms: C_12  and  C_30
REMARK    6  A    between atoms: C_18  and  C_19
REMARK    7  A    between atoms: C_20  and  C_21
REMARK    8  A    between atoms: C_21  and  C_23
REMARK    9  A    between atoms: C_21  and  C_24
REMARK   10  A    between atoms: C_24  and  C_25
REMARK                            x       y       z     vdW  Elec       q    Type
REMARK                         _______ _______ _______ _____ _____    ______ ____
ROOT
ATOM      1  O   LIG A   1      -5.747  -0.518  -0.653  0.00  0.00    -0.250 OA
ATOM      2  C   LIG A   1      -4.662   0.036  -0.518  0.00  0.00    +0.320 C 
ATOM      3  C   LIG A   1      -3.387  -0.650  -0.107  0.00  0.00    +0.180 C 
ATOM      4  O   LIG A   1      -4.484   1.385  -0.680  0.00  0.00    -0.449 OA
ATOM      5  C   LIG A   1      -3.089   1.662  -0.699  0.00  0.00    +0.181 C 
ATOM      6  C   LIG A   1      -2.547   0.585   0.231  0.00  0.00    +0.095 C 
ATOM      7  C   LIG A   1      -1.056   0.611   0.374  0.00  0.00    +0.005 C 
ATOM      8  C   LIG A   1      -0.293  -0.461   0.644  0.00  0.00    +0.200 C 
ATOM      9  O   LIG A   1       1.075  -0.418   0.816  0.00  0.00    -0.463 OA
ATOM     10  C   LIG A   1       1.714   0.809   0.712  0.00  0.00    +0.128 C 
ATOM     11  C   LIG A   1       1.060   1.960   0.470  0.00  0.00    +0.056 C 
ATOM     12  C   LIG A   1      -0.397   1.940   0.322  0.00  0.00    +0.007 C 
ATOM     13  C   LIG A   1      -1.123   3.071   0.155  0.00  0.00    +0.095 C 
ATOM     14 CL   LIG A   1      -0.464   4.669   0.145  0.00  0.00    -0.079 Cl
ATOM     15  C   LIG A   1      -2.667   1.708  -2.175  0.00  0.00    +0.065 C 
ATOM     16  C   LIG A   1      -2.610   2.981  -0.078  0.00  0.00    +0.218 C 
ATOM     17  O   LIG A   1      -3.370   3.905   0.198  0.00  0.00    -0.287 OA
ENDROOT
BRANCH   3  18
ATOM     18  C   LIG A   1      -2.834  -1.582  -1.168  0.00  0.00    +0.173 C 
ATOM     19  O   LIG A   1      -2.005  -1.184  -1.987  0.00  0.00    -0.291 OA
BRANCH  18  20
ATOM     20  C   LIG A   1      -3.232  -3.041  -1.193  0.00  0.00    -0.011 C 
ATOM     21  C   LIG A   1      -2.255  -3.956  -1.885  0.00  0.00    +0.047 C 
ATOM     22  C   LIG A   1      -4.372  -3.491  -0.634  0.00  0.00    -0.024 C 
ATOM     23  C   LIG A   1      -4.860  -4.912  -0.650  0.00  0.00    +0.035 C 
ENDBRANCH  18  20
ENDBRANCH   3  18
BRANCH  10  24
ATOM     24  C   LIG A   1       3.143   0.714   0.845  0.00  0.00    +0.042 C 
ATOM     25  C   LIG A   1       3.861   1.380   1.763  0.00  0.00    -0.020 C 
BRANCH  25  26
ATOM     26  C   LIG A   1       5.364   1.308   1.919  0.00  0.00    +0.008 C 
ATOM     27  C   LIG A   1       5.710   0.204   2.922  0.00  0.00    +0.012 C 
BRANCH  26  28
ATOM     28  C   LIG A   1       6.144   1.113   0.602  0.00  0.00    +0.004 C 
ATOM     29  C   LIG A   1       5.915   2.242  -0.400  0.00  0.00    +0.004 C 
ENDBRANCH  26  28
ENDBRANCH  25  26
ENDBRANCH  10  24
TORSDOF 5
