REMARK  Name = NuBBE_1429
REMARK  4 active torsions:
REMARK  status: ('A' for Active; 'I' for Inactive)
REMARK    1  A    between atoms: C_1  and  C_2
REMARK    2  A    between atoms: C_1  and  C_3
REMARK    3  A    between atoms: C_1  and  C_4
REMARK    4  A    between atoms: C_8  and  C_16
REMARK                            x       y       z     vdW  Elec       q    Type
REMARK                         _______ _______ _______ _____ _____    ______ ____
ROOT
ATOM      1  C   LIG A   1       0.717  -0.892   0.114  0.00  0.00    +0.015 C 
ATOM      2  C   LIG A   1       1.380   0.013   1.185  0.00  0.00    +0.012 C 
ATOM      3  C   LIG A   1       1.307   1.524   0.898  0.00  0.00    +0.030 C 
ATOM      4  C   LIG A   1      -0.026   2.188   1.172  0.00  0.00    -0.076 C 
ATOM      5  C   LIG A   1      -0.852   2.684   0.228  0.00  0.00    -0.027 C 
ATOM      6  C   LIG A   1      -0.676   2.668  -1.268  0.00  0.00    +0.032 C 
ATOM      7  C   LIG A   1      -1.699   1.773  -1.988  0.00  0.00    +0.038 C 
ATOM      8  C   LIG A   1      -1.385   0.294  -1.899  0.00  0.00    -0.054 C 
ATOM      9  C   LIG A   1      -0.928  -0.403  -2.951  0.00  0.00    +0.012 C 
ATOM     10  C   LIG A   1      -1.682  -0.355  -0.638  0.00  0.00    -0.001 C 
ATOM     11  C   LIG A   1      -0.794  -0.864   0.233  0.00  0.00    -0.023 C 
ATOM     12  C   LIG A   1      -0.395   2.307   2.630  0.00  0.00    +0.038 C 
ENDROOT
BRANCH   1  13
ATOM     13  C   LIG A   1       1.291  -2.344   0.194  0.00  0.00    -0.010 C 
ATOM     14  C   LIG A   1       0.820  -3.215  -0.976  0.00  0.00    +0.008 C 
ATOM     15  C   LIG A   1       1.007  -3.065   1.517  0.00  0.00    +0.008 C 
ENDBRANCH   1  13
TORSDOF 1
