@<TRIPOS>MOLECULE
NuBBE_1788
 68 73 0 0 0
SMALL
GASTEIGER

@<TRIPOS>ATOM
      1 O          -2.6624   -1.3993   -0.2730 O.3     1  LIG1       -0.5059
      2 C          -1.3335   -1.5036   -0.6033 C.ar    1  LIG1        0.1317
      3 C          -0.3167   -0.8191    0.1300 C.ar    1  LIG1        0.0710
      4 C           1.0378   -1.1749   -0.2870 C.ar    1  LIG1        0.1544
      5 C           1.2521   -2.0838   -1.3521 C.ar    1  LIG1        0.1098
      6 C           0.1935   -2.6608   -2.0505 C.ar    1  LIG1        0.1348
      7 C          -1.0945   -2.3659   -1.6828 C.ar    1  LIG1        0.0229
      8 O           0.3238   -3.5389   -3.0936 O.3     1  LIG1       -0.5058
      9 C           2.6017   -2.4727   -1.7718 C.ar    1  LIG1        0.2381
     10 O           2.7240   -3.2464   -2.7098 O.2     1  LIG1       -0.2830
     11 C           3.7554   -1.9385   -1.0195 C.ar    1  LIG1        0.2107
     12 C           3.4732   -1.0821   -0.0098 C.ar    1  LIG1        0.1810
     13 O           2.1698   -0.6347    0.3278 O.2     1  LIG1       -0.4501
     14 C           4.5635   -0.5024    0.8494 C.ar    1  LIG1        0.0247
     15 C           4.3699   -0.2487    2.2186 C.ar    1  LIG1       -0.0057
     16 C           5.3900    0.2993    3.0007 C.ar    1  LIG1        0.1589
     17 O           5.2432    0.4941    4.3473 O.3     1  LIG1       -0.5033
     18 C           6.6110    0.6346    2.4360 C.ar    1  LIG1        0.1583
     19 C           6.8465    0.3827    1.1001 C.ar    1  LIG1       -0.0159
     20 C           5.8305   -0.1807    0.3187 C.ar    1  LIG1       -0.0473
     21 O           7.5965    1.1884    3.1983 O.3     1  LIG1       -0.5033
     22 O           5.0407   -2.3967   -1.3059 O.3     1  LIG1       -0.4883
     23 C           5.3785   -2.6615   -2.6725 C.3     1  LIG1        0.0791
     24 C          -0.7084    0.1636    1.2820 C.ar    1  LIG1        0.0450
     25 C          -1.8582    1.0667    1.3173 C.ar    1  LIG1        0.0327
     26 C          -2.0602    1.8930    2.4758 C.ar    1  LIG1       -0.0467
     27 C          -1.3298    1.8078    3.6413 C.ar    1  LIG1       -0.0158
     28 C          -0.2505    0.9768    3.6206 C.ar    1  LIG1        0.1589
     29 C           0.0518    0.1856    2.4872 C.ar    1  LIG1        0.1670
     30 O           1.1395   -0.6275    2.6862 O.3     1  LIG1       -0.5029
     31 O           0.5821    0.9006    4.7095 O.3     1  LIG1       -0.5033
     32 C          -2.9519    1.2706    0.2708 C.ar    1  LIG1        0.1815
     33 C          -4.2746    1.4955    0.5847 C.ar    1  LIG1        0.2107
     34 O          -4.6475    1.7931    1.8814 O.3     1  LIG1       -0.4883
     35 C          -5.9406    1.5465    2.4017 C.3     1  LIG1        0.0791
     36 C          -5.2410    1.5466   -0.5235 C.ar    1  LIG1        0.2381
     37 O          -6.4933    1.6451   -0.3525 O.2     1  LIG1       -0.2830
     38 C          -4.7422    1.4680   -1.8803 C.ar    1  LIG1        0.1092
     39 C          -3.3718    1.2569   -2.0719 C.ar    1  LIG1        0.1465
     40 O          -2.4873    1.1604   -1.0310 O.2     1  LIG1       -0.4506
     41 C          -2.8611    1.1154   -3.3616 C.ar    1  LIG1        0.0231
     42 C          -3.7184    1.2461   -4.4528 C.ar    1  LIG1        0.1239
     43 C          -5.0710    1.5160   -4.2770 C.ar    1  LIG1        0.0223
     44 C          -5.5901    1.5997   -2.9848 C.ar    1  LIG1        0.1348
     45 O          -6.9366    1.7968   -2.8828 O.3     1  LIG1       -0.5058
     46 O          -3.2630    1.1120   -5.7281 O.3     1  LIG1       -0.5065
     47 H          -3.1676   -1.5014   -1.1006 H       1  LIG1        0.2922
     48 H          -1.9032   -2.8494   -2.2234 H       1  LIG1        0.0691
     49 H           1.2857   -3.7127   -3.2324 H       1  LIG1        0.2922
     50 H           3.4263   -0.4837    2.6832 H       1  LIG1        0.0662
     51 H           4.6759   -0.2249    4.6789 H       1  LIG1        0.2923
     52 H           7.8111    0.6125    0.6600 H       1  LIG1        0.0655
     53 H           6.0640   -0.3666   -0.7255 H       1  LIG1        0.0626
     54 H           7.1950    1.2917    4.0835 H       1  LIG1        0.2923
     55 H           6.4396   -2.9318   -2.7128 H       1  LIG1        0.0660
     56 H           5.2324   -1.7772   -3.3035 H       1  LIG1        0.0660
     57 H           4.8514   -3.5273   -3.0808 H       1  LIG1        0.0660
     58 H          -2.8438    2.6463    2.5069 H       1  LIG1        0.0626
     59 H          -1.6217    2.3901    4.5083 H       1  LIG1        0.0655
     60 H           1.5062   -0.2925    3.5317 H       1  LIG1        0.2923
     61 H           0.2357    1.5122    5.3869 H       1  LIG1        0.2923
     62 H          -6.7349    2.0794    1.8767 H       1  LIG1        0.0660
     63 H          -5.9373    1.9426    3.4258 H       1  LIG1        0.0660
     64 H          -6.1245    0.4735    2.4588 H       1  LIG1        0.0660
     65 H          -1.7998    0.9299   -3.5045 H       1  LIG1        0.0691
     66 H          -5.7218    1.6380   -5.1401 H       1  LIG1        0.0691
     67 H          -7.1732    1.7843   -1.9310 H       1  LIG1        0.2922
     68 H          -2.6656    0.3435   -5.7535 H       1  LIG1        0.2921
@<TRIPOS>BOND
     1     1     2    1
     2     2     3   ar
     3     3     4   ar
     4     4     5   ar
     5     5     6   ar
     6     6     7   ar
     7     2     7   ar
     8     6     8    1
     9     5     9   ar
    10     9    10    2
    11     9    11   ar
    12    11    12   ar
    13    12    13   ar
    14     4    13   ar
    15    12    14    1
    16    14    15   ar
    17    15    16   ar
    18    16    17    1
    19    16    18   ar
    20    18    19   ar
    21    19    20   ar
    22    14    20   ar
    23    18    21    1
    24    11    22    1
    25    22    23    1
    26     3    24    1
    27    24    25   ar
    28    25    26   ar
    29    26    27   ar
    30    27    28   ar
    31    28    29   ar
    32    24    29   ar
    33    29    30    1
    34    28    31    1
    35    25    32    1
    36    32    33   ar
    37    33    34    1
    38    34    35    1
    39    33    36   ar
    40    36    37    2
    41    36    38   ar
    42    38    39   ar
    43    39    40   ar
    44    32    40   ar
    45    39    41   ar
    46    41    42   ar
    47    42    43   ar
    48    43    44   ar
    49    38    44   ar
    50    44    45    1
    51    42    46    1
    52     1    47    1
    53     7    48    1
    54     8    49    1
    55    15    50    1
    56    17    51    1
    57    19    52    1
    58    20    53    1
    59    21    54    1
    60    23    55    1
    61    23    56    1
    62    23    57    1
    63    26    58    1
    64    27    59    1
    65    30    60    1
    66    31    61    1
    67    35    62    1
    68    35    63    1
    69    35    64    1
    70    41    65    1
    71    43    66    1
    72    45    67    1
    73    46    68    1
