REMARK  Name = NuBBE_1212
REMARK  11 active torsions:
REMARK  status: ('A' for Active; 'I' for Inactive)
REMARK    1  A    between atoms: O_1  and  C_2
REMARK    2  A    between atoms: C_7  and  C_8
REMARK    3  A    between atoms: C_16  and  C_17
REMARK    4  A    between atoms: C_21  and  C_23
REMARK    5  A    between atoms: C_23  and  C_25
REMARK    6  A    between atoms: C_23  and  C_32
REMARK    7  A    between atoms: C_25  and  C_26
REMARK    8  A    between atoms: C_26  and  C_27
REMARK    9  A    between atoms: C_27  and  C_28
REMARK   10  A    between atoms: C_28  and  C_29
REMARK   11  A    between atoms: C_28  and  C_30
REMARK                            x       y       z     vdW  Elec       q    Type
REMARK                         _______ _______ _______ _____ _____    ______ ____
ROOT
ATOM      1  C   LIG A   1      -3.870  -1.145  -5.202  0.00  0.00    +0.119 C 
ATOM      2  C   LIG A   1      -2.413  -0.730  -4.994  0.00  0.00    +0.062 C 
ATOM      3  C   LIG A   1      -4.421  -1.941  -4.019  0.00  0.00    +0.032 C 
ATOM      4  C   LIG A   1      -4.215  -1.219  -2.688  0.00  0.00    +0.013 C 
ATOM      5  C   LIG A   1      -2.740  -0.843  -2.423  0.00  0.00    -0.008 C 
ATOM      6  C   LIG A   1      -1.892  -2.138  -2.254  0.00  0.00    +0.016 C 
ATOM      7  C   LIG A   1      -2.213  -0.063  -3.659  0.00  0.00    -0.065 C 
ATOM      8  C   LIG A   1      -1.598   1.135  -3.582  0.00  0.00    -0.027 C 
ATOM      9  C   LIG A   1      -1.270   1.788  -2.286  0.00  0.00    +0.031 C 
ATOM     10  C   LIG A   1      -1.331   0.757  -1.154  0.00  0.00    +0.000 C 
ATOM     11  C   LIG A   1      -2.683   0.060  -1.124  0.00  0.00    +0.003 C 
ATOM     12  C   LIG A   1      -3.022  -0.654   0.214  0.00  0.00    +0.005 C 
ATOM     13  C   LIG A   1      -2.396  -0.061   1.503  0.00  0.00    +0.007 C 
ATOM     14  C   LIG A   1      -0.896   0.346   1.325  0.00  0.00    -0.026 C 
ATOM     15  C   LIG A   1      -0.090  -0.942   1.109  0.00  0.00    +0.012 C 
ATOM     16  C   LIG A   1      -0.877   1.322   0.152  0.00  0.00    -0.001 C 
ATOM     17  C   LIG A   1      -1.458   2.625   0.698  0.00  0.00    +0.004 C 
ATOM     18  C   LIG A   1      -1.149   2.584   2.209  0.00  0.00    +0.004 C 
ATOM     19  C   LIG A   1      -0.324   1.284   2.453  0.00  0.00    -0.002 C 
ENDROOT
BRANCH   1  20
ATOM     20  O   LIG A   1      -3.974  -1.954  -6.372  0.00  0.00    -0.392 OA
ATOM     21  H   LIG A   1      -3.541  -1.474  -7.098  0.00  0.00    +0.210 HD
ENDBRANCH   1  20
BRANCH  19  22
ATOM     22  C   LIG A   1       1.252   1.631   2.512  0.00  0.00    -0.010 C 
ATOM     23  C   LIG A   1       1.816   2.421   1.313  0.00  0.00    +0.008 C 
BRANCH  22  24
ATOM     24  C   LIG A   1       2.205   0.434   2.824  0.00  0.00    +0.008 C 
BRANCH  24  25
ATOM     25  C   LIG A   1       3.619   0.871   3.313  0.00  0.00    +0.030 C 
BRANCH  25  26
ATOM     26  C   LIG A   1       4.627  -0.268   3.543  0.00  0.00    -0.074 C 
ATOM     27  C   LIG A   1       4.655  -0.898   4.703  0.00  0.00    +0.008 C 
BRANCH  26  28
ATOM     28  C   LIG A   1       5.631  -0.588   2.413  0.00  0.00    +0.008 C 
ATOM     29  C   LIG A   1       6.720  -1.624   2.774  0.00  0.00    +0.012 C 
ATOM     30  C   LIG A   1       4.859  -1.131   1.213  0.00  0.00    +0.012 C 
ENDBRANCH  26  28
ENDBRANCH  25  26
ENDBRANCH  24  25
ENDBRANCH  22  24
ENDBRANCH  19  22
TORSDOF 6
