@<TRIPOS>MOLECULE
NuBBE_1019
 44 45 0 0 0
SMALL
GASTEIGER

@<TRIPOS>ATOM
      1 C          -2.1035    1.5698   -3.0071 C.3     1  LIG1        0.0788
      2 O          -1.8065    0.3460   -2.3346 O.3     1  LIG1       -0.4946
      3 C          -1.2346    0.4681   -1.0915 C.ar    1  LIG1        0.1302
      4 C          -0.9496    1.7001   -0.5095 C.ar    1  LIG1        0.0229
      5 C          -0.4041    1.7835    0.7628 C.ar    1  LIG1        0.1358
      6 O          -0.2267    3.0643    1.1970 O.3     1  LIG1       -0.4814
      7 C           0.4735    3.2868    2.4275 C.3     1  LIG1        0.1235
      8 C           1.7779    3.9950    2.0492 C.3     1  LIG1       -0.0215
      9 C          -0.4159    4.2312    3.2437 C.3     1  LIG1       -0.0215
     10 C           0.7492    2.0459    3.2425 C.2     1  LIG1       -0.0408
     11 C           0.4472    0.8095    2.8307 C.2     1  LIG1       -0.0478
     12 C          -0.1136    0.6356    1.4958 C.ar    1  LIG1        0.0586
     13 C          -0.3787   -0.6186    0.9093 C.ar    1  LIG1        0.1373
     14 O          -0.2057   -1.7794    1.6283 O.3     1  LIG1       -0.4940
     15 C           1.1564   -2.2019    1.6658 C.3     1  LIG1        0.0788
     16 C          -0.9411   -0.7171   -0.3870 C.ar    1  LIG1        0.0372
     17 C          -1.1601   -2.0661   -1.0468 C.3     1  LIG1       -0.0106
     18 C          -0.0033   -2.3949   -1.9844 C.3     1  LIG1        0.0491
     19 C          -0.2186   -3.6996   -2.7096 C.2     1  LIG1        0.3071
     20 O           0.9025   -3.9473   -3.4520 O.3     1  LIG1       -0.4679
     21 C           1.2018   -5.3300   -3.6246 C.3     1  LIG1        0.0817
     22 O          -1.1543   -4.4563   -2.5693 O.2     1  LIG1       -0.2509
     23 H          -1.1786    2.0209   -3.3837 H       1  LIG1        0.0660
     24 H          -2.6509    2.2731   -2.3686 H       1  LIG1        0.0660
     25 H          -2.7566    1.3546   -3.8556 H       1  LIG1        0.0660
     26 H          -1.1399    2.6412   -1.0119 H       1  LIG1        0.0691
     27 H           1.5713    4.9131    1.4843 H       1  LIG1        0.0271
     28 H           2.3884    3.3660    1.3899 H       1  LIG1        0.0271
     29 H           2.3726    4.2585    2.9289 H       1  LIG1        0.0271
     30 H          -0.6621    5.1334    2.6709 H       1  LIG1        0.0271
     31 H           0.0632    4.5348    4.1799 H       1  LIG1        0.0271
     32 H          -1.3734    3.7522    3.4840 H       1  LIG1        0.0271
     33 H           1.1950    2.1832    4.2231 H       1  LIG1        0.0611
     34 H           0.6205   -0.0537    3.4592 H       1  LIG1        0.0624
     35 H           1.6035   -1.9236    2.6244 H       1  LIG1        0.0660
     36 H           1.7587   -1.8018    0.8435 H       1  LIG1        0.0660
     37 H           1.1669   -3.2945    1.6021 H       1  LIG1        0.0660
     38 H          -2.1116   -2.0678   -1.5924 H       1  LIG1        0.0321
     39 H          -1.2668   -2.8577   -0.2946 H       1  LIG1        0.0321
     40 H           0.9200   -2.5050   -1.3996 H       1  LIG1        0.0381
     41 H           0.1533   -1.6034   -2.7245 H       1  LIG1        0.0381
     42 H           2.2899   -5.4218   -3.5626 H       1  LIG1        0.0661
     43 H           0.8707   -5.6788   -4.6052 H       1  LIG1        0.0661
     44 H           0.7737   -5.9469   -2.8278 H       1  LIG1        0.0661
@<TRIPOS>BOND
     1     1     2    1
     2     2     3    1
     3     3     4   ar
     4     4     5   ar
     5     5     6    1
     6     6     7    1
     7     7     8    1
     8     7     9    1
     9     7    10    1
    10    10    11    2
    11     5    12   ar
    12    11    12    1
    13    12    13   ar
    14    13    14    1
    15    14    15    1
    16     3    16   ar
    17    13    16   ar
    18    16    17    1
    19    17    18    1
    20    18    19    1
    21    19    20    1
    22    20    21    1
    23    19    22    2
    24     1    23    1
    25     1    24    1
    26     1    25    1
    27     4    26    1
    28     8    27    1
    29     8    28    1
    30     8    29    1
    31     9    30    1
    32     9    31    1
    33     9    32    1
    34    10    33    1
    35    11    34    1
    36    15    35    1
    37    15    36    1
    38    15    37    1
    39    17    38    1
    40    17    39    1
    41    18    40    1
    42    18    41    1
    43    21    42    1
    44    21    43    1
    45    21    44    1
