@<TRIPOS>MOLECULE
NuBBE_1651
 56 57 0 0 0
SMALL
GASTEIGER

@<TRIPOS>ATOM
      1 C          -1.6649    0.1687   -1.3158 C.3     1  LIG1       -0.0058
      2 C          -1.9299    0.7755    0.0457 C.2     1  LIG1       -0.0809
      3 C          -2.8821    1.6047    0.5337 C.2     1  LIG1       -0.0793
      4 C          -3.8326    2.3472   -0.3473 C.3     1  LIG1       -0.0440
      5 C          -3.1184    1.9587    2.0043 C.3     1  LIG1       -0.0440
      6 C          -0.3245    0.5822   -1.8393 C.ar    1  LIG1       -0.0009
      7 C           0.8368   -0.1578   -1.6070 C.ar    1  LIG1        0.1278
      8 C           2.0573    0.2613   -2.0844 C.ar    1  LIG1       -0.0011
      9 C           3.1270   -0.6784   -1.6934 C.3     1  LIG1        0.0157
     10 C           2.3862   -1.5358   -0.6503 C.3     1  LIG1        0.1325
     11 H           2.5481   -2.6008   -0.8670 H       1  LIG1        0.0765
     12 O           0.9505   -1.2793   -0.8249 O.3     1  LIG1       -0.4851
     13 C           2.8211   -1.2415    0.8295 C.3     1  LIG1        0.1005
     14 C           2.0943   -2.1482    1.8818 C.3     1  LIG1       -0.0173
     15 C           0.5922   -1.9623    2.2739 C.3     1  LIG1       -0.0318
     16 C          -0.5390   -2.4115    1.3443 C.2     1  LIG1       -0.0852
     17 C          -1.8326   -1.9981    1.4044 C.2     1  LIG1       -0.0796
     18 C          -2.3111   -1.0285    2.4443 C.3     1  LIG1       -0.0440
     19 C          -2.9289   -2.3358    0.4055 C.3     1  LIG1       -0.0440
     20 C           4.3579   -1.3934    1.0383 C.3     1  LIG1       -0.0326
     21 O           2.5943    0.1437    1.1300 O.3     1  LIG1       -0.3852
     22 C           2.1947    1.4686   -2.7380 C.ar    1  LIG1       -0.0410
     23 C           1.0678    2.2796   -2.8754 C.ar    1  LIG1        0.0596
     24 C          -0.2023    1.8152   -2.4799 C.ar    1  LIG1       -0.0408
     25 C           1.2227    3.6490   -3.3679 C.2     1  LIG1        0.3368
     26 O           0.3249    4.2334   -4.0359 O.2     1  LIG1       -0.2451
     27 O           2.3631    4.2567   -3.0139 O.3     1  LIG1       -0.4771
     28 H          -2.4877    0.3296   -2.0198 H       1  LIG1        0.0357
     29 H          -1.5918   -0.9231   -1.2449 H       1  LIG1        0.0357
     30 H          -1.1839    0.3627    0.7088 H       1  LIG1        0.0575
     31 H          -3.7305    2.0810   -1.3984 H       1  LIG1        0.0274
     32 H          -3.6052    3.4136   -0.2414 H       1  LIG1        0.0274
     33 H          -4.8696    2.1806   -0.0401 H       1  LIG1        0.0274
     34 H          -2.4776    1.4817    2.7435 H       1  LIG1        0.0274
     35 H          -4.1489    1.7018    2.2971 H       1  LIG1        0.0274
     36 H          -2.9706    3.0268    2.1688 H       1  LIG1        0.0274
     37 H           3.9716   -0.1162   -1.2948 H       1  LIG1        0.0351
     38 H           3.4588   -1.2776   -2.5464 H       1  LIG1        0.0351
     39 H           2.6333   -1.9931    2.8327 H       1  LIG1        0.0297
     40 H           2.2731   -3.1999    1.6262 H       1  LIG1        0.0297
     41 H           0.4511   -0.9214    2.5855 H       1  LIG1        0.0308
     42 H           0.4605   -2.5673    3.1851 H       1  LIG1        0.0308
     43 H          -0.2584   -3.1115    0.5620 H       1  LIG1        0.0571
     44 H          -1.6791   -0.1492    2.4116 H       1  LIG1        0.0274
     45 H          -2.2174   -1.3875    3.4621 H       1  LIG1        0.0274
     46 H          -3.3508   -0.7202    2.2579 H       1  LIG1        0.0274
     47 H          -2.7027   -3.2029   -0.2145 H       1  LIG1        0.0274
     48 H          -3.1548   -1.5057   -0.2698 H       1  LIG1        0.0274
     49 H          -3.8837   -2.4805    0.9181 H       1  LIG1        0.0274
     50 H           4.7456   -2.3889    0.8011 H       1  LIG1        0.0258
     51 H           4.6185   -1.1671    2.0821 H       1  LIG1        0.0258
     52 H           4.9316   -0.6529    0.4668 H       1  LIG1        0.0258
     53 H           1.8200    0.4252    0.6119 H       1  LIG1        0.2103
     54 H           3.1696    1.7815   -3.0788 H       1  LIG1        0.0630
     55 H          -1.0871    2.4378   -2.6181 H       1  LIG1        0.0630
     56 H           2.8935    3.7697   -2.3495 H       1  LIG1        0.2954
@<TRIPOS>BOND
     1     1     2    1
     2     2     3    2
     3     3     4    1
     4     3     5    1
     5     1     6    1
     6     6     7   ar
     7     7     8   ar
     8     8     9    1
     9     9    10    1
    10    10    11    1
    11    10    12    1
    12     7    12    1
    13    10    13    1
    14    13    14    1
    15    14    15    1
    16    15    16    1
    17    16    17    2
    18    17    18    1
    19    17    19    1
    20    13    20    1
    21    13    21    1
    22     8    22   ar
    23    22    23   ar
    24    23    24   ar
    25     6    24   ar
    26    23    25    1
    27    25    26    2
    28    25    27    1
    29     1    28    1
    30     1    29    1
    31     2    30    1
    32     4    31    1
    33     4    32    1
    34     4    33    1
    35     5    34    1
    36     5    35    1
    37     5    36    1
    38     9    37    1
    39     9    38    1
    40    14    39    1
    41    14    40    1
    42    15    41    1
    43    15    42    1
    44    16    43    1
    45    18    44    1
    46    18    45    1
    47    18    46    1
    48    19    47    1
    49    19    48    1
    50    19    49    1
    51    20    50    1
    52    20    51    1
    53    20    52    1
    54    21    53    1
    55    22    54    1
    56    24    55    1
    57    27    56    1
