REMARK  Name = NuBBE_1821
REMARK  23 active torsions:
REMARK  status: ('A' for Active; 'I' for Inactive)
REMARK    1  A    between atoms: O_1  and  C_2
REMARK    2  A    between atoms: O_1  and  C_5
REMARK    3  A    between atoms: C_2  and  C_4
REMARK    4  A    between atoms: C_11  and  C_12
REMARK    5  A    between atoms: C_14  and  C_17
REMARK    6  A    between atoms: C_19  and  O_46
REMARK    7  A    between atoms: C_21  and  O_22
REMARK    8  A    between atoms: O_22  and  C_23
REMARK    9  A    between atoms: C_24  and  O_25
REMARK   10  A    between atoms: O_25  and  C_26
REMARK   11  A    between atoms: C_26  and  C_28
REMARK   12  A    between atoms: C_29  and  O_30
REMARK   13  A    between atoms: O_30  and  C_31
REMARK   14  A    between atoms: C_31  and  C_33
REMARK   15  A    between atoms: C_34  and  O_42
REMARK   16  A    between atoms: C_35  and  C_37
REMARK   17  A    between atoms: C_37  and  O_38
REMARK   18  A    between atoms: O_38  and  C_39
REMARK   19  A    between atoms: C_39  and  C_41
REMARK   20  A    between atoms: O_42  and  C_43
REMARK   21  A    between atoms: C_43  and  C_45
REMARK   22  A    between atoms: O_46  and  C_47
REMARK   23  A    between atoms: C_47  and  C_49
REMARK                            x       y       z     vdW  Elec       q    Type
REMARK                         _______ _______ _______ _____ _____    ______ ____
ROOT
ATOM      1  C   LIG A   1       2.102   0.423   1.422  0.00  0.00    +0.149 A 
ATOM      2  C   LIG A   1       2.032   0.214   0.003  0.00  0.00    +0.067 A 
ATOM      3  C   LIG A   1       3.274   0.293  -0.664  0.00  0.00    -0.007 A 
ATOM      4  C   LIG A   1       4.485   0.365   0.025  0.00  0.00    +0.021 A 
ATOM      5  C   LIG A   1       4.511   0.492   1.409  0.00  0.00    +0.030 A 
ATOM      6  C   LIG A   1       3.322   0.534   2.144  0.00  0.00    +0.035 A 
ATOM      7  C   LIG A   1       3.389   0.782   3.636  0.00  0.00    +0.150 C 
ATOM      8  C   LIG A   1       2.996   2.209   4.015  0.00  0.00    +0.043 C 
ATOM      9  O   LIG A   1       4.683   0.461   4.181  0.00  0.00    -0.361 OA
ATOM     10  C   LIG A   1       5.772   1.108   3.528  0.00  0.00    +0.187 C 
ATOM     11  C   LIG A   1       5.821   0.729   2.059  0.00  0.00    +0.192 C 
ATOM     12  O   LIG A   1       6.857   0.695   1.400  0.00  0.00    -0.289 OA
ATOM     13  C   LIG A   1       7.067   0.704   4.222  0.00  0.00    +0.046 C 
ATOM     14  C   LIG A   1       3.327   0.407  -2.044  0.00  0.00    +0.055 A 
ATOM     15  C   LIG A   1       2.161   0.569  -2.774  0.00  0.00    +0.136 A 
ATOM     16  C   LIG A   1       0.923   0.332  -2.183  0.00  0.00    +0.092 A 
ATOM     17  C   LIG A   1       0.856   0.033  -0.817  0.00  0.00    +0.139 A 
ENDROOT
BRANCH   1  18
ATOM     18  O   LIG A   1       0.903   0.618   2.144  0.00  0.00    -0.425 OA
BRANCH  18  19
ATOM     19  C   LIG A   1       0.012   1.559   1.601  0.00  0.00    +0.309 C 
ATOM     20  O   LIG A   1       0.266   2.436   0.790  0.00  0.00    -0.251 OA
ATOM     21  C   LIG A   1      -1.367   1.223   2.072  0.00  0.00    +0.136 C 
ENDBRANCH  18  19
ENDBRANCH   1  18
BRANCH  17  22
ATOM     22  O   LIG A   1      -0.333  -0.344  -0.206  0.00  0.00    -0.459 OA
BRANCH  22  23
ATOM     23  C   LIG A   1      -1.288  -1.091  -0.999  0.00  0.00    +0.353 C 
ATOM     24  C   LIG A   1      -2.139  -2.058  -0.128  0.00  0.00    +0.288 C 
ATOM     25  C   LIG A   1      -3.401  -1.405   0.460  0.00  0.00    +0.266 C 
ATOM     26  C   LIG A   1      -4.208  -0.671  -0.634  0.00  0.00    +0.253 C 
ATOM     27  C   LIG A   1      -3.232   0.376  -1.248  0.00  0.00    +0.204 C 
ATOM     28  O   LIG A   1      -2.093  -0.268  -1.844  0.00  0.00    -0.328 OA
BRANCH  24  29
ATOM     29  O   LIG A   1      -1.318  -2.580   0.945  0.00  0.00    -0.451 OA
BRANCH  29  30
ATOM     30  C   LIG A   1      -0.575  -3.674   0.639  0.00  0.00    +0.304 C 
ATOM     31  O   LIG A   1      -0.792  -4.432  -0.303  0.00  0.00    -0.251 OA
ATOM     32  C   LIG A   1       0.580  -3.802   1.580  0.00  0.00    +0.136 C 
ENDBRANCH  29  30
ENDBRANCH  24  29
BRANCH  25  33
ATOM     33  O   LIG A   1      -4.161  -2.433   1.131  0.00  0.00    -0.454 OA
BRANCH  33  34
ATOM     34  C   LIG A   1      -3.971  -2.527   2.474  0.00  0.00    +0.304 C 
ATOM     35  O   LIG A   1      -3.817  -1.611   3.264  0.00  0.00    -0.251 OA
ATOM     36  C   LIG A   1      -3.801  -3.990   2.825  0.00  0.00    +0.136 C 
ENDBRANCH  33  34
ENDBRANCH  25  33
BRANCH  27  37
ATOM     37  C   LIG A   1      -3.867   1.250  -2.344  0.00  0.00    +0.267 C 
BRANCH  37  38
ATOM     38  O   LIG A   1      -2.941   2.202  -2.921  0.00  0.00    -0.462 OA
BRANCH  38  39
ATOM     39  C   LIG A   1      -2.584   3.261  -2.152  0.00  0.00    +0.304 C 
ATOM     40  O   LIG A   1      -2.833   3.377  -0.952  0.00  0.00    -0.251 OA
ATOM     41  C   LIG A   1      -1.985   4.342  -2.998  0.00  0.00    +0.136 C 
ENDBRANCH  38  39
ENDBRANCH  37  38
ENDBRANCH  27  37
BRANCH  26  42
ATOM     42  O   LIG A   1      -4.709  -1.504  -1.721  0.00  0.00    -0.455 OA
BRANCH  42  43
ATOM     43  C   LIG A   1      -5.864  -2.189  -1.556  0.00  0.00    +0.304 C 
ATOM     44  O   LIG A   1      -6.290  -2.655  -0.483  0.00  0.00    -0.251 OA
ATOM     45  C   LIG A   1      -6.680  -2.155  -2.816  0.00  0.00    +0.136 C 
ENDBRANCH  42  43
ENDBRANCH  26  42
ENDBRANCH  22  23
ENDBRANCH  17  22
BRANCH  15  46
ATOM     46  O   LIG A   1       2.215   0.876  -4.147  0.00  0.00    -0.426 OA
BRANCH  46  47
ATOM     47  C   LIG A   1       3.262   1.687  -4.615  0.00  0.00    +0.309 C 
ATOM     48  O   LIG A   1       4.003   2.398  -3.953  0.00  0.00    -0.251 OA
ATOM     49  C   LIG A   1       3.366   1.531  -6.100  0.00  0.00    +0.136 C 
ENDBRANCH  46  47
ENDBRANCH  15  46
TORSDOF 15
