@<TRIPOS>MOLECULE
NuBBE_2501
 49 51 0 0 0
SMALL
GASTEIGER

@<TRIPOS>ATOM
      1 C          -0.1892   -1.1358    4.6598 C.3     1  LIG1       -0.0612
      2 C          -1.3158   -1.0868    3.6353 C.3     1  LIG1       -0.0296
      3 C          -0.8761   -1.5631    2.2616 C.ar    1  LIG1       -0.0340
      4 C          -0.9760   -2.9353    1.9314 C.ar    1  LIG1       -0.0466
      5 C          -1.5216   -3.9630    2.8889 C.3     1  LIG1       -0.0394
      6 C          -0.5858   -3.3645    0.6585 C.ar    1  LIG1       -0.0583
      7 C          -0.0935   -2.4649   -0.2853 C.ar    1  LIG1       -0.0571
      8 C           0.0195   -1.0915   -0.0058 C.ar    1  LIG1       -0.0304
      9 C          -0.3681   -0.6612    1.2842 C.ar    1  LIG1        0.0245
     10 C          -0.2601    0.7920    1.5539 C.2     1  LIG1        0.1640
     11 O           0.0227    1.2558    2.6508 O.2     1  LIG1       -0.2920
     12 C          -0.5224    1.6632    0.3656 C.3     1  LIG1        0.0146
     13 C           0.5610    1.3970   -0.6815 C.3     1  LIG1       -0.0195
     14 H           1.5148    1.6150   -0.1749 H       1  LIG1        0.0319
     15 C           0.4484    2.4162   -1.8872 C.3     1  LIG1       -0.0309
     16 C           1.2133    3.7107   -1.5183 C.3     1  LIG1       -0.0595
     17 C          -1.0033    2.8404   -2.2199 C.3     1  LIG1       -0.0595
     18 C           1.0921    1.8377   -3.1586 C.3     1  LIG1       -0.0476
     19 C           0.5037    0.4976   -3.5827 C.3     1  LIG1       -0.0518
     20 C          -0.0579   -0.3486   -2.4395 C.3     1  LIG1       -0.0433
     21 C           0.6336   -0.1376   -1.0691 C.3     1  LIG1       -0.0027
     22 C           2.1300   -0.5547   -1.1673 C.3     1  LIG1       -0.0552
     23 H          -0.5436   -0.7615    5.6256 H       1  LIG1        0.0233
     24 H           0.6681   -0.5283    4.3554 H       1  LIG1        0.0233
     25 H           0.1733   -2.1575    4.8093 H       1  LIG1        0.0233
     26 H          -1.7402   -0.0788    3.5788 H       1  LIG1        0.0311
     27 H          -2.1532   -1.6961    3.9946 H       1  LIG1        0.0311
     28 H          -0.9884   -3.9316    3.8429 H       1  LIG1        0.0278
     29 H          -1.4069   -4.9792    2.4956 H       1  LIG1        0.0278
     30 H          -2.5898   -3.7937    3.0565 H       1  LIG1        0.0278
     31 H          -0.6553   -4.4171    0.3884 H       1  LIG1        0.0620
     32 H           0.2215   -2.8713   -1.2437 H       1  LIG1        0.0621
     33 H          -0.5061    2.7063    0.7001 H       1  LIG1        0.0348
     34 H          -1.5322    1.4487   -0.0024 H       1  LIG1        0.0348
     35 H           0.7916    4.1866   -0.6267 H       1  LIG1        0.0235
     36 H           1.1716    4.4415   -2.3344 H       1  LIG1        0.0235
     37 H           2.2706    3.5036   -1.3172 H       1  LIG1        0.0235
     38 H          -1.4490    3.4325   -1.4131 H       1  LIG1        0.0235
     39 H          -1.6587    1.9860   -2.4052 H       1  LIG1        0.0235
     40 H          -1.0297    3.4694   -3.1179 H       1  LIG1        0.0235
     41 H           2.1724    1.7294   -3.0082 H       1  LIG1        0.0271
     42 H           1.0006    2.5426   -3.9959 H       1  LIG1        0.0271
     43 H           1.2790   -0.0695   -4.1131 H       1  LIG1        0.0266
     44 H          -0.2954    0.6619   -4.3165 H       1  LIG1        0.0266
     45 H          -0.0073   -1.3931   -2.7676 H       1  LIG1        0.0274
     46 H          -1.1307   -0.1439   -2.3300 H       1  LIG1        0.0274
     47 H           2.2448   -1.5690   -1.5671 H       1  LIG1        0.0238
     48 H           2.6066   -0.5401   -0.1789 H       1  LIG1        0.0238
     49 H           2.7174    0.1040   -1.8092 H       1  LIG1        0.0238
@<TRIPOS>BOND
     1     1     2    1
     2     2     3    1
     3     3     4   ar
     4     4     5    1
     5     4     6   ar
     6     6     7   ar
     7     7     8   ar
     8     8     9   ar
     9     3     9   ar
    10     9    10    1
    11    10    11    2
    12    10    12    1
    13    12    13    1
    14    13    14    1
    15    13    15    1
    16    15    16    1
    17    15    17    1
    18    15    18    1
    19    18    19    1
    20    19    20    1
    21    20    21    1
    22     8    21    1
    23    13    21    1
    24    21    22    1
    25     1    23    1
    26     1    24    1
    27     1    25    1
    28     2    26    1
    29     2    27    1
    30     5    28    1
    31     5    29    1
    32     5    30    1
    33     6    31    1
    34     7    32    1
    35    12    33    1
    36    12    34    1
    37    16    35    1
    38    16    36    1
    39    16    37    1
    40    17    38    1
    41    17    39    1
    42    17    40    1
    43    18    41    1
    44    18    42    1
    45    19    43    1
    46    19    44    1
    47    20    45    1
    48    20    46    1
    49    22    47    1
    50    22    48    1
    51    22    49    1
