REMARK  Name = NuBBE_2350
REMARK  13 active torsions:
REMARK  status: ('A' for Active; 'I' for Inactive)
REMARK    1  A    between atoms: C_1  and  O_2
REMARK    2  A    between atoms: O_2  and  C_3
REMARK    3  A    between atoms: C_4  and  O_5
REMARK    4  A    between atoms: O_5  and  C_6
REMARK    5  A    between atoms: C_7  and  O_8
REMARK    6  A    between atoms: O_8  and  C_9
REMARK    7  A    between atoms: C_11  and  C_12
REMARK    8  A    between atoms: C_16  and  C_17
REMARK    9  A    between atoms: C_17  and  C_18
REMARK   10  A    between atoms: C_20  and  O_21
REMARK   11  A    between atoms: C_22  and  O_23
REMARK   12  A    between atoms: O_23  and  C_24
REMARK   13  A    between atoms: C_27  and  C_29
REMARK                            x       y       z     vdW  Elec       q    Type
REMARK                         _______ _______ _______ _____ _____    ______ ____
ROOT
ATOM      1  C   LIG A   1      -0.753   2.028   0.950  0.00  0.00    +0.211 C 
ATOM      2  O   LIG A   1      -0.137   1.153   1.954  0.00  0.00    -0.483 OA
ATOM      3  C   LIG A   1      -0.927   0.020   1.907  0.00  0.00    +0.132 A 
ATOM      4  C   LIG A   1      -0.533  -1.229   2.373  0.00  0.00    +0.043 A 
ATOM      5  C   LIG A   1      -1.467  -2.263   2.163  0.00  0.00    +0.166 A 
ATOM      6  C   LIG A   1      -2.695  -2.060   1.497  0.00  0.00    +0.162 A 
ATOM      7  C   LIG A   1      -3.058  -0.769   1.089  0.00  0.00    +0.057 A 
ATOM      8  C   LIG A   1      -2.169   0.268   1.310  0.00  0.00    +0.005 A 
ATOM      9  C   LIG A   1      -2.271   1.732   1.044  0.00  0.00    +0.065 C 
ATOM     10  C   LIG A   1      -3.199   2.254  -0.045  0.00  0.00    +0.016 C 
ENDROOT
BRANCH   1  15
ATOM     11  C   LIG A   1       2.156   2.052  -1.554  0.00  0.00    +0.166 A 
ATOM     12  C   LIG A   1       1.557   1.598  -2.748  0.00  0.00    +0.203 A 
ATOM     13  C   LIG A   1       0.193   1.251  -2.722  0.00  0.00    +0.166 A 
ATOM     14  C   LIG A   1      -0.530   1.326  -1.525  0.00  0.00    +0.057 A 
ATOM     15  C   LIG A   1       0.020   1.834  -0.351  0.00  0.00    +0.000 A 
ATOM     16  C   LIG A   1       1.378   2.176  -0.385  0.00  0.00    +0.057 A 
BRANCH  11  18
ATOM     17  C   LIG A   1       4.247   2.199  -0.421  0.00  0.00    +0.277 C 
ATOM     18  O   LIG A   1       3.456   2.491  -1.573  0.00  0.00    -0.491 OA
ENDBRANCH  11  18
BRANCH  12  19
ATOM     19  O   LIG A   1       2.161   1.426  -3.957  0.00  0.00    -0.488 OA
ATOM     20  C   LIG A   1       3.537   1.628  -4.187  0.00  0.00    +0.277 C 
ENDBRANCH  12  19
BRANCH  13  21
ATOM     21  O   LIG A   1      -0.612   0.827  -3.755  0.00  0.00    -0.491 OA
ATOM     22  C   LIG A   1      -0.063   0.709  -5.057  0.00  0.00    +0.277 C 
ENDBRANCH  13  21
ENDBRANCH   1  15
BRANCH   5  23
ATOM     23  O   LIG A   1      -1.147  -3.500   2.655  0.00  0.00    -0.503 OA
ATOM     24  H   LIG A   1      -1.616  -3.572   3.502  0.00  0.00    +0.292 HD
ENDBRANCH   5  23
BRANCH   6  25
ATOM     25  O   LIG A   1      -3.631  -3.021   1.192  0.00  0.00    -0.491 OA
ATOM     26  C   LIG A   1      -3.313  -4.371   1.515  0.00  0.00    +0.277 C 
ENDBRANCH   6  25
BRANCH   4  27
ATOM     27  C   LIG A   1       0.781  -1.397   3.137  0.00  0.00    +0.069 C 
BRANCH  27  28
ATOM     28  C   LIG A   1       1.459  -2.763   3.019  0.00  0.00    -0.030 C 
ATOM     29  C   LIG A   1       1.716  -3.617   4.031  0.00  0.00    +0.004 C 
ENDBRANCH  27  28
ENDBRANCH   4  27
TORSDOF 8
