@<TRIPOS>MOLECULE
NuBBE_1595
 53 52 0 0 0
SMALL
GASTEIGER

@<TRIPOS>ATOM
      1 C           4.1730    0.1345    2.0779 C.2     1  LIG1        0.2369
      2 O           4.2425   -1.0073    2.4954 O.2     1  LIG1       -0.2708
      3 C           3.4375    0.5050    0.8403 C.2     1  LIG1        0.0001
      4 C           2.8075   -0.4365    0.1247 C.2     1  LIG1       -0.0571
      5 C           2.0736   -0.1217   -1.0800 C.2     1  LIG1       -0.0655
      6 C           1.4263   -1.0472   -1.8029 C.2     1  LIG1       -0.0840
      7 C           0.6131   -0.7295   -3.0307 C.3     1  LIG1       -0.0345
      8 C          -0.8338   -1.2055   -2.8526 C.3     1  LIG1       -0.0496
      9 C          -1.7206   -0.9138   -4.0705 C.3     1  LIG1       -0.0528
     10 C          -3.1796   -1.3871   -3.9006 C.3     1  LIG1       -0.0530
     11 C          -3.8840   -0.7446   -2.6998 C.3     1  LIG1       -0.0531
     12 C          -5.3583   -1.1478   -2.5455 C.3     1  LIG1       -0.0531
     13 C          -5.9682   -0.4463   -1.3229 C.3     1  LIG1       -0.0533
     14 C          -7.4430   -0.7625   -1.0613 C.3     1  LIG1       -0.0559
     15 C          -7.7284   -2.2370   -0.8226 C.3     1  LIG1       -0.0653
     16 N           4.7539    1.2235    2.6829 N.am    1  LIG1       -0.3116
     17 C           5.5401    1.0847    3.8927 C.3     1  LIG1        0.0142
     18 C           6.1104    2.4220    4.3870 C.3     1  LIG1       -0.0311
     19 C           4.9975    3.4022    4.7656 C.3     1  LIG1       -0.0612
     20 C           7.0322    2.1889    5.5858 C.3     1  LIG1       -0.0612
     21 H           3.4339    1.5420    0.5327 H       1  LIG1        0.0669
     22 H           2.8297   -1.4752    0.4525 H       1  LIG1        0.0619
     23 H           2.0451    0.9208   -1.3903 H       1  LIG1        0.0614
     24 H           1.4612   -2.0926   -1.5000 H       1  LIG1        0.0572
     25 H           1.0747   -1.2204   -3.8946 H       1  LIG1        0.0307
     26 H           0.6246    0.3500   -3.2261 H       1  LIG1        0.0307
     27 H          -1.2453   -0.7097   -1.9668 H       1  LIG1        0.0268
     28 H          -0.8450   -2.2844   -2.6543 H       1  LIG1        0.0268
     29 H          -1.2955   -1.4120   -4.9512 H       1  LIG1        0.0265
     30 H          -1.7127    0.1620   -4.2844 H       1  LIG1        0.0265
     31 H          -3.1979   -2.4789   -3.8000 H       1  LIG1        0.0265
     32 H          -3.7299   -1.1455   -4.8189 H       1  LIG1        0.0265
     33 H          -3.8081    0.3461   -2.7827 H       1  LIG1        0.0265
     34 H          -3.3666   -1.0388   -1.7808 H       1  LIG1        0.0265
     35 H          -5.4217   -2.2345   -2.4200 H       1  LIG1        0.0265
     36 H          -5.9237   -0.8857   -3.4471 H       1  LIG1        0.0265
     37 H          -5.8715    0.6400   -1.4470 H       1  LIG1        0.0265
     38 H          -5.3875   -0.7075   -0.4290 H       1  LIG1        0.0265
     39 H          -8.0610   -0.4020   -1.8914 H       1  LIG1        0.0263
     40 H          -7.7560   -0.2007   -0.1719 H       1  LIG1        0.0263
     41 H          -7.7931   -2.7791   -1.7710 H       1  LIG1        0.0230
     42 H          -8.6882   -2.3559   -0.3081 H       1  LIG1        0.0230
     43 H          -6.9550   -2.7048   -0.2058 H       1  LIG1        0.0230
     44 H           4.5706    2.1487    2.3210 H       1  LIG1        0.1490
     45 H           6.3582    0.3882    3.6706 H       1  LIG1        0.0465
     46 H           4.9117    0.6163    4.6587 H       1  LIG1        0.0465
     47 H           6.7058    2.8734    3.5828 H       1  LIG1        0.0311
     48 H           4.3289    2.9705    5.5180 H       1  LIG1        0.0233
     49 H           4.3930    3.6721    3.8938 H       1  LIG1        0.0233
     50 H           5.4147    4.3293    5.1722 H       1  LIG1        0.0233
     51 H           6.4747    1.8136    6.4508 H       1  LIG1        0.0233
     52 H           7.5271    3.1204    5.8811 H       1  LIG1        0.0233
     53 H           7.8132    1.4601    5.3442 H       1  LIG1        0.0233
@<TRIPOS>BOND
     1     1     2    2
     2     1     3    1
     3     3     4    2
     4     4     5    1
     5     5     6    2
     6     6     7    1
     7     7     8    1
     8     8     9    1
     9     9    10    1
    10    10    11    1
    11    11    12    1
    12    12    13    1
    13    13    14    1
    14    14    15    1
    15     1    16   am
    16    16    17    1
    17    17    18    1
    18    18    19    1
    19    18    20    1
    20     3    21    1
    21     4    22    1
    22     5    23    1
    23     6    24    1
    24     7    25    1
    25     7    26    1
    26     8    27    1
    27     8    28    1
    28     9    29    1
    29     9    30    1
    30    10    31    1
    31    10    32    1
    32    11    33    1
    33    11    34    1
    34    12    35    1
    35    12    36    1
    36    13    37    1
    37    13    38    1
    38    14    39    1
    39    14    40    1
    40    15    41    1
    41    15    42    1
    42    15    43    1
    43    16    44    1
    44    17    45    1
    45    17    46    1
    46    18    47    1
    47    19    48    1
    48    19    49    1
    49    19    50    1
    50    20    51    1
    51    20    52    1
    52    20    53    1
