REMARK  Name = NuBBE_195
REMARK  4 active torsions:
REMARK  status: ('A' for Active; 'I' for Inactive)
REMARK    1  A    between atoms: O_1  and  C_2
REMARK    2  A    between atoms: C_2  and  C_3
REMARK    3  A    between atoms: C_5  and  O_6
REMARK    4  A    between atoms: C_7  and  O_8
REMARK                            x       y       z     vdW  Elec       q    Type
REMARK                         _______ _______ _______ _____ _____    ______ ____
ROOT
ATOM      1  C   LIG A   1      -0.183  -1.064   0.200  0.00  0.00    +0.062 A 
ATOM      2  C   LIG A   1      -0.808   0.146   0.534  0.00  0.00    +0.064 A 
ATOM      3  C   LIG A   1      -0.178   1.336   0.192  0.00  0.00    +0.159 A 
ATOM      4  C   LIG A   1       1.050   1.322  -0.468  0.00  0.00    +0.158 A 
ATOM      5  C   LIG A   1       1.681   0.126  -0.782  0.00  0.00    +0.050 A 
ATOM      6  C   LIG A   1       1.065  -1.078  -0.439  0.00  0.00    +0.019 A 
ENDROOT
BRANCH   1   7
ATOM      7  C   LIG A   1      -0.813  -2.357   0.544  0.00  0.00    +0.337 C 
ATOM      8  O   LIG A   1      -0.208  -3.281   1.055  0.00  0.00    -0.245 OA
BRANCH   7   9
ATOM      9  O   LIG A   1      -2.115  -2.405   0.192  0.00  0.00    -0.477 OA
ATOM     10  H   LIG A   1      -2.407  -1.673  -0.383  0.00  0.00    +0.295 HD
ENDBRANCH   7   9
ENDBRANCH   1   7
BRANCH   3  11
ATOM     11  O   LIG A   1      -0.723   2.555   0.486  0.00  0.00    -0.503 OA
ATOM     12  H   LIG A   1      -1.517   2.424   1.033  0.00  0.00    +0.292 HD
ENDBRANCH   3  11
BRANCH   4  13
ATOM     13  O   LIG A   1       1.656   2.498  -0.805  0.00  0.00    -0.503 OA
ATOM     14  H   LIG A   1       1.054   3.195  -0.479  0.00  0.00    +0.292 HD
ENDBRANCH   4  13
TORSDOF 4
