@<TRIPOS>MOLECULE
NuBBE_1509
 51 55 0 0 0
SMALL
GASTEIGER

@<TRIPOS>ATOM
      1 O          -3.6939    0.4035    3.3537 O.3     1  LIG1       -0.3626
      2 C          -2.4020    0.6905    2.8664 C.3     1  LIG1        0.1942
      3 C          -2.1577    0.1218    1.4813 C.3     1  LIG1        0.0120
      4 C          -0.6384    0.2689    1.4187 C.3     1  LIG1        0.0052
      5 C          -0.2458   -0.0934    2.8750 C.3     1  LIG1        0.0573
      6 O          -1.4304    0.0172    3.6788 O.3     1  LIG1       -0.3459
      7 C           0.0720   -0.6812    0.4329 C.3     1  LIG1       -0.0297
      8 H          -0.1544   -1.7118    0.7458 H       1  LIG1        0.0310
      9 C          -0.4596   -0.5299   -0.9995 C.3     1  LIG1       -0.0339
     10 H          -1.4822   -0.9414   -0.9818 H       1  LIG1        0.0307
     11 C           0.2804   -1.4929   -1.9932 C.3     1  LIG1       -0.0255
     12 H          -0.1610   -2.4853   -1.8183 H       1  LIG1        0.0313
     13 C           1.8204   -1.6118   -1.8142 C.3     1  LIG1       -0.0219
     14 C           2.2786   -1.5882   -0.3524 C.3     1  LIG1       -0.0467
     15 C           1.6020   -0.5188    0.4796 C.3     1  LIG1       -0.0488
     16 C           2.3574   -2.9345   -2.4214 C.3     1  LIG1       -0.0589
     17 C           2.3503   -0.4273   -2.6398 C.3     1  LIG1        0.0115
     18 C           1.3971   -0.4356   -3.8121 C.2     1  LIG1        0.1342
     19 O           1.6422    0.0703   -4.8934 O.2     1  LIG1       -0.2974
     20 C           0.1027   -1.1511   -3.4846 C.3     1  LIG1        0.0094
     21 C          -0.6779    0.9453   -1.4044 C.3     1  LIG1       -0.0494
     22 C          -0.2486    2.0462   -0.4216 C.3     1  LIG1       -0.0493
     23 C          -0.3158    1.7481    1.1008 C.3     1  LIG1       -0.0303
     24 H           0.6971    1.9505    1.4792 H       1  LIG1        0.0308
     25 C          -1.2320    2.7674    1.8327 C.3     1  LIG1       -0.0184
     26 C          -2.1038    2.2147    2.9697 C.3     1  LIG1        0.1090
     27 H          -3.0464    2.7736    2.9818 H       1  LIG1        0.0647
     28 O          -1.4582    2.5216    4.2215 O.3     1  LIG1       -0.3865
     29 H          -3.8991   -0.5076    3.0910 H       1  LIG1        0.2128
     30 H          -2.7123    0.6566    0.7034 H       1  LIG1        0.0324
     31 H          -2.4546   -0.9331    1.4315 H       1  LIG1        0.0324
     32 H           0.5226    0.5695    3.2870 H       1  LIG1        0.0567
     33 H           0.1099   -1.1237    2.9766 H       1  LIG1        0.0567
     34 H           3.3664   -1.4556   -0.2983 H       1  LIG1        0.0271
     35 H           2.0653   -2.5588    0.1165 H       1  LIG1        0.0271
     36 H           1.9193    0.4665    0.1275 H       1  LIG1        0.0268
     37 H           1.9674   -0.6055    1.5088 H       1  LIG1        0.0268
     38 H           1.9579   -3.8023   -1.8840 H       1  LIG1        0.0235
     39 H           3.4509   -2.9754   -2.3506 H       1  LIG1        0.0235
     40 H           2.0968   -3.0568   -3.4770 H       1  LIG1        0.0235
     41 H           3.3842   -0.5651   -2.9658 H       1  LIG1        0.0347
     42 H           2.2460    0.5323   -2.1260 H       1  LIG1        0.0347
     43 H           0.0492   -2.0610   -4.0895 H       1  LIG1        0.0344
     44 H          -0.7649   -0.5241   -3.6955 H       1  LIG1        0.0344
     45 H          -1.7578    1.0723   -1.5734 H       1  LIG1        0.0268
     46 H          -0.2255    1.1786   -2.3714 H       1  LIG1        0.0268
     47 H          -0.8196    2.9507   -0.6693 H       1  LIG1        0.0268
     48 H           0.7879    2.3145   -0.6638 H       1  LIG1        0.0268
     49 H          -1.9184    3.2215    1.1085 H       1  LIG1        0.0295
     50 H          -0.6053    3.5889    2.2063 H       1  LIG1        0.0295
     51 H          -1.4582    1.6811    4.7261 H       1  LIG1        0.2100
@<TRIPOS>BOND
     1     2     3    1
     2     3     4    1
     3     4     5    1
     4     5     6    1
     5     2     6    1
     6     4     7    1
     7     7     9    1
     8     9    11    1
     9    11    13    1
    10    13    14    1
    11    14    15    1
    12     7    15    1
    13    13    17    1
    14    17    18    1
    15    18    20    1
    16    11    20    1
    17     9    21    1
    18    21    22    1
    19    22    23    1
    20     4    23    1
    21    23    25    1
    22    25    26    1
    23     2    26    1
    24     1     2    1
    25     7     8    1
    26     9    10    1
    27    11    12    1
    28    13    16    1
    29    18    19    2
    30    23    24    1
    31    26    28    1
    32    26    27    1
    33     1    29    1
    34     3    30    1
    35     3    31    1
    36     5    32    1
    37     5    33    1
    38    14    34    1
    39    14    35    1
    40    15    36    1
    41    15    37    1
    42    16    38    1
    43    16    39    1
    44    16    40    1
    45    17    41    1
    46    17    42    1
    47    20    43    1
    48    20    44    1
    49    21    45    1
    50    21    46    1
    51    22    47    1
    52    22    48    1
    53    25    49    1
    54    25    50    1
    55    28    51    1
