@<TRIPOS>MOLECULE
NuBBE_1330
 58 61 0 0 0
SMALL
GASTEIGER

@<TRIPOS>ATOM
      1 O          -4.9549    0.7196    0.3199 O.2     1  LIG1       -0.2444
      2 C          -3.7352    0.7818    0.3356 C.ar    1  LIG1        0.3486
      3 O          -2.9660   -0.3728    0.2904 O.2     1  LIG1       -0.4207
      4 C          -2.9933    2.0647    0.4092 C.ar    1  LIG1        0.1086
      5 C          -3.7655    3.3356    0.4056 C.ar    1  LIG1       -0.0072
      6 C          -4.1987    3.9191    1.6074 C.ar    1  LIG1       -0.0502
      7 C          -4.9388    5.1104    1.6028 C.ar    1  LIG1       -0.0196
      8 C          -5.2561    5.7175    0.3927 C.ar    1  LIG1        0.1169
      9 O          -5.9789    6.8734    0.3396 O.3     1  LIG1       -0.5068
     10 C          -4.8393    5.1567   -0.8080 C.ar    1  LIG1       -0.0196
     11 C          -4.0908    3.9726   -0.8029 C.ar    1  LIG1       -0.0502
     12 C          -1.6479    2.0622    0.4864 C.ar    1  LIG1        0.1456
     13 O          -0.9673    3.2665    0.5754 O.3     1  LIG1       -0.5051
     14 C          -0.8391    0.8069    0.4555 C.ar    1  LIG1        0.1022
     15 C          -1.5524   -0.3881    0.3334 C.ar    1  LIG1        0.1567
     16 C          -0.9293   -1.6430    0.2672 C.ar    1  LIG1        0.0601
     17 C          -1.6960   -2.8840    0.2047 C.2     1  LIG1       -0.0478
     18 C          -1.0381   -4.0451    0.2564 C.2     1  LIG1       -0.0408
     19 C           0.4631   -4.1330    0.3319 C.3     1  LIG1        0.1235
     20 C           0.8899   -4.6933    1.6946 C.3     1  LIG1       -0.0215
     21 C           0.9680   -5.0569   -0.7834 C.3     1  LIG1       -0.0215
     22 O           1.1504   -2.8807    0.1508 O.3     1  LIG1       -0.4811
     23 C           0.4661   -1.6946    0.2686 C.ar    1  LIG1        0.1393
     24 C           1.2549   -0.5174    0.3798 C.ar    1  LIG1        0.0411
     25 C           2.7663   -0.7084    0.3287 C.3     1  LIG1       -0.0023
     26 C           3.3106   -0.6403   -1.0832 C.2     1  LIG1       -0.0807
     27 C           4.3936   -1.2706   -1.5807 C.2     1  LIG1       -0.0793
     28 C           5.2987   -2.1725   -0.7911 C.3     1  LIG1       -0.0440
     29 C           4.7907   -1.1037   -3.0262 C.3     1  LIG1       -0.0440
     30 C           0.5890    0.7331    0.5130 C.ar    1  LIG1        0.1412
     31 O           1.1781    1.9353    0.8298 O.3     1  LIG1       -0.4939
     32 C           2.4687    2.2952    0.3647 C.3     1  LIG1        0.0788
     33 H          -3.9667    3.4486    2.5595 H       1  LIG1        0.0625
     34 H          -5.2576    5.5427    2.5461 H       1  LIG1        0.0654
     35 H          -6.2002    7.1465    1.2449 H       1  LIG1        0.2921
     36 H          -5.0975    5.6393   -1.7468 H       1  LIG1        0.0654
     37 H          -3.7693    3.5535   -1.7529 H       1  LIG1        0.0625
     38 H          -0.0389    3.0666    0.7974 H       1  LIG1        0.2922
     39 H          -2.7788   -2.8525    0.1573 H       1  LIG1        0.0624
     40 H          -1.6004   -4.9754    0.2543 H       1  LIG1        0.0611
     41 H           0.4614   -5.6838    1.8841 H       1  LIG1        0.0271
     42 H           0.5831   -4.0252    2.5081 H       1  LIG1        0.0271
     43 H           1.9818   -4.7736    1.7594 H       1  LIG1        0.0271
     44 H           0.5369   -6.0618   -0.7116 H       1  LIG1        0.0271
     45 H           2.0602   -5.1490   -0.7520 H       1  LIG1        0.0271
     46 H           0.7221   -4.6465   -1.7702 H       1  LIG1        0.0271
     47 H           3.0271   -1.6665    0.7926 H       1  LIG1        0.0358
     48 H           3.2674    0.0198    0.9671 H       1  LIG1        0.0358
     49 H           2.7344   -0.0228   -1.7723 H       1  LIG1        0.0575
     50 H           5.0548   -2.2032    0.2731 H       1  LIG1        0.0274
     51 H           6.3362   -1.8312   -0.8727 H       1  LIG1        0.0274
     52 H           5.2389   -3.1941   -1.1802 H       1  LIG1        0.0274
     53 H           4.1369   -0.4073   -3.5622 H       1  LIG1        0.0274
     54 H           4.7483   -2.0673   -3.5442 H       1  LIG1        0.0274
     55 H           5.8126   -0.7157   -3.0982 H       1  LIG1        0.0274
     56 H           2.4668    3.3773    0.2020 H       1  LIG1        0.0660
     57 H           2.7253    1.8418   -0.5897 H       1  LIG1        0.0660
     58 H           3.2146    2.0938    1.1386 H       1  LIG1        0.0660
@<TRIPOS>BOND
     1     1     2    2
     2     2     3   ar
     3     2     4   ar
     4     4     5    1
     5     5     6   ar
     6     6     7   ar
     7     7     8   ar
     8     8     9    1
     9     8    10   ar
    10    10    11   ar
    11     5    11   ar
    12     4    12   ar
    13    12    13    1
    14    12    14   ar
    15    14    15   ar
    16     3    15   ar
    17    15    16   ar
    18    16    17    1
    19    17    18    2
    20    18    19    1
    21    19    20    1
    22    19    21    1
    23    19    22    1
    24    16    23   ar
    25    22    23    1
    26    23    24   ar
    27    24    25    1
    28    25    26    1
    29    26    27    2
    30    27    28    1
    31    27    29    1
    32    24    30   ar
    33    14    30   ar
    34    30    31    1
    35    31    32    1
    36     6    33    1
    37     7    34    1
    38     9    35    1
    39    10    36    1
    40    11    37    1
    41    13    38    1
    42    17    39    1
    43    18    40    1
    44    20    41    1
    45    20    42    1
    46    20    43    1
    47    21    44    1
    48    21    45    1
    49    21    46    1
    50    25    47    1
    51    25    48    1
    52    26    49    1
    53    28    50    1
    54    28    51    1
    55    28    52    1
    56    29    53    1
    57    29    54    1
    58    29    55    1
    59    32    56    1
    60    32    57    1
    61    32    58    1
