REMARK  Name = NuBBE_1398
REMARK  17 active torsions:
REMARK  status: ('A' for Active; 'I' for Inactive)
REMARK    1  A    between atoms: C_7  and  C_11
REMARK    2  A    between atoms: C_8  and  O_9
REMARK    3  A    between atoms: O_9  and  C_10
REMARK    4  A    between atoms: C_11  and  C_12
REMARK    5  A    between atoms: C_12  and  C_13
REMARK    6  A    between atoms: C_13  and  C_14
REMARK    7  A    between atoms: C_14  and  C_15
REMARK    8  A    between atoms: C_15  and  C_16
REMARK    9  A    between atoms: C_16  and  C_17
REMARK   10  A    between atoms: C_17  and  C_18
REMARK   11  A    between atoms: C_18  and  C_19
REMARK   12  A    between atoms: C_19  and  C_20
REMARK   13  A    between atoms: C_20  and  C_21
REMARK   14  A    between atoms: C_21  and  C_22
REMARK   15  A    between atoms: C_22  and  C_23
REMARK   16  A    between atoms: C_22  and  C_24
REMARK   17  A    between atoms: C_22  and  O_25
REMARK                            x       y       z     vdW  Elec       q    Type
REMARK                         _______ _______ _______ _____ _____    ______ ____
ROOT
ATOM      1  C   LIG A   1       0.452  -2.974   0.458  0.00  0.00    +0.057 C 
ENDROOT
BRANCH   1   8
ATOM      2  O   LIG A   1       2.382  -4.224  -3.968  0.00  0.00    -0.283 OA
ATOM      3  C   LIG A   1       2.156  -4.486  -2.836  0.00  0.00    +0.231 A 
ATOM      4  C   LIG A   1       2.476  -5.804  -2.280  0.00  0.00    +0.049 A 
ATOM      5  C   LIG A   1       2.037  -6.122  -0.994  0.00  0.00    +0.051 A 
ATOM      6  N   LIG A   1       1.361  -5.171  -0.216  0.00  0.00    -0.355 N 
ATOM      7  H   LIG A   1       1.120  -5.427   0.734  0.00  0.00    +0.166 HD
ATOM      8  C   LIG A   1       1.143  -3.853  -0.635  0.00  0.00    +0.062 A 
ATOM      9  C   LIG A   1       1.575  -3.478  -1.876  0.00  0.00    +0.186 A 
ATOM     10  C   LIG A   1       2.250  -7.422  -0.537  0.00  0.00    +0.026 A 
ATOM     11  C   LIG A   1       2.931  -8.346  -1.339  0.00  0.00    +0.002 A 
ATOM     12  C   LIG A   1       3.427  -7.984  -2.592  0.00  0.00    +0.001 A 
ATOM     13  C   LIG A   1       3.195  -6.697  -3.071  0.00  0.00    +0.014 A 
BRANCH   9  14
ATOM     14  O   LIG A   1       1.676  -2.263  -2.477  0.00  0.00    -0.490 OA
ATOM     15  C   LIG A   1       1.958  -1.179  -1.661  0.00  0.00    +0.277 C 
ENDBRANCH   9  14
ENDBRANCH   1   8
BRANCH   1  16
ATOM     16  C   LIG A   1      -0.710  -1.912   0.172  0.00  0.00    +0.006 C 
BRANCH  16  17
ATOM     17  C   LIG A   1      -0.496  -0.831  -0.881  0.00  0.00    +0.000 C 
BRANCH  17  18
ATOM     18  C   LIG A   1      -1.385   0.264  -1.423  0.00  0.00    +0.000 C 
BRANCH  18  19
ATOM     19  C   LIG A   1      -0.588   1.242  -2.384  0.00  0.00    -0.000 C 
BRANCH  19  20
ATOM     20  C   LIG A   1       0.698   2.003  -1.917  0.00  0.00    -0.000 C 
BRANCH  20  21
ATOM     21  C   LIG A   1       0.548   2.854  -0.657  0.00  0.00    -0.000 C 
BRANCH  21  22
ATOM     22  C   LIG A   1       0.235   2.047   0.603  0.00  0.00    -0.000 C 
BRANCH  22  23
ATOM     23  C   LIG A   1      -0.045   2.823   1.875  0.00  0.00    +0.000 C 
BRANCH  23  24
ATOM     24  C   LIG A   1      -1.222   3.797   1.698  0.00  0.00    +0.003 C 
BRANCH  24  25
ATOM     25  C   LIG A   1      -1.559   4.565   2.987  0.00  0.00    +0.034 C 
BRANCH  25  26
ATOM     26  C   LIG A   1      -2.659   5.648   2.834  0.00  0.00    +0.060 C 
ATOM     27  C   LIG A   1      -4.020   5.060   2.450  0.00  0.00    +0.041 C 
ATOM     28  C   LIG A   1      -2.826   6.474   4.120  0.00  0.00    +0.041 C 
BRANCH  26  29
ATOM     29  O   LIG A   1      -2.255   6.550   1.799  0.00  0.00    -0.389 OA
ATOM     30  H   LIG A   1      -2.844   7.324   1.828  0.00  0.00    +0.210 HD
ENDBRANCH  26  29
ENDBRANCH  25  26
ENDBRANCH  24  25
ENDBRANCH  23  24
ENDBRANCH  22  23
ENDBRANCH  21  22
ENDBRANCH  20  21
ENDBRANCH  19  20
ENDBRANCH  18  19
ENDBRANCH  17  18
ENDBRANCH  16  17
ENDBRANCH   1  16
TORSDOF 14
