@<TRIPOS>MOLECULE
NuBBE_299
 69 68 0 0 0
SMALL
GASTEIGER

@<TRIPOS>ATOM
      1 C          -4.5503    0.2237    3.3348 C.3     1  LIG1       -0.0182
      2 C          -3.3426    0.7189    4.1142 C.3     1  LIG1        0.0126
      3 H          -3.2705    0.1408    5.0438 H       1  LIG1        0.0885
      4 C          -3.3343    2.2261    4.3923 C.3     1  LIG1        0.1450
      5 H          -4.2629    2.5058    4.8861 H       1  LIG1        0.0791
      6 O          -3.1883    2.9626    3.1456 O.3     1  LIG1       -0.4558
      7 C          -4.3270    3.5096    2.6377 C.2     1  LIG1        0.3044
      8 C          -4.0885    4.1580    1.3195 C.3     1  LIG1        0.0332
      9 O          -5.4678    3.3963    3.1388 O.2     1  LIG1       -0.2512
     10 C          -2.1395    2.5044    5.3113 C.3     1  LIG1       -0.0052
     11 C          -0.8072    1.9399    4.8288 C.3     1  LIG1       -0.0062
     12 C          -0.8342    0.5725    4.1169 C.3     1  LIG1       -0.0222
     13 H          -0.8502   -0.2415    4.8510 H       1  LIG1        0.0850
     14 C           0.4309    0.4737    3.2383 C.3     1  LIG1       -0.0097
     15 C           0.6237   -0.7246    2.3016 C.3     1  LIG1       -0.0480
     16 C           1.9570   -0.5334    1.5033 C.3     1  LIG1       -0.0529
     17 C           2.2661   -1.7383    0.6118 C.3     1  LIG1       -0.0531
     18 C           3.4901   -1.7622   -0.3255 C.3     1  LIG1       -0.0531
     19 C           3.3120   -2.9087   -1.3737 C.3     1  LIG1       -0.0531
     20 C           1.9832   -3.0019   -2.2361 C.3     1  LIG1       -0.0531
     21 C           1.7563   -2.0109   -3.3929 C.3     1  LIG1       -0.0531
     22 C           0.5502   -2.1170   -4.3708 C.3     1  LIG1       -0.0530
     23 C           0.2813   -1.0039   -5.4704 C.3     1  LIG1       -0.0527
     24 C           1.0465   -0.8325   -6.8191 C.3     1  LIG1       -0.0464
     25 C           2.3752   -0.0774   -6.7869 C.3     1  LIG1        0.0055
     26 C           3.5014   -0.8548   -6.1378 C.2     1  LIG1        0.1303
     27 C           3.8699   -0.4057   -4.7412 C.3     1  LIG1       -0.0061
     28 O           4.0445   -1.7745   -6.6876 O.2     1  LIG1       -0.2977
     29 N          -2.0820    0.4112    3.3107 N.4     1  LIG1        0.2338
     30 H          -2.0721    1.0525    2.5052 H       1  LIG1        0.2020
     31 H          -2.1444   -0.5471    2.9509 H       1  LIG1        0.2020
     32 CL         -4.7035    3.4206    7.5093 Cl      2  LIG2        0.0000
     33 H          -5.4549    0.3348    3.9435 H       1  LIG1        0.0285
     34 H          -4.4467   -0.8397    3.0944 H       1  LIG1        0.0285
     35 H          -4.7003    0.7651    2.3975 H       1  LIG1        0.0285
     36 H          -3.6123    5.1323    1.4443 H       1  LIG1        0.0342
     37 H          -5.0446    4.2892    0.7998 H       1  LIG1        0.0342
     38 H          -3.4724    3.4981    0.7021 H       1  LIG1        0.0342
     39 H          -2.3336    2.0527    6.2909 H       1  LIG1        0.0305
     40 H          -2.0227    3.5840    5.4650 H       1  LIG1        0.0305
     41 H          -0.1435    1.8471    5.7008 H       1  LIG1        0.0321
     42 H          -0.3399    2.6975    4.1892 H       1  LIG1        0.0321
     43 H           0.5009    1.3789    2.6219 H       1  LIG1        0.0320
     44 H           1.2898    0.4987    3.9223 H       1  LIG1        0.0320
     45 H          -0.2125   -0.7858    1.5936 H       1  LIG1        0.0267
     46 H           0.6287   -1.6609    2.8743 H       1  LIG1        0.0267
     47 H           2.7786   -0.3183    2.1952 H       1  LIG1        0.0265
     48 H           1.8227    0.3467    0.8631 H       1  LIG1        0.0265
     49 H           1.3901   -1.8161   -0.0230 H       1  LIG1        0.0265
     50 H           2.3210   -2.6379    1.2351 H       1  LIG1        0.0265
     51 H           4.3973   -1.9736    0.2724 H       1  LIG1        0.0265
     52 H           3.6913   -0.8105   -0.8299 H       1  LIG1        0.0265
     53 H           3.3286   -3.8361   -0.7796 H       1  LIG1        0.0265
     54 H           4.2106   -2.9737   -2.0054 H       1  LIG1        0.0265
     55 H           1.1165   -2.9652   -1.5800 H       1  LIG1        0.0265
     56 H           1.9997   -3.9968   -2.6894 H       1  LIG1        0.0265
     57 H           2.6055   -2.2385   -4.0300 H       1  LIG1        0.0265
     58 H           1.7255   -1.0120   -2.9408 H       1  LIG1        0.0265
     59 H          -0.3474   -2.1091   -3.7385 H       1  LIG1        0.0265
     60 H           0.5901   -3.0906   -4.8663 H       1  LIG1        0.0265
     61 H           0.2340   -0.0192   -4.9934 H       1  LIG1        0.0265
     62 H          -0.7519   -1.2134   -5.7992 H       1  LIG1        0.0265
     63 H           0.3966   -0.2056   -7.4635 H       1  LIG1        0.0269
     64 H           1.1340   -1.7750   -7.3717 H       1  LIG1        0.0269
     65 H           2.2648    0.8939   -6.2939 H       1  LIG1        0.0341
     66 H           2.7204    0.1451   -7.8060 H       1  LIG1        0.0341
     67 H           4.1271    0.6409   -4.6475 H       1  LIG1        0.0306
     68 H           4.6096   -1.0832   -4.3042 H       1  LIG1        0.0306
     69 H           2.9763   -0.4262   -4.1528 H       1  LIG1        0.0306
@<TRIPOS>BOND
     1     1     2    1
     2     2     3    1
     3     2     4    1
     4     4     5    1
     5     4     6    1
     6     6     7    1
     7     7     8    1
     8     7     9    2
     9     4    10    1
    10    10    11    1
    11    11    12    1
    12    14    15    1
    13    15    16    1
    14    16    17    1
    15    17    18    1
    16    18    19    1
    17    19    20    1
    18    20    21    1
    19    21    22    1
    20    22    23    1
    21    23    24    1
    22    24    25    1
    23    25    26    1
    24    26    27    1
    25    26    28    2
    26    12    29    1
    27    29    30    1
    28     2    29    1
    29    29    31    1
    30    12    14    1
    31    12    13    1
    32     1    33    1
    33     1    34    1
    34     1    35    1
    35     8    36    1
    36     8    37    1
    37     8    38    1
    38    10    39    1
    39    10    40    1
    40    11    41    1
    41    11    42    1
    42    14    43    1
    43    14    44    1
    44    15    45    1
    45    15    46    1
    46    16    47    1
    47    16    48    1
    48    17    49    1
    49    17    50    1
    50    18    51    1
    51    18    52    1
    52    19    53    1
    53    19    54    1
    54    20    55    1
    55    20    56    1
    56    21    57    1
    57    21    58    1
    58    22    59    1
    59    22    60    1
    60    23    61    1
    61    23    62    1
    62    24    63    1
    63    24    64    1
    64    25    65    1
    65    25    66    1
    66    27    67    1
    67    27    68    1
    68    27    69    1
