@<TRIPOS>MOLECULE
NuBBE_2226
 28 28 0 0 0
SMALL
GASTEIGER

@<TRIPOS>ATOM
      1 C          -2.8561    0.3433    0.4937 C.2     1  LIG1       -0.0581
      2 C          -3.6888   -0.5831   -0.0154 C.2     1  LIG1       -0.0980
      3 C          -1.3851    0.2995    0.3825 C.ar    1  LIG1        0.0198
      4 C          -0.6200    1.4813    0.3791 C.ar    1  LIG1        0.1309
      5 O          -1.3116    2.6636    0.4775 O.3     1  LIG1       -0.4944
      6 C          -0.6695    3.8287   -0.0250 C.3     1  LIG1        0.0788
      7 C           0.7776    1.3966    0.3307 C.ar    1  LIG1        0.0260
      8 C           1.4318    0.1549    0.2647 C.ar    1  LIG1        0.1650
      9 C           0.6751   -1.0232    0.2698 C.ar    1  LIG1        0.1623
     10 C          -0.7199   -0.9372    0.3472 C.ar    1  LIG1       -0.0057
     11 O           1.3122   -2.2343    0.3236 O.3     1  LIG1       -0.4914
     12 C           0.6876   -3.2894   -0.4016 C.3     1  LIG1        0.0790
     13 O           2.8011    0.2523    0.2736 O.3     1  LIG1       -0.4913
     14 C           3.5253   -0.7567   -0.4217 C.3     1  LIG1        0.0790
     15 H          -3.2744    1.2004    1.0138 H       1  LIG1        0.0619
     16 H          -3.3364   -1.4451   -0.5686 H       1  LIG1        0.0535
     17 H          -4.7608   -0.4797    0.1057 H       1  LIG1        0.0535
     18 H          -1.4139    4.6314   -0.0487 H       1  LIG1        0.0660
     19 H          -0.3115    3.6766   -1.0485 H       1  LIG1        0.0660
     20 H           0.1406    4.1513    0.6358 H       1  LIG1        0.0660
     21 H           1.3941    2.2901    0.3651 H       1  LIG1        0.0692
     22 H          -1.3063   -1.8461    0.4356 H       1  LIG1        0.0662
     23 H           1.4257   -4.0881   -0.5222 H       1  LIG1        0.0660
     24 H           0.3785   -2.9639   -1.4009 H       1  LIG1        0.0660
     25 H          -0.1574   -3.7040    0.1563 H       1  LIG1        0.0660
     26 H           4.5771   -0.4538   -0.4394 H       1  LIG1        0.0660
     27 H           3.1848   -0.8470   -1.4586 H       1  LIG1        0.0660
     28 H           3.5005   -1.7183    0.0957 H       1  LIG1        0.0660
@<TRIPOS>BOND
     1     1     2    2
     2     1     3    1
     3     3     4   ar
     4     4     5    1
     5     5     6    1
     6     4     7   ar
     7     7     8   ar
     8     8     9   ar
     9     9    10   ar
    10     3    10   ar
    11     9    11    1
    12    11    12    1
    13     8    13    1
    14    13    14    1
    15     1    15    1
    16     2    16    1
    17     2    17    1
    18     6    18    1
    19     6    19    1
    20     6    20    1
    21     7    21    1
    22    10    22    1
    23    12    23    1
    24    12    24    1
    25    12    25    1
    26    14    26    1
    27    14    27    1
    28    14    28    1
