REMARK  Name = NuBBE_1430
REMARK  9 active torsions:
REMARK  status: ('A' for Active; 'I' for Inactive)
REMARK    1  A    between atoms: O_1  and  C_2
REMARK    2  A    between atoms: C_6  and  C_7
REMARK    3  A    between atoms: C_15  and  C_16
REMARK    4  A    between atoms: C_17  and  C_18
REMARK    5  A    between atoms: C_21  and  C_22
REMARK    6  A    between atoms: C_24  and  C_26
REMARK    7  A    between atoms: C_27  and  C_29
REMARK    8  A    between atoms: C_32  and  C_33
REMARK    9  A    between atoms: C_32  and  C_34
REMARK                            x       y       z     vdW  Elec       q    Type
REMARK                         _______ _______ _______ _____ _____    ______ ____
ROOT
ATOM      1  C   LIG A   1       3.074  -0.813  -4.034  0.00  0.00    +0.121 C 
ATOM      2  C   LIG A   1       3.001   0.780  -3.861  0.00  0.00    +0.032 C 
ATOM      3  C   LIG A   1       2.301   1.226  -2.592  0.00  0.00    +0.013 C 
ATOM      4  C   LIG A   1       2.714   0.499  -1.293  0.00  0.00    -0.007 C 
ATOM      5  C   LIG A   1       3.890   1.170  -0.588  0.00  0.00    +0.016 C 
ATOM      6  C   LIG A   1       3.108  -0.952  -1.644  0.00  0.00    +0.007 C 
ATOM      7  C   LIG A   1       3.157  -1.852  -0.374  0.00  0.00    +0.009 C 
ATOM      8  C   LIG A   1       1.792  -1.901   0.250  0.00  0.00    +0.031 C 
ATOM      9  C   LIG A   1       1.065  -0.554   0.335  0.00  0.00    -0.063 C 
ATOM     10  C   LIG A   1       1.466   0.504  -0.315  0.00  0.00    -0.064 C 
ATOM     11  C   LIG A   1       0.772   1.887  -0.258  0.00  0.00    +0.032 C 
ATOM     12  C   LIG A   1      -0.734   1.819   0.042  0.00  0.00    +0.012 C 
ATOM     13  C   LIG A   1      -0.974   1.022   1.321  0.00  0.00    -0.019 C 
ATOM     14  C   LIG A   1      -0.176   1.988   2.385  0.00  0.00    +0.012 C 
ATOM     15  C   LIG A   1      -0.370  -0.680   0.919  0.00  0.00    -0.005 C 
ATOM     16  C   LIG A   1      -0.935  -1.650  -0.297  0.00  0.00    +0.016 C 
ATOM     17  C   LIG A   1      -0.650  -1.759   2.048  0.00  0.00    +0.012 C 
ATOM     18  C   LIG A   1      -2.155  -1.782   2.368  0.00  0.00    +0.008 C 
ATOM     19  C   LIG A   1      -2.747  -0.366   2.402  0.00  0.00    -0.028 C 
ATOM     20  C   LIG A   1      -1.806  -0.092   3.748  0.00  0.00    +0.011 C 
ATOM     21  C   LIG A   1      -2.496   1.129   2.003  0.00  0.00    +0.005 C 
ATOM     22  C   LIG A   1      -3.985   1.692   1.414  0.00  0.00    -0.007 C 
ATOM     23  C   LIG A   1      -4.578   3.006   1.884  0.00  0.00    +0.008 C 
ATOM     24  C   LIG A   1      -5.012   0.478   1.584  0.00  0.00    -0.011 C 
ATOM     25  C   LIG A   1      -6.420   0.396   2.101  0.00  0.00    +0.008 C 
ATOM     26  C   LIG A   1      -4.660  -0.406   0.443  0.00  0.00    +0.004 C 
ATOM     27  C   LIG A   1      -3.163  -0.447   0.665  0.00  0.00    +0.007 C 
ATOM     28  C   LIG A   1       4.095  -1.244  -2.878  0.00  0.00    -0.005 C 
ATOM     29  C   LIG A   1       5.020  -2.328  -2.253  0.00  0.00    +0.014 C 
ATOM     30  C   LIG A   1       5.338  -0.607  -3.632  0.00  0.00    +0.014 C 
ENDROOT
BRANCH   1  31
ATOM     31  O   LIG A   1       1.754  -1.351  -4.020  0.00  0.00    -0.391 OA
ATOM     32  H   LIG A   1       1.115  -0.636  -3.844  0.00  0.00    +0.210 HD
ENDBRANCH   1  31
TORSDOF 1
