REMARK  Name = NuBBE_1320
REMARK  3 active torsions:
REMARK  status: ('A' for Active; 'I' for Inactive)
REMARK    1  A    between atoms: C_4  and  C_5
REMARK    2  A    between atoms: C_17  and  C_18
REMARK    3  A    between atoms: C_17  and  C_19
REMARK                            x       y       z     vdW  Elec       q    Type
REMARK                         _______ _______ _______ _____ _____    ______ ____
ROOT
ATOM      1  O   LIG A   1      -4.362  -1.068   0.096  0.00  0.00    -0.287 OA
ATOM      2  C   LIG A   1      -3.139  -1.064   0.057  0.00  0.00    +0.193 A 
ATOM      3  C   LIG A   1      -2.380  -2.322   0.035  0.00  0.00    +0.098 A 
ATOM      4  C   LIG A   1      -1.042  -2.276  -0.018  0.00  0.00    +0.139 A 
ATOM      5  O   LIG A   1      -0.303  -1.105  -0.037  0.00  0.00    -0.454 OA
ATOM      6  C   LIG A   1      -2.355   0.180   0.028  0.00  0.00    +0.065 A 
ATOM      7  C   LIG A   1      -0.962   0.103  -0.018  0.00  0.00    +0.150 A 
ATOM      8  C   LIG A   1      -0.194   1.280  -0.043  0.00  0.00    +0.059 A 
ATOM      9  C   LIG A   1       1.263   1.252  -0.103  0.00  0.00    +0.015 C 
ATOM     10  C   LIG A   1       1.921   2.414  -0.079  0.00  0.00    +0.020 C 
ATOM     11  C   LIG A   1       1.235   3.757   0.002  0.00  0.00    +0.123 C 
ATOM     12  C   LIG A   1       1.615   4.445   1.319  0.00  0.00    +0.060 C 
ATOM     13  C   LIG A   1       1.681   4.624  -1.181  0.00  0.00    +0.060 C 
ATOM     14  O   LIG A   1      -0.206   3.725  -0.046  0.00  0.00    -0.481 OA
ATOM     15  C   LIG A   1      -0.847   2.518  -0.019  0.00  0.00    +0.132 A 
ATOM     16  C   LIG A   1      -2.243   2.587   0.023  0.00  0.00    +0.047 A 
ATOM     17  C   LIG A   1      -3.001   1.419   0.048  0.00  0.00    +0.019 A 
ENDROOT
BRANCH   4  18
ATOM     18  C   LIG A   1      -0.224  -3.504  -0.030  0.00  0.00    +0.017 A 
ATOM     19  C   LIG A   1       0.938  -3.580   0.752  0.00  0.00    +0.011 A 
ATOM     20  C   LIG A   1       1.731  -4.730   0.746  0.00  0.00    +0.001 A 
ATOM     21  C   LIG A   1       1.376  -5.817  -0.048  0.00  0.00    +0.000 A 
ATOM     22  C   LIG A   1       0.231  -5.755  -0.839  0.00  0.00    +0.001 A 
ATOM     23  C   LIG A   1      -0.563  -4.605  -0.833  0.00  0.00    +0.011 A 
ENDBRANCH   4  18
TORSDOF 1
