REMARK  Name = NuBBE_371
REMARK  12 active torsions:
REMARK  status: ('A' for Active; 'I' for Inactive)
REMARK    1  A    between atoms: O_1  and  C_2
REMARK    2  A    between atoms: C_8  and  O_36
REMARK    3  A    between atoms: C_9  and  C_10
REMARK    4  A    between atoms: C_13  and  C_32
REMARK    5  A    between atoms: C_15  and  O_31
REMARK    6  A    between atoms: C_17  and  O_30
REMARK    7  A    between atoms: C_19  and  O_21
REMARK    8  A    between atoms: O_21  and  C_22
REMARK    9  A    between atoms: C_22  and  C_23
REMARK   10  A    between atoms: C_32  and  O_33
REMARK   11  A    between atoms: C_34  and  O_35
REMARK   12  A    between atoms: C_42  and  O_43
REMARK                            x       y       z     vdW  Elec       q    Type
REMARK                         _______ _______ _______ _____ _____    ______ ____
ROOT
ATOM      1  C   LIG A   1       1.879  -6.184   3.271  0.00  0.00    +0.162 A 
ATOM      2  C   LIG A   1       2.598  -5.146   2.678  0.00  0.00    +0.096 A 
ATOM      3  C   LIG A   1       1.916  -4.154   1.971  0.00  0.00    +0.143 A 
ATOM      4  O   LIG A   1       2.686  -3.165   1.407  0.00  0.00    -0.454 OA
ATOM      5  C   LIG A   1       2.057  -2.173   0.694  0.00  0.00    +0.146 A 
ATOM      6  C   LIG A   1       2.883  -1.203   0.124  0.00  0.00    +0.093 A 
ATOM      7  C   LIG A   1       2.328  -0.155  -0.619  0.00  0.00    +0.130 A 
ATOM      8  C   LIG A   1       0.946  -0.059  -0.832  0.00  0.00    +0.068 A 
ATOM      9  C   LIG A   1       0.127  -1.041  -0.230  0.00  0.00    +0.141 A 
ATOM     10  C   LIG A   1       0.680  -2.091   0.521  0.00  0.00    +0.106 A 
ATOM     11  C   LIG A   1      -0.156  -3.140   1.128  0.00  0.00    +0.204 A 
ATOM     12  O   LIG A   1      -1.377  -3.118   1.009  0.00  0.00    -0.286 OA
ATOM     13  C   LIG A   1       0.527  -4.206   1.870  0.00  0.00    +0.068 A 
ATOM     14  C   LIG A   1      -0.200  -5.247   2.459  0.00  0.00    +0.064 A 
ATOM     15  C   LIG A   1       0.486  -6.236   3.159  0.00  0.00    +0.159 A 
ENDROOT
BRANCH   8  16
ATOM     16  C   LIG A   1       0.334   1.047  -1.687  0.00  0.00    +0.199 C 
ATOM     17  O   LIG A   1       0.909   1.038  -3.007  0.00  0.00    -0.360 OA
ATOM     18  C   LIG A   1       0.225   1.956  -3.871  0.00  0.00    +0.175 C 
ATOM     19  C   LIG A   1       0.522   3.385  -3.406  0.00  0.00    +0.177 C 
ATOM     20  C   LIG A   1      -0.019   3.590  -1.991  0.00  0.00    +0.189 C 
ATOM     21  C   LIG A   1       0.414   2.458  -1.032  0.00  0.00    +0.241 C 
BRANCH  20  22
ATOM     22  O   LIG A   1       0.429   4.876  -1.517  0.00  0.00    -0.385 OA
ATOM     23  H   LIG A   1       0.414   5.476  -2.291  0.00  0.00    +0.210 HD
ENDBRANCH  20  22
BRANCH  19  24
ATOM     24  O   LIG A   1      -0.051   4.382  -4.272  0.00  0.00    -0.387 OA
ATOM     25  H   LIG A   1      -1.023   4.343  -4.176  0.00  0.00    +0.210 HD
ENDBRANCH  19  24
BRANCH  21  26
ATOM     26  O   LIG A   1      -0.353   2.518   0.198  0.00  0.00    -0.452 OA
BRANCH  26  27
ATOM     27  C   LIG A   1      -1.671   2.187   0.120  0.00  0.00    +0.340 C 
ATOM     28  O   LIG A   1      -2.289   1.887  -0.876  0.00  0.00    -0.245 OA
BRANCH  27  29
ATOM     29  C   LIG A   1      -2.301   2.271   1.449  0.00  0.00    +0.059 A 
ATOM     30  C   LIG A   1      -3.527   1.622   1.637  0.00  0.00    +0.015 A 
ATOM     31  C   LIG A   1      -4.210   1.778   2.841  0.00  0.00    +0.001 A 
ATOM     32  C   LIG A   1      -3.665   2.574   3.848  0.00  0.00    +0.000 A 
ATOM     33  C   LIG A   1      -2.432   3.203   3.666  0.00  0.00    +0.001 A 
ATOM     34  C   LIG A   1      -1.743   3.046   2.467  0.00  0.00    +0.015 A 
ENDBRANCH  27  29
ENDBRANCH  26  27
ENDBRANCH  21  26
BRANCH  18  35
ATOM     35  C   LIG A   1       0.690   1.720  -5.309  0.00  0.00    +0.190 C 
BRANCH  35  36
ATOM     36  O   LIG A   1       0.027   2.575  -6.235  0.00  0.00    -0.392 OA
ATOM     37  H   LIG A   1       0.091   3.485  -5.877  0.00  0.00    +0.209 HD
ENDBRANCH  35  36
ENDBRANCH  18  35
ENDBRANCH   8  16
BRANCH   1  38
ATOM     38  O   LIG A   1       2.529  -7.164   3.967  0.00  0.00    -0.503 OA
ATOM     39  H   LIG A   1       3.483  -6.994   3.958  0.00  0.00    +0.292 HD
ENDBRANCH   1  38
BRANCH   9  40
ATOM     40  O   LIG A   1      -1.233  -0.949  -0.396  0.00  0.00    -0.505 OA
ATOM     41  H   LIG A   1      -1.664  -1.711   0.053  0.00  0.00    +0.292 HD
ENDBRANCH   9  40
BRANCH   7  42
ATOM     42  O   LIG A   1       3.150   0.801  -1.145  0.00  0.00    -0.506 OA
ATOM     43  H   LIG A   1       4.074   0.585  -0.939  0.00  0.00    +0.292 HD
ENDBRANCH   7  42
BRANCH  15  44
ATOM     44  O   LIG A   1      -0.192  -7.266   3.745  0.00  0.00    -0.503 OA
ATOM     45  H   LIG A   1      -1.142  -7.172   3.571  0.00  0.00    +0.292 HD
ENDBRANCH  15  44
TORSDOF 12
