@<TRIPOS>MOLECULE
NuBBE_1290
 65 70 0 0 0
SMALL
GASTEIGER

@<TRIPOS>ATOM
      1 C          -1.3622   -0.5121    1.5111 C.3     1  LIG1       -0.0530
      2 C          -0.3825   -0.4833    0.3094 C.3     1  LIG1        0.0244
      3 C           0.7187    0.6005    0.5795 C.3     1  LIG1        0.0952
      4 H           0.9508    0.5789    1.6587 H       1  LIG1        0.0631
      5 C           0.2584    2.0286    0.3003 C.3     1  LIG1        0.0902
      6 H           0.0467    2.3259    1.3470 H       1  LIG1        0.0625
      7 C          -1.0469    2.2022   -0.4348 C.3     1  LIG1        0.0114
      8 H          -1.5859    2.2242    0.5343 H       1  LIG1        0.0345
      9 C          -1.8694    1.1413   -1.1819 C.3     1  LIG1        0.0404
     10 C          -1.2012   -0.2860   -1.0233 C.3     1  LIG1       -0.0066
     11 H          -2.0361   -0.9992   -0.9633 H       1  LIG1        0.0325
     12 C          -0.4182   -0.7644   -2.3031 C.3     1  LIG1        0.0495
     13 C           0.7826    0.0465   -2.7529 C.2     1  LIG1        0.3071
     14 O           0.9049    1.2708   -2.6624 O.2     1  LIG1       -0.2509
     15 O           1.6906   -0.7880   -3.3401 O.3     1  LIG1       -0.4679
     16 C           3.0026   -0.2348   -3.4743 C.3     1  LIG1        0.0817
     17 C          -2.3162    1.3301   -2.6579 C.3     1  LIG1       -0.0518
     18 C          -3.2485    1.4704   -0.5147 C.2     1  LIG1        0.1623
     19 O          -4.0519    0.6248   -0.1413 O.2     1  LIG1       -0.2921
     20 C          -3.5709    2.9868   -0.3705 C.2     1  LIG1       -0.0220
     21 C          -2.6292    3.9551   -0.5654 C.2     1  LIG1       -0.0722
     22 C          -1.1633    3.6392   -0.9282 C.3     1  LIG1        0.0158
     23 C           0.0608    4.2389   -0.1820 C.3     1  LIG1        0.0573
     24 O           1.0451    3.1485   -0.0825 O.3     1  LIG1       -0.3728
     25 C          -0.9340    3.9616   -2.4146 C.3     1  LIG1       -0.0536
     26 O           1.9447    0.1670   -0.0192 O.3     1  LIG1       -0.3656
     27 C           1.9612   -1.2542    0.0805 C.3     1  LIG1        0.0819
     28 H           2.3348   -1.6712   -0.8580 H       1  LIG1        0.0644
     29 C           0.5556   -1.6668    0.3597 C.2     1  LIG1       -0.0329
     30 C           0.4994   -2.8324    1.0236 C.2     1  LIG1       -0.0628
     31 C          -0.6962   -3.6851    1.2760 C.3     1  LIG1       -0.0429
     32 C           1.8730   -3.1579    1.5983 C.3     1  LIG1        0.0109
     33 H           2.2972   -4.0190    1.0664 H       1  LIG1        0.0396
     34 C           2.6843   -1.8693    1.2664 C.3     1  LIG1       -0.0121
     35 C           1.8361   -3.4273    3.0839 C.ar    1  LIG1       -0.0025
     36 C           1.9452   -2.4893    4.1597 C.ar    1  LIG1       -0.0202
     37 C           1.8716   -3.2034    5.3296 C.ar    1  LIG1        0.0920
     38 O           1.7066   -4.5207    5.0624 O.2     1  LIG1       -0.4707
     39 C           1.6855   -4.6520    3.7100 C.ar    1  LIG1        0.0954
     40 H          -0.8438   -0.7406    2.4506 H       1  LIG1        0.0239
     41 H          -1.8665    0.4423    1.6691 H       1  LIG1        0.0239
     42 H          -2.1409   -1.2699    1.3737 H       1  LIG1        0.0239
     43 H          -0.0757   -1.7935   -2.1312 H       1  LIG1        0.0381
     44 H          -1.0976   -0.8473   -3.1600 H       1  LIG1        0.0381
     45 H           3.3192    0.2327   -2.5359 H       1  LIG1        0.0661
     46 H           3.0566    0.4788   -4.3017 H       1  LIG1        0.0661
     47 H           3.6845   -1.0642   -3.6799 H       1  LIG1        0.0661
     48 H          -1.4896    1.4621   -3.3547 H       1  LIG1        0.0239
     49 H          -3.0107    2.1633   -2.8121 H       1  LIG1        0.0239
     50 H          -2.8993    0.4567   -2.9817 H       1  LIG1        0.0239
     51 H          -4.5924    3.2112   -0.0834 H       1  LIG1        0.0649
     52 H          -2.9073    5.0018   -0.4696 H       1  LIG1        0.0579
     53 H          -0.1942    4.5669    0.8322 H       1  LIG1        0.0568
     54 H           0.5384    5.0757   -0.7009 H       1  LIG1        0.0568
     55 H          -1.8120    3.8071   -3.0451 H       1  LIG1        0.0239
     56 H          -0.1005    3.3964   -2.8348 H       1  LIG1        0.0239
     57 H          -0.6930    5.0240   -2.5461 H       1  LIG1        0.0239
     58 H          -1.4936   -3.4627    0.5571 H       1  LIG1        0.0275
     59 H          -1.0874   -3.5585    2.2871 H       1  LIG1        0.0275
     60 H          -0.4386   -4.7404    1.1264 H       1  LIG1        0.0275
     61 H           3.7284   -2.1104    1.0395 H       1  LIG1        0.0302
     62 H           2.7200   -1.1443    2.0864 H       1  LIG1        0.0302
     63 H           2.0770   -1.4181    4.1007 H       1  LIG1        0.0652
     64 H           1.9192   -2.9299    6.3745 H       1  LIG1        0.1029
     65 H           1.5563   -5.6645    3.3534 H       1  LIG1        0.1032
@<TRIPOS>BOND
     1     2     3    1
     2     3     5    1
     3     5     7    1
     4     7     9    1
     5     9    10    1
     6     2    10    1
     7    12    13    1
     8    13    14    2
     9    13    15    1
    10    15    16    1
    11     9    18    1
    12    18    20    1
    13    20    21    2
    14    21    22    1
    15     7    22    1
    16    22    23    1
    17    23    24    1
    18     5    24    1
    19     3    26    1
    20    26    27    1
    21    27    29    1
    22     2    29    1
    23    29    30    2
    24    30    32    1
    25    32    34    1
    26    27    34    1
    27    35    36   ar
    28    36    37   ar
    29    37    38   ar
    30    38    39   ar
    31    35    39   ar
    32     1     2    1
    33     3     4    1
    34     5     6    1
    35     7     8    1
    36     9    17    1
    37    10    11    1
    38    10    12    1
    39    18    19    2
    40    22    25    1
    41    27    28    1
    42    30    31    1
    43    32    33    1
    44    32    35    1
    45     1    40    1
    46     1    41    1
    47     1    42    1
    48    12    43    1
    49    12    44    1
    50    16    45    1
    51    16    46    1
    52    16    47    1
    53    17    48    1
    54    17    49    1
    55    17    50    1
    56    20    51    1
    57    21    52    1
    58    23    53    1
    59    23    54    1
    60    25    55    1
    61    25    56    1
    62    25    57    1
    63    31    58    1
    64    31    59    1
    65    31    60    1
    66    34    61    1
    67    34    62    1
    68    36    63    1
    69    37    64    1
    70    39    65    1
