REMARK  Name = NuBBE_102
REMARK  12 active torsions:
REMARK  status: ('A' for Active; 'I' for Inactive)
REMARK    1  A    between atoms: C_2  and  C_3
REMARK    2  A    between atoms: C_4  and  O_28
REMARK    3  A    between atoms: C_8  and  C_25
REMARK    4  A    between atoms: C_9  and  C_10
REMARK    5  A    between atoms: C_10  and  C_11
REMARK    6  A    between atoms: C_25  and  O_26
REMARK    7  A    between atoms: O_28  and  C_29
REMARK    8  A    between atoms: C_32  and  C_40
REMARK    9  A    between atoms: C_34  and  O_39
REMARK   10  A    between atoms: C_36  and  O_38
REMARK   11  A    between atoms: C_40  and  O_41
REMARK   12  A    between atoms: C_42  and  O_44
REMARK                            x       y       z     vdW  Elec       q    Type
REMARK                         _______ _______ _______ _____ _____    ______ ____
ROOT
ATOM      1  C   LIG A   1       1.031  -0.641   2.484  0.00  0.00    +0.088 C 
ATOM      2  C   LIG A   1       2.174  -0.535   1.397  0.00  0.00    +0.316 C 
ATOM      3  O   LIG A   1       2.651  -1.851   1.079  0.00  0.00    -0.470 OA
ATOM      4  C   LIG A   1       1.770  -2.884   1.082  0.00  0.00    +0.201 C 
ATOM      5  C   LIG A   1       0.511  -2.875   1.544  0.00  0.00    +0.074 C 
ATOM      6  C   LIG A   1      -0.146  -1.640   2.124  0.00  0.00    +0.043 C 
ENDROOT
BRANCH   1   8
ATOM      7  C   LIG A   1       1.171   1.800   3.244  0.00  0.00    +0.004 C 
ATOM      8  C   LIG A   1       0.640   0.574   3.305  0.00  0.00    -0.025 C 
ENDBRANCH   1   8
BRANCH   5   9
ATOM      9  C   LIG A   1      -0.099  -4.204   1.787  0.00  0.00    +0.336 C 
ATOM     10  O   LIG A   1      -1.032  -4.415   2.510  0.00  0.00    -0.245 OA
BRANCH   9  11
ATOM     11  O   LIG A   1       0.471  -5.190   1.067  0.00  0.00    -0.477 OA
ATOM     12  H   LIG A   1      -0.005  -6.003   1.324  0.00  0.00    +0.295 HD
ENDBRANCH   9  11
ENDBRANCH   5   9
BRANCH   6  13
ATOM     13  C   LIG A   1      -1.326  -1.004   1.318  0.00  0.00    +0.034 C 
BRANCH  13  14
ATOM     14  C   LIG A   1      -2.597  -1.852   0.928  0.00  0.00    +0.101 C 
ATOM     15  C   LIG A   1      -3.592  -0.938   0.250  0.00  0.00    +0.037 A 
ATOM     16  C   LIG A   1      -3.761  -0.796  -1.116  0.00  0.00    -0.016 A 
ATOM     17  C   LIG A   1      -3.060  -1.685  -2.084  0.00  0.00    +0.052 C 
ATOM     18  C   LIG A   1      -1.973  -2.515  -1.362  0.00  0.00    +0.086 C 
ATOM     19  N   LIG A   1      -2.393  -2.959  -0.022  0.00  0.00    -0.308 NA
ATOM     20  C   LIG A   1      -4.675   0.263  -1.335  0.00  0.00    +0.003 A 
ATOM     21  C   LIG A   1      -5.163   0.918  -2.482  0.00  0.00    +0.010 A 
ATOM     22  C   LIG A   1      -6.123   1.924  -2.336  0.00  0.00    +0.001 A 
ATOM     23  C   LIG A   1      -6.609   2.262  -1.075  0.00  0.00    +0.002 A 
ATOM     24  C   LIG A   1      -6.132   1.632   0.079  0.00  0.00    +0.026 A 
ATOM     25  C   LIG A   1      -5.149   0.649  -0.079  0.00  0.00    +0.047 A 
ATOM     26  N   LIG A   1      -4.484  -0.106   0.868  0.00  0.00    -0.356 N 
ATOM     27  H   LIG A   1      -1.796  -3.680   0.350  0.00  0.00    +0.123 HD
ATOM     28  H   LIG A   1      -4.630  -0.031   1.864  0.00  0.00    +0.166 HD
ENDBRANCH  13  14
ENDBRANCH   6  13
BRANCH   2  29
ATOM     29  O   LIG A   1       1.972   0.227   0.177  0.00  0.00    -0.309 OA
BRANCH  29  30
ATOM     30  C   LIG A   1       3.155   0.077  -0.672  0.00  0.00    +0.286 C 
ATOM     31  O   LIG A   1       4.360   0.605  -0.093  0.00  0.00    -0.340 OA
ATOM     32  C   LIG A   1       4.620   2.007  -0.247  0.00  0.00    +0.178 C 
ATOM     33  C   LIG A   1       4.441   2.513  -1.692  0.00  0.00    +0.177 C 
ATOM     34  C   LIG A   1       3.103   2.038  -2.282  0.00  0.00    +0.179 C 
ATOM     35  C   LIG A   1       2.979   0.519  -2.145  0.00  0.00    +0.201 C 
BRANCH  34  36
ATOM     36  O   LIG A   1       2.015   2.712  -1.651  0.00  0.00    -0.386 OA
ATOM     37  H   LIG A   1       1.248   2.105  -1.651  0.00  0.00    +0.210 HD
ENDBRANCH  34  36
BRANCH  33  38
ATOM     38  O   LIG A   1       5.517   2.003  -2.507  0.00  0.00    -0.387 OA
ATOM     39  H   LIG A   1       6.344   2.393  -2.162  0.00  0.00    +0.210 HD
ENDBRANCH  33  38
BRANCH  35  40
ATOM     40  O   LIG A   1       3.970  -0.122  -2.979  0.00  0.00    -0.384 OA
ATOM     41  H   LIG A   1       4.777   0.442  -2.964  0.00  0.00    +0.210 HD
ENDBRANCH  35  40
BRANCH  32  42
ATOM     42  C   LIG A   1       3.851   2.819   0.792  0.00  0.00    +0.190 C 
BRANCH  42  43
ATOM     43  O   LIG A   1       4.070   4.216   0.658  0.00  0.00    -0.392 OA
ATOM     44  H   LIG A   1       3.367   4.548   0.068  0.00  0.00    +0.209 HD
ENDBRANCH  42  43
ENDBRANCH  32  42
ENDBRANCH  29  30
ENDBRANCH   2  29
TORSDOF 12
