REMARK  Name = NuBBE_585
REMARK  6 active torsions:
REMARK  status: ('A' for Active; 'I' for Inactive)
REMARK    1  A    between atoms: O_1  and  C_2
REMARK    2  A    between atoms: C_5  and  C_7
REMARK    3  A    between atoms: C_7  and  C_8
REMARK    4  A    between atoms: C_17  and  C_22
REMARK    5  A    between atoms: C_19  and  O_21
REMARK    6  A    between atoms: C_23  and  C_24
REMARK                            x       y       z     vdW  Elec       q    Type
REMARK                         _______ _______ _______ _____ _____    ______ ____
ROOT
ATOM      1  C   LIG A   1       0.972   0.246   3.288  0.00  0.00    +0.148 C 
ATOM      2  C   LIG A   1       0.032  -0.932   3.061  0.00  0.00    +0.065 C 
ATOM      3  C   LIG A   1      -0.747  -0.807   1.750  0.00  0.00    +0.125 C 
ATOM      4  O   LIG A   1       0.144  -0.560   0.662  0.00  0.00    -0.366 OA
ATOM      5  C   LIG A   1       1.011   0.577   0.799  0.00  0.00    +0.172 C 
ATOM      6  C   LIG A   1       1.879   0.464   2.071  0.00  0.00    +0.175 C 
ENDROOT
BRANCH   1   7
ATOM      7  O   LIG A   1       1.771  -0.016   4.443  0.00  0.00    -0.389 OA
ATOM      8  H   LIG A   1       2.557  -0.502   4.114  0.00  0.00    +0.210 HD
ENDBRANCH   1   7
BRANCH   6   9
ATOM      9  O   LIG A   1       2.803  -0.642   2.015  0.00  0.00    -0.386 OA
ATOM     10  H   LIG A   1       2.446  -1.279   1.365  0.00  0.00    +0.210 HD
ENDBRANCH   6   9
BRANCH   5  11
ATOM     11  C   LIG A   1       1.847   0.698  -0.456  0.00  0.00    +0.007 C 
ATOM     12  C   LIG A   1       1.575   0.081  -1.620  0.00  0.00    +0.006 C 
BRANCH  12  13
ATOM     13  C   LIG A   1       2.314   0.236  -2.883  0.00  0.00    -0.025 A 
ATOM     14  C   LIG A   1       2.090  -0.698  -3.905  0.00  0.00    +0.008 A 
ATOM     15  C   LIG A   1       2.748  -0.587  -5.133  0.00  0.00    +0.001 A 
ATOM     16  C   LIG A   1       3.632   0.464  -5.356  0.00  0.00    +0.000 A 
ATOM     17  C   LIG A   1       3.841   1.417  -4.363  0.00  0.00    +0.001 A 
ATOM     18  C   LIG A   1       3.179   1.308  -3.136  0.00  0.00    +0.008 A 
ENDBRANCH  12  13
ENDBRANCH   5  11
BRANCH   3  19
ATOM     19  C   LIG A   1      -1.913   0.197   1.813  0.00  0.00    +0.076 C 
BRANCH  19  20
ATOM     20  C   LIG A   1      -2.711   0.371   0.500  0.00  0.00    +0.183 C 
ATOM     21  O   LIG A   1      -3.763   1.350   0.736  0.00  0.00    -0.458 OA
ATOM     22  C   LIG A   1      -4.963   0.994   1.259  0.00  0.00    +0.332 C 
ATOM     23  C   LIG A   1      -5.286  -0.447   1.256  0.00  0.00    +0.087 C 
ATOM     24  C   LIG A   1      -4.536  -1.332   0.589  0.00  0.00    -0.016 C 
ATOM     25  C   LIG A   1      -3.294  -0.902  -0.120  0.00  0.00    +0.072 C 
ATOM     26  O   LIG A   1      -5.766   1.807   1.685  0.00  0.00    -0.246 OA
ENDBRANCH  19  20
ENDBRANCH   3  19
TORSDOF 6
