REMARK  Name = NuBBE_2169
REMARK  7 active torsions:
REMARK  status: ('A' for Active; 'I' for Inactive)
REMARK    1  A    between atoms: O_1  and  C_2
REMARK    2  A    between atoms: C_2  and  C_23
REMARK    3  A    between atoms: C_12  and  O_13
REMARK    4  A    between atoms: O_13  and  C_14
REMARK    5  A    between atoms: C_14  and  C_15
REMARK    6  A    between atoms: C_17  and  C_19
REMARK    7  A    between atoms: C_20  and  C_22
REMARK                            x       y       z     vdW  Elec       q    Type
REMARK                         _______ _______ _______ _____ _____    ______ ____
ROOT
ATOM      1  C   LIG A   1      -0.013  -0.121  -1.204  0.00  0.00    +0.123 C 
ATOM      2  C   LIG A   1       0.673   0.891  -0.287  0.00  0.00    +0.041 A 
ATOM      3  C   LIG A   1       0.634   2.261  -0.554  0.00  0.00    +0.173 A 
ATOM      4  O   LIG A   1       0.145   2.832  -1.695  0.00  0.00    -0.452 OA
ATOM      5  C   LIG A   1       0.298   4.236  -1.398  0.00  0.00    +0.466 C 
ATOM      6  O   LIG A   1       0.950   4.482  -0.139  0.00  0.00    -0.453 OA
ATOM      7  C   LIG A   1       1.101   3.213   0.325  0.00  0.00    +0.167 A 
ATOM      8  C   LIG A   1       1.645   2.871   1.538  0.00  0.00    +0.050 A 
ATOM      9  C   LIG A   1       1.737   1.512   1.836  0.00  0.00    +0.011 A 
ATOM     10  C   LIG A   1       1.268   0.515   0.935  0.00  0.00    +0.003 A 
ATOM     11  C   LIG A   1       1.491  -0.929   1.323  0.00  0.00    +0.210 C 
ATOM     12  C   LIG A   1       0.678  -1.973   0.534  0.00  0.00    +0.037 C 
ATOM     13  C   LIG A   1      -0.620  -2.322   1.267  0.00  0.00    +0.012 C 
ATOM     14  C   LIG A   1       0.472  -1.595  -0.958  0.00  0.00    +0.033 C 
ATOM     15  C   LIG A   1       1.753  -1.925  -1.760  0.00  0.00    +0.011 C 
ENDROOT
BRANCH   1  16
ATOM     16  C   LIG A   1      -1.558  -0.045  -1.110  0.00  0.00    -0.008 A 
ATOM     17  C   LIG A   1      -2.211   0.412   0.052  0.00  0.00    +0.056 A 
ATOM     18  C   LIG A   1      -3.589   0.450   0.079  0.00  0.00    +0.167 A 
ATOM     19  C   LIG A   1      -4.347   0.067  -0.997  0.00  0.00    +0.166 A 
ATOM     20  O   LIG A   1      -5.680   0.193  -0.761  0.00  0.00    -0.453 OA
ATOM     21  C   LIG A   1      -5.669   0.725   0.580  0.00  0.00    +0.466 C 
ATOM     22  O   LIG A   1      -4.344   0.855   1.134  0.00  0.00    -0.453 OA
ATOM     23  C   LIG A   1      -3.766  -0.384  -2.160  0.00  0.00    +0.050 A 
ATOM     24  C   LIG A   1      -2.366  -0.442  -2.211  0.00  0.00    +0.010 A 
ENDBRANCH   1  16
BRANCH   1  25
ATOM     25  O   LIG A   1       0.302   0.183  -2.578  0.00  0.00    -0.379 OA
ATOM     26  H   LIG A   1       0.564   1.119  -2.622  0.00  0.00    +0.211 HD
ENDBRANCH   1  25
BRANCH  11  27
ATOM     27  O   LIG A   1       2.884  -1.197   1.062  0.00  0.00    -0.457 OA
BRANCH  27  28
ATOM     28  C   LIG A   1       3.633  -1.605   2.114  0.00  0.00    +0.304 C 
ATOM     29  C   LIG A   1       5.001  -2.004   1.657  0.00  0.00    +0.136 C 
ATOM     30  O   LIG A   1       3.257  -1.675   3.280  0.00  0.00    -0.251 OA
ENDBRANCH  27  28
ENDBRANCH  11  27
TORSDOF 4
