@<TRIPOS>MOLECULE
NuBBE_577
 52 55 0 0 0
SMALL
GASTEIGER

@<TRIPOS>ATOM
      1 O          -2.6398   -0.5442   -1.6347 O.2     1  LIG1       -0.2921
      2 C          -1.4093   -0.4916   -1.5010 C.2     1  LIG1        0.1626
      3 C          -0.7410   -1.7010   -0.9390 C.2     1  LIG1        0.0076
      4 C          -1.2246   -2.8367   -1.8296 C.3     1  LIG1        0.0121
      5 C          -0.1475   -3.8724   -1.6742 C.3     1  LIG1        0.1292
      6 O           0.9879   -3.5519   -2.4721 O.3     1  LIG1       -0.3807
      7 C          -0.6632   -5.2301   -2.0952 C.3     1  LIG1       -0.0285
      8 C          -0.0747   -2.1591    0.1545 C.2     1  LIG1        0.0358
      9 C           0.3118   -1.7964    1.5411 C.3     1  LIG1        0.1167
     10 H          -0.4230   -2.2411    2.2164 H       1  LIG1        0.0677
     11 C           1.2570   -0.8547    2.3012 C.3     1  LIG1        0.0979
     12 C           1.2120   -0.8274    3.8206 C.3     1  LIG1       -0.0330
     13 C           1.8406    0.3687    1.6672 C.3     1  LIG1       -0.0209
     14 C           0.7431    1.4188    1.6981 C.3     1  LIG1       -0.0468
     15 C           0.9149    2.5548    0.7551 C.3     1  LIG1       -0.0322
     16 C           0.1330    2.6963   -0.5353 C.3     1  LIG1       -0.0317
     17 C          -0.2134    3.5730    0.6673 C.3     1  LIG1       -0.0287
     18 C           0.1363    5.0310    0.5950 C.3     1  LIG1       -0.0593
     19 C          -1.5137    3.3332    1.4291 C.3     1  LIG1       -0.0593
     20 C          -0.9447    1.7756   -0.9806 C.3     1  LIG1       -0.0398
     21 C          -0.6737    0.7277   -2.0429 C.3     1  LIG1        0.0193
     22 H          -1.2653    1.0390   -2.9213 H       1  LIG1        0.0378
     23 C           0.7152    0.5265   -2.6258 C.3     1  LIG1       -0.0554
     24 H           0.6232    3.1832   -1.3727 H       1  LIG1        0.0309
     25 H           1.9306    2.9400    0.7752 H       1  LIG1        0.0309
     26 O           1.7206   -2.0933    1.8340 O.3     1  LIG1       -0.3600
     27 C           0.0707   -3.6297   -0.2041 C.2     1  LIG1        0.1934
     28 O           0.2626   -4.5112    0.6498 O.2     1  LIG1       -0.2892
     29 H          -1.3676   -2.5436   -2.8739 H       1  LIG1        0.0346
     30 H          -2.1915   -3.1824   -1.4263 H       1  LIG1        0.0346
     31 H           0.8844   -2.6649   -2.8547 H       1  LIG1        0.2108
     32 H          -0.9066   -5.2105   -3.1651 H       1  LIG1        0.0262
     33 H          -1.5632   -5.5229   -1.5453 H       1  LIG1        0.0262
     34 H           0.0991   -6.0009   -1.9562 H       1  LIG1        0.0262
     35 H           0.7880    0.1094    4.1967 H       1  LIG1        0.0258
     36 H           2.2219   -0.9224    4.2379 H       1  LIG1        0.0258
     37 H           0.6067   -1.6432    4.2301 H       1  LIG1        0.0258
     38 H           2.2058    0.1699    0.6555 H       1  LIG1        0.0294
     39 H           2.7015    0.7264    2.2512 H       1  LIG1        0.0294
     40 H           0.6566    1.8267    2.7127 H       1  LIG1        0.0269
     41 H          -0.2003    0.9030    1.5103 H       1  LIG1        0.0269
     42 H          -0.6583    5.5743    0.0733 H       1  LIG1        0.0235
     43 H           1.0774    5.2060    0.0670 H       1  LIG1        0.0235
     44 H           0.2269    5.4397    1.6064 H       1  LIG1        0.0235
     45 H          -2.3496    3.7996    0.8981 H       1  LIG1        0.0235
     46 H          -1.4495    3.7558    2.4351 H       1  LIG1        0.0235
     47 H          -1.7796    2.2807    1.5626 H       1  LIG1        0.0235
     48 H          -1.7761    2.3985   -1.3367 H       1  LIG1        0.0275
     49 H          -1.3579    1.2591   -0.1131 H       1  LIG1        0.0275
     50 H           1.3792   -0.0629   -1.9930 H       1  LIG1        0.0237
     51 H           1.1973    1.4821   -2.8624 H       1  LIG1        0.0237
     52 H           0.6299   -0.0046   -3.5862 H       1  LIG1        0.0237
@<TRIPOS>BOND
     1     1     2    2
     2     2     3    1
     3     3     4    1
     4     4     5    1
     5     5     6    1
     6     5     7    1
     7     3     8    2
     8     8     9    1
     9     9    10    1
    10     9    11    1
    11    11    12    1
    12    11    13    1
    13    13    14    1
    14    14    15    1
    15    15    16    1
    16    16    17    1
    17    17    18    1
    18    17    19    1
    19    16    20    1
    20    20    21    1
    21     2    21    1
    22    16    24    1
    23    17    15    1
    24    15    25    1
    25    11    26    1
    26     9    26    1
    27     8    27    1
    28     5    27    1
    29    27    28    2
    30    21    23    1
    31    21    22    1
    32     4    29    1
    33     4    30    1
    34     6    31    1
    35     7    32    1
    36     7    33    1
    37     7    34    1
    38    12    35    1
    39    12    36    1
    40    12    37    1
    41    13    38    1
    42    13    39    1
    43    14    40    1
    44    14    41    1
    45    18    42    1
    46    18    43    1
    47    18    44    1
    48    19    45    1
    49    19    46    1
    50    19    47    1
    51    20    48    1
    52    20    49    1
    53    23    50    1
    54    23    51    1
    55    23    52    1
