@<TRIPOS>MOLECULE
NuBBE_1900
 52 53 0 0 0
SMALL
GASTEIGER

@<TRIPOS>ATOM
      1 O          -2.5918   -0.0735    1.1937 O.2     1  LIG1       -0.2881
      2 C          -1.4606   -0.1306    0.7074 C.2     1  LIG1        0.2044
      3 C          -0.7505   -1.4263    0.5674 C.ar    1  LIG1        0.0300
      4 C          -1.4440   -2.6484    0.7848 C.ar    1  LIG1       -0.0111
      5 C          -2.9064   -2.7127    1.2089 C.3     1  LIG1        0.0730
      6 O          -3.3315   -4.0738    1.3749 O.3     1  LIG1       -0.3784
      7 C          -4.6688   -4.1742    1.8363 C.3     1  LIG1        0.0369
      8 C          -0.7413   -3.8465    0.5952 C.ar    1  LIG1       -0.0555
      9 C           0.5998   -3.8474    0.2317 C.ar    1  LIG1       -0.0582
     10 C           1.2966   -2.6471    0.0613 C.ar    1  LIG1       -0.0466
     11 C           2.7610   -2.7198   -0.2824 C.3     1  LIG1       -0.0394
     12 C           0.6171   -1.4129    0.2081 C.ar    1  LIG1       -0.0330
     13 C           1.4130   -0.1270    0.1316 C.3     1  LIG1       -0.0165
     14 C           0.6655    1.1711   -0.2208 C.3     1  LIG1        0.0468
     15 H           0.7095    1.2500   -1.3169 H       1  LIG1        0.0383
     16 C           1.4088    2.4552    0.3457 C.3     1  LIG1        0.1148
     17 C           0.7029    3.7880    0.0007 C.3     1  LIG1       -0.0247
     18 C           1.4847    2.4202    1.8947 C.3     1  LIG1       -0.0247
     19 O           2.8093    2.5055   -0.1032 O.3     1  LIG1       -0.4584
     20 C           3.1325    2.9077   -1.3508 C.2     1  LIG1        0.3045
     21 C           4.6187    3.0937   -1.4823 C.3     1  LIG1        0.0333
     22 O           2.3380    3.1585   -2.2617 O.2     1  LIG1       -0.2511
     23 C          -0.8091    1.1521    0.2065 C.3     1  LIG1        0.1717
     24 H          -0.9156    1.7877    1.0888 H       1  LIG1        0.0823
     25 O          -1.6437    1.7960   -0.7771 O.3     1  LIG1       -0.4530
     26 C          -1.9684    1.0408   -1.8633 C.2     1  LIG1        0.3046
     27 C          -2.9908    1.7497   -2.6930 C.3     1  LIG1        0.0333
     28 O          -1.5182   -0.0616   -2.1188 O.2     1  LIG1       -0.2511
     29 H          -3.5357   -2.2501    0.4399 H       1  LIG1        0.0610
     30 H          -3.0305   -2.2057    2.1733 H       1  LIG1        0.0610
     31 H          -4.9071   -5.2365    1.9435 H       1  LIG1        0.0524
     32 H          -5.3618   -3.7334    1.1141 H       1  LIG1        0.0524
     33 H          -4.7785   -3.6954    2.8137 H       1  LIG1        0.0524
     34 H          -1.2386   -4.8052    0.7322 H       1  LIG1        0.0621
     35 H           1.0983   -4.8052    0.0989 H       1  LIG1        0.0620
     36 H           3.1433   -3.7429   -0.2027 H       1  LIG1        0.0278
     37 H           3.3476   -2.1064    0.4089 H       1  LIG1        0.0278
     38 H           2.9237   -2.3788   -1.3094 H       1  LIG1        0.0278
     39 H           2.2143   -0.2315   -0.6114 H       1  LIG1        0.0319
     40 H           1.9176   -0.0538    1.0971 H       1  LIG1        0.0319
     41 H          -0.2699    3.8807    0.4917 H       1  LIG1        0.0268
     42 H           0.5275    3.9130   -1.0705 H       1  LIG1        0.0268
     43 H           1.3203    4.6359    0.3229 H       1  LIG1        0.0268
     44 H           0.4981    2.4776    2.3637 H       1  LIG1        0.0268
     45 H           2.0726    3.2634    2.2735 H       1  LIG1        0.0268
     46 H           1.9806    1.5265    2.2788 H       1  LIG1        0.0268
     47 H           4.9371    4.0314   -1.0067 H       1  LIG1        0.0342
     48 H           4.8836    3.1542   -2.5522 H       1  LIG1        0.0342
     49 H           5.1569    2.2487   -1.0581 H       1  LIG1        0.0342
     50 H          -2.6307    2.7471   -2.9531 H       1  LIG1        0.0342
     51 H          -3.9322    1.8072   -2.1409 H       1  LIG1        0.0342
     52 H          -3.1530    1.1849   -3.6146 H       1  LIG1        0.0342
@<TRIPOS>BOND
     1     1     2    2
     2     2     3    1
     3     3     4   ar
     4     4     5    1
     5     5     6    1
     6     6     7    1
     7     4     8   ar
     8     8     9   ar
     9     9    10   ar
    10    10    11    1
    11    10    12   ar
    12     3    12   ar
    13    12    13    1
    14    13    14    1
    15    14    15    1
    16    14    16    1
    17    16    17    1
    18    16    18    1
    19    16    19    1
    20    19    20    1
    21    20    21    1
    22    20    22    2
    23    14    23    1
    24    23    24    1
    25     2    23    1
    26    23    25    1
    27    25    26    1
    28    26    27    1
    29    26    28    2
    30     5    29    1
    31     5    30    1
    32     7    31    1
    33     7    32    1
    34     7    33    1
    35     8    34    1
    36     9    35    1
    37    11    36    1
    38    11    37    1
    39    11    38    1
    40    13    39    1
    41    13    40    1
    42    17    41    1
    43    17    42    1
    44    17    43    1
    45    18    44    1
    46    18    45    1
    47    18    46    1
    48    21    47    1
    49    21    48    1
    50    21    49    1
    51    27    50    1
    52    27    51    1
    53    27    52    1
