@<TRIPOS>MOLECULE
NuBBE_2499
 50 52 0 0 0
SMALL
GASTEIGER

@<TRIPOS>ATOM
      1 C           1.0110   -4.2037    1.7111 C.3     1  LIG1       -0.0612
      2 C          -0.1412   -3.9394    0.7522 C.3     1  LIG1       -0.0300
      3 C           0.1950   -2.8647   -0.2707 C.ar    1  LIG1       -0.0413
      4 C           0.6470   -3.2507   -1.5552 C.ar    1  LIG1       -0.0470
      5 C           0.7807   -4.6925   -1.9704 C.3     1  LIG1       -0.0394
      6 C           0.9790   -2.2668   -2.4879 C.ar    1  LIG1       -0.0583
      7 C           0.8944   -0.9170   -2.1606 C.ar    1  LIG1       -0.0575
      8 C           0.4575   -0.4860   -0.8940 C.ar    1  LIG1       -0.0377
      9 C           0.0974   -1.4753    0.0537 C.ar    1  LIG1       -0.0402
     10 C          -0.3287   -1.0293    1.4304 C.3     1  LIG1       -0.0268
     11 C          -1.0829    0.2851    1.3649 C.3     1  LIG1       -0.0449
     12 C          -0.1755    1.4041    0.8362 C.3     1  LIG1       -0.0262
     13 H           0.6702    1.4430    1.5407 H       1  LIG1        0.0314
     14 C          -0.8912    2.8144    0.9306 C.3     1  LIG1       -0.0312
     15 C          -0.6866    3.3843    2.3561 C.3     1  LIG1       -0.0595
     16 C          -2.4199    2.7647    0.6909 C.3     1  LIG1       -0.0595
     17 C          -0.2708    3.8115   -0.0626 C.3     1  LIG1       -0.0476
     18 C          -0.3082    3.3328   -1.5080 C.3     1  LIG1       -0.0518
     19 C          -0.2883    1.8141   -1.6817 C.3     1  LIG1       -0.0433
     20 C           0.4572    1.0353   -0.5675 C.3     1  LIG1       -0.0035
     21 C           1.9582    1.4481   -0.5541 C.3     1  LIG1       -0.0553
     22 H           0.7399   -4.9968    2.4154 H       1  LIG1        0.0233
     23 H           1.2681   -3.3129    2.2920 H       1  LIG1        0.0233
     24 H           1.9098   -4.5223    1.1728 H       1  LIG1        0.0233
     25 H          -1.0486   -3.6771    1.3047 H       1  LIG1        0.0311
     26 H          -0.4106   -4.8781    0.2562 H       1  LIG1        0.0311
     27 H           1.4060   -5.2429   -1.2607 H       1  LIG1        0.0278
     28 H           1.2565   -4.7867   -2.9528 H       1  LIG1        0.0278
     29 H          -0.2065   -5.1605   -2.0368 H       1  LIG1        0.0278
     30 H           1.3274   -2.5422   -3.4810 H       1  LIG1        0.0620
     31 H           1.2065   -0.2022   -2.9178 H       1  LIG1        0.0621
     32 H           0.5587   -0.9375    2.0677 H       1  LIG1        0.0313
     33 H          -1.0002   -1.7487    1.9035 H       1  LIG1        0.0313
     34 H          -1.4387    0.5294    2.3723 H       1  LIG1        0.0271
     35 H          -1.9664    0.1634    0.7259 H       1  LIG1        0.0271
     36 H          -1.1246    2.7309    3.1179 H       1  LIG1        0.0235
     37 H          -1.1539    4.3706    2.4588 H       1  LIG1        0.0235
     38 H           0.3782    3.5003    2.5885 H       1  LIG1        0.0235
     39 H          -2.9391    2.2238    1.4897 H       1  LIG1        0.0235
     40 H          -2.6821    2.2884   -0.2567 H       1  LIG1        0.0235
     41 H          -2.8449    3.7756    0.6733 H       1  LIG1        0.0235
     42 H           0.7665    4.0201    0.2242 H       1  LIG1        0.0271
     43 H          -0.7744    4.7857   -0.0015 H       1  LIG1        0.0271
     44 H           0.5418    3.7752   -2.0425 H       1  LIG1        0.0266
     45 H          -1.2050    3.7260   -2.0032 H       1  LIG1        0.0266
     46 H           0.1356    1.6186   -2.6733 H       1  LIG1        0.0274
     47 H          -1.3193    1.4426   -1.7436 H       1  LIG1        0.0274
     48 H           2.4168    1.3540   -1.5453 H       1  LIG1        0.0238
     49 H           2.5329    0.8120    0.1310 H       1  LIG1        0.0238
     50 H           2.1154    2.4792   -0.2327 H       1  LIG1        0.0238
@<TRIPOS>BOND
     1     1     2    1
     2     2     3    1
     3     3     4   ar
     4     4     5    1
     5     4     6   ar
     6     6     7   ar
     7     7     8   ar
     8     8     9   ar
     9     3     9   ar
    10     9    10    1
    11    10    11    1
    12    11    12    1
    13    12    13    1
    14    12    14    1
    15    14    15    1
    16    14    16    1
    17    14    17    1
    18    17    18    1
    19    18    19    1
    20    19    20    1
    21     8    20    1
    22    12    20    1
    23    20    21    1
    24     1    22    1
    25     1    23    1
    26     1    24    1
    27     2    25    1
    28     2    26    1
    29     5    27    1
    30     5    28    1
    31     5    29    1
    32     6    30    1
    33     7    31    1
    34    10    32    1
    35    10    33    1
    36    11    34    1
    37    11    35    1
    38    15    36    1
    39    15    37    1
    40    15    38    1
    41    16    39    1
    42    16    40    1
    43    16    41    1
    44    17    42    1
    45    17    43    1
    46    18    44    1
    47    18    45    1
    48    19    46    1
    49    19    47    1
    50    21    48    1
    51    21    49    1
    52    21    50    1
