REMARK  Name = NuBBE_1396
REMARK  4 active torsions:
REMARK  status: ('A' for Active; 'I' for Inactive)
REMARK    1  A    between atoms: C_1  and  C_2
REMARK    2  A    between atoms: C_2  and  C_3
REMARK    3  A    between atoms: C_16  and  C_17
REMARK    4  A    between atoms: C_16  and  O_18
REMARK                            x       y       z     vdW  Elec       q    Type
REMARK                         _______ _______ _______ _____ _____    ______ ____
ROOT
ATOM      1  C   LIG A   1      -1.079  -1.933  -0.397  0.00  0.00    +0.011 C 
ATOM      2  C   LIG A   1       0.412  -1.951  -0.106  0.00  0.00    -0.028 C 
ATOM      3  C   LIG A   1       0.823  -3.323   0.380  0.00  0.00    +0.011 C 
ATOM      4  C   LIG A   1       1.081  -0.679   0.453  0.00  0.00    +0.005 C 
ATOM      5  C   LIG A   1       1.521  -1.199  -0.887  0.00  0.00    -0.001 C 
ATOM      6  C   LIG A   1       1.286  -0.672  -2.266  0.00  0.00    +0.009 C 
ATOM      7  C   LIG A   1       1.174   0.830  -2.543  0.00  0.00    +0.031 C 
ATOM      8  C   LIG A   1       0.287   1.762  -1.732  0.00  0.00    -0.073 C 
ATOM      9  C   LIG A   1       0.102   2.997  -2.182  0.00  0.00    +0.008 C 
ATOM     10  C   LIG A   1      -0.434   1.170  -0.534  0.00  0.00    +0.021 C 
ATOM     11  C   LIG A   1       0.468   0.689   0.626  0.00  0.00    +0.031 C 
ATOM     12  C   LIG A   1      -0.374   0.824   1.942  0.00  0.00    +0.067 C 
ATOM     13  C   LIG A   1      -0.538  -0.430   2.818  0.00  0.00    +0.041 C 
ATOM     14  C   LIG A   1      -1.734   1.388   1.514  0.00  0.00    +0.035 C 
ATOM     15  C   LIG A   1      -1.526   2.008   0.138  0.00  0.00    +0.011 C 
ENDROOT
BRANCH  12  16
ATOM     16  O   LIG A   1       0.262   1.810   2.775  0.00  0.00    -0.389 OA
ATOM     17  H   LIG A   1      -0.219   1.837   3.622  0.00  0.00    +0.210 HD
ENDBRANCH  12  16
TORSDOF 1
