@<TRIPOS>MOLECULE
NuBBE_1017
 41 42 0 0 0
SMALL
GASTEIGER

@<TRIPOS>ATOM
      1 C          -2.4738    0.7785   -3.0912 C.3     1  LIG1       -0.0215
      2 C          -1.1982    1.2052   -2.3566 C.3     1  LIG1        0.1235
      3 C          -0.1503    1.6963   -3.3638 C.3     1  LIG1       -0.0215
      4 C          -1.5276    2.3050   -1.3954 C.2     1  LIG1       -0.0408
      5 C          -1.0600    2.3310   -0.1446 C.2     1  LIG1       -0.0477
      6 C          -0.1786    1.2605    0.3347 C.ar    1  LIG1        0.0620
      7 C           0.5663    1.2784    1.5394 C.ar    1  LIG1        0.1721
      8 O           0.6801    2.3298    2.4253 O.3     1  LIG1       -0.4907
      9 C          -0.4630    3.0876    2.7956 C.3     1  LIG1        0.0790
     10 C           1.4252    0.1832    1.8431 C.ar    1  LIG1        0.1626
     11 O           2.1575    0.2658    3.0096 O.3     1  LIG1       -0.4914
     12 C           2.9554   -0.8636    3.3534 C.3     1  LIG1        0.0790
     13 C           1.5040   -0.9201    0.9853 C.ar    1  LIG1       -0.0096
     14 C           0.7243   -0.9866   -0.1684 C.ar    1  LIG1       -0.0009
     15 C           0.7827   -2.2373   -1.0226 C.3     1  LIG1       -0.0140
     16 C           0.3570   -3.5070   -0.2766 C.3     1  LIG1        0.0489
     17 C          -1.0622   -3.4763    0.1634 C.2     1  LIG1        0.3050
     18 O          -1.2457   -3.6444    1.4916 O.3     1  LIG1       -0.4806
     19 O          -2.0139   -3.3377   -0.6204 O.2     1  LIG1       -0.2510
     20 C          -0.0645    0.1259   -0.5092 C.ar    1  LIG1        0.1357
     21 O          -0.7067    0.0184   -1.7189 O.3     1  LIG1       -0.4812
     22 H          -2.9430    1.6135   -3.6227 H       1  LIG1        0.0271
     23 H          -3.2056    0.3628   -2.3875 H       1  LIG1        0.0271
     24 H          -2.2614   -0.0154   -3.8170 H       1  LIG1        0.0271
     25 H          -0.4726    2.6113   -3.8746 H       1  LIG1        0.0271
     26 H           0.0556    0.9334   -4.1232 H       1  LIG1        0.0271
     27 H           0.8066    1.9034   -2.8688 H       1  LIG1        0.0271
     28 H          -2.1615    3.1144   -1.7476 H       1  LIG1        0.0611
     29 H          -1.3571    3.1561    0.4745 H       1  LIG1        0.0624
     30 H          -0.2296    3.6181    3.7295 H       1  LIG1        0.0660
     31 H          -1.3477    2.4643    2.9723 H       1  LIG1        0.0660
     32 H          -0.6547    3.8882    2.0749 H       1  LIG1        0.0660
     33 H           2.3415   -1.7669    3.4501 H       1  LIG1        0.0660
     34 H           3.4210   -0.6776    4.3256 H       1  LIG1        0.0660
     35 H           3.7583   -1.0120    2.6224 H       1  LIG1        0.0660
     36 H           2.1834   -1.7445    1.1800 H       1  LIG1        0.0659
     37 H           1.8157   -2.3534   -1.3707 H       1  LIG1        0.0320
     38 H           0.1732   -2.1408   -1.9278 H       1  LIG1        0.0320
     39 H           1.0200   -3.6972    0.5799 H       1  LIG1        0.0381
     40 H           0.4776   -4.3735   -0.9413 H       1  LIG1        0.0381
     41 H          -0.4278   -3.7767    1.9985 H       1  LIG1        0.2951
@<TRIPOS>BOND
     1     1     2    1
     2     2     3    1
     3     2     4    1
     4     4     5    2
     5     5     6    1
     6     6     7   ar
     7     7     8    1
     8     8     9    1
     9     7    10   ar
    10    10    11    1
    11    11    12    1
    12    10    13   ar
    13    13    14   ar
    14    14    15    1
    15    15    16    1
    16    16    17    1
    17    17    18    1
    18    17    19    2
    19    14    20   ar
    20     6    20   ar
    21    20    21    1
    22     2    21    1
    23     1    22    1
    24     1    23    1
    25     1    24    1
    26     3    25    1
    27     3    26    1
    28     3    27    1
    29     4    28    1
    30     5    29    1
    31     9    30    1
    32     9    31    1
    33     9    32    1
    34    12    33    1
    35    12    34    1
    36    12    35    1
    37    13    36    1
    38    15    37    1
    39    15    38    1
    40    16    39    1
    41    16    40    1
    42    18    41    1
