@<TRIPOS>MOLECULE
NuBBE_429
 110 115 0 0 0
SMALL
GASTEIGER

@<TRIPOS>ATOM
      1 C          -3.9198   -0.5482   -4.8909 C.3     1  LIG1        0.0332
      2 C          -3.4662   -1.3276   -3.7055 C.2     1  LIG1        0.3043
      3 O          -2.2936   -0.8676   -3.1947 O.3     1  LIG1       -0.4569
      4 C          -1.4349   -1.7353   -2.3923 C.3     1  LIG1        0.1553
      5 H          -1.1007   -2.6055   -2.9396 H       1  LIG1        0.0781
      6 C          -1.7352   -1.8160   -1.0117 C.3     1  LIG1        0.1207
      7 C          -2.8336   -2.9673   -0.8495 C.3     1  LIG1        0.1080
      8 O          -3.3037   -3.0743    0.4969 O.3     1  LIG1       -0.4639
      9 C          -2.7450   -4.0038    1.3141 C.2     1  LIG1        0.3040
     10 C          -3.1443   -3.6773    2.7128 C.3     1  LIG1        0.0332
     11 O          -1.9775   -4.8713    0.9799 O.2     1  LIG1       -0.2512
     12 C          -1.9281    0.2494   -0.8615 C.3     1  LIG1        0.1549
     13 C          -0.1696    1.1191   -0.8581 C.3     1  LIG1        0.1367
     14 C          -0.1245    2.0738   -2.1185 C.3     1  LIG1       -0.0295
     15 O           0.0033    2.2897    0.0592 O.3     1  LIG1       -0.3820
     16 C           1.2653    0.1390   -0.3401 C.3     1  LIG1        0.1742
     17 H           1.9336    0.0184   -1.1702 H       1  LIG1        0.0803
     18 O           2.0543    0.9791    0.5452 O.3     1  LIG1       -0.4542
     19 C           2.8480    1.9225   -0.0223 C.2     1  LIG1        0.3110
     20 C           3.2220    3.0146    0.9720 C.3     1  LIG1        0.0616
     21 C           3.3148    2.5146    2.4462 C.3     1  LIG1        0.0119
     22 C           2.7718    3.4861    3.4894 C.ar    1  LIG1        0.0588
     23 N           3.4671    4.6355    3.6889 N.ar    1  LIG1       -0.2588
     24 C           2.9835    5.5107    4.6028 C.ar    1  LIG1        0.0279
     25 C           1.8203    5.3187    5.3333 C.ar    1  LIG1       -0.0428
     26 C           1.1064    4.1474    5.1288 C.ar    1  LIG1       -0.0446
     27 C           1.5994    3.2278    4.2051 C.ar    1  LIG1        0.0805
     28 C           4.7603    2.1307    2.7866 C.3     1  LIG1       -0.0562
     29 C           2.2453    4.1697    0.7184 C.3     1  LIG1       -0.0517
     30 O           3.1102    1.9862   -1.2196 O.2     1  LIG1       -0.2505
     31 C           1.1371   -1.5282    0.3199 C.3     1  LIG1        0.1799
     32 H           1.0140   -1.4488    1.4028 H       1  LIG1        0.0811
     33 O           2.3640   -2.2972    0.1821 O.3     1  LIG1       -0.4539
     34 C           3.4631   -1.8595    0.8654 C.2     1  LIG1        0.3044
     35 C           4.1433   -2.9638    1.5889 C.3     1  LIG1        0.0332
     36 O           3.8451   -0.7016    0.9280 O.2     1  LIG1       -0.2512
     37 C          -0.2327   -2.6443   -0.1329 C.3     1  LIG1        0.1584
     38 H          -0.5558   -3.0387    0.8305 H       1  LIG1        0.0782
     39 O           0.1379   -3.8116   -0.9415 O.3     1  LIG1       -0.4567
     40 C           0.6649   -4.8735   -0.2542 C.2     1  LIG1        0.3043
     41 C           0.3958   -6.1936   -0.9313 C.3     1  LIG1        0.0332
     42 O           1.1811   -4.7909    0.8543 O.2     1  LIG1       -0.2512
     43 O          -1.9704    1.3689    0.1746 O.3     1  LIG1       -0.3557
     44 C          -1.3437    0.7816    1.3252 C.3     1  LIG1        0.1114
     45 C          -2.3165    1.5491    2.2943 C.3     1  LIG1       -0.0321
     46 C          -0.1343    0.7905    2.3032 C.3     1  LIG1        0.1219
     47 O           0.2536    2.0574    2.8248 O.3     1  LIG1       -0.4582
     48 C           0.8834    1.9759    4.0185 C.2     1  LIG1        0.3410
     49 O           0.9415    1.0262    4.7796 O.2     1  LIG1       -0.2449
     50 C          -2.7801   -0.4591    0.1390 C.3     1  LIG1        0.1446
     51 H          -3.4787   -0.9565   -0.5321 H       1  LIG1        0.0769
     52 O          -3.6424   -0.1252    1.2279 O.3     1  LIG1       -0.4580
     53 C          -4.9058    0.3164    0.9322 C.2     1  LIG1        0.3043
     54 C          -5.6682    0.7981    2.1509 C.3     1  LIG1        0.0332
     55 O          -5.3774    0.3373   -0.1995 O.2     1  LIG1       -0.2512
     56 C          -1.2199   -0.5390    0.3939 C.3     1  LIG1        0.0715
     57 H          -1.1042   -1.3178    1.1519 H       1  LIG1        0.0404
     58 C          -0.4072   -0.9818   -1.5581 C.3     1  LIG1        0.1499
     59 H           0.4617   -1.6189   -1.5504 H       1  LIG1        0.0777
     60 O           0.1465   -0.1924   -2.7375 O.3     1  LIG1       -0.4536
     61 C           1.3455   -0.4801   -3.3498 C.2     1  LIG1        0.3410
     62 C           1.4036   -0.0143   -4.7312 C.ar    1  LIG1        0.0770
     63 C           0.2556   -0.0680   -5.5174 C.ar    1  LIG1       -0.0449
     64 C           0.3427    0.2169   -6.8710 C.ar    1  LIG1       -0.0428
     65 C           1.5835    0.5417   -7.3954 C.ar    1  LIG1        0.0276
     66 N           2.7216    0.5832   -6.6660 N.ar    1  LIG1       -0.2624
     67 C           2.6132    0.2953   -5.3448 C.ar    1  LIG1        0.0415
     68 O           2.2920   -1.1200   -2.8687 O.2     1  LIG1       -0.2449
     69 O          -4.0814   -2.3295   -3.3290 O.2     1  LIG1       -0.2512
     70 H          -3.1962   -0.7051   -5.6945 H       1  LIG1        0.0342
     71 H          -4.0480    0.5100   -4.6590 H       1  LIG1        0.0342
     72 H          -4.8839   -0.9504   -5.2265 H       1  LIG1        0.0342
     73 H          -3.7404   -2.7839   -1.4034 H       1  LIG1        0.0706
     74 H          -2.4463   -3.9213   -1.2309 H       1  LIG1        0.0706
     75 H          -3.0634   -2.5932    2.8636 H       1  LIG1        0.0342
     76 H          -2.4507   -4.1627    3.3957 H       1  LIG1        0.0342
     77 H          -4.1651   -4.0135    2.8774 H       1  LIG1        0.0342
     78 H          -0.7511    1.7312   -2.9471 H       1  LIG1        0.0259
     79 H           0.9010    2.2367   -2.4584 H       1  LIG1        0.0259
     80 H          -0.5329    3.0706   -1.8985 H       1  LIG1        0.0259
     81 H          -0.8859    2.6958    0.1170 H       1  LIG1        0.2104
     82 H           4.2184    3.3535    0.6598 H       1  LIG1        0.0417
     83 H           2.7807    1.5692    2.5619 H       1  LIG1        0.0369
     84 H           3.5840    6.4054    4.7390 H       1  LIG1        0.0829
     85 H           1.4848    6.0596    6.0497 H       1  LIG1        0.0633
     86 H           0.1897    3.9514    5.6781 H       1  LIG1        0.0627
     87 H           5.4328    2.9909    2.7147 H       1  LIG1        0.0236
     88 H           5.1245    1.3576    2.1024 H       1  LIG1        0.0236
     89 H           4.8261    1.7330    3.8056 H       1  LIG1        0.0236
     90 H           1.2768    4.0034    1.1972 H       1  LIG1        0.0238
     91 H           2.0541    4.3040   -0.3534 H       1  LIG1        0.0238
     92 H           2.6482    5.1129    1.0950 H       1  LIG1        0.0238
     93 H           3.4541   -3.7866    1.7854 H       1  LIG1        0.0342
     94 H           4.4664   -2.5755    2.5618 H       1  LIG1        0.0342
     95 H           5.0049   -3.3079    1.0168 H       1  LIG1        0.0342
     96 H          -0.5046   -6.6403   -0.4956 H       1  LIG1        0.0342
     97 H           1.2391   -6.8695   -0.7567 H       1  LIG1        0.0342
     98 H           0.2591   -6.0946   -2.0108 H       1  LIG1        0.0342
     99 H          -1.8726    2.5049    2.6109 H       1  LIG1        0.0259
    100 H          -2.5767    0.9861    3.1924 H       1  LIG1        0.0259
    101 H          -3.2101    1.9700    1.8180 H       1  LIG1        0.0259
    102 H           0.7641    0.3151    1.9776 H       1  LIG1        0.0727
    103 H          -0.4435    0.1264    3.1265 H       1  LIG1        0.0727
    104 H          -5.8928   -0.0205    2.8380 H       1  LIG1        0.0342
    105 H          -6.6201    1.2271    1.8147 H       1  LIG1        0.0342
    106 H          -5.1476    1.5997    2.6830 H       1  LIG1        0.0342
    107 H          -0.6887   -0.3699   -5.0861 H       1  LIG1        0.0627
    108 H          -0.5379    0.1721   -7.5001 H       1  LIG1        0.0633
    109 H           1.6964    0.7788   -8.4489 H       1  LIG1        0.0829
    110 H           3.5527    0.3061   -4.7943 H       1  LIG1        0.0838
@<TRIPOS>BOND
     1     1     2    1
     2     2     3    1
     3     4     6    1
     4     7     8    1
     5     8     9    1
     6     9    10    1
     7     9    11    2
     8     6    12    1
     9    12    13    1
    10    13    16    1
    11    16    18    1
    12    18    19    1
    13    19    20    1
    14    20    21    1
    15    21    22    1
    16    22    23   ar
    17    23    24   ar
    18    24    25   ar
    19    25    26   ar
    20    26    27   ar
    21    22    27   ar
    22    16    31    1
    23    33    34    1
    24    34    35    1
    25    34    36    2
    26    31    37    1
    27     6    37    1
    28    39    40    1
    29    40    41    1
    30    40    42    2
    31    12    43    1
    32    43    44    1
    33    44    46    1
    34    46    47    1
    35    47    48    1
    36    27    48    1
    37    12    50    1
    38    52    53    1
    39    53    54    1
    40    53    55    2
    41    50    56    1
    42    44    56    1
    43    56    58    1
    44     4    58    1
    45    60    61    1
    46    61    62    1
    47    62    63   ar
    48    63    64   ar
    49    64    65   ar
    50    65    66   ar
    51    66    67   ar
    52    62    67   ar
    53    61    68    2
    54     2    69    2
    55     6     7    1
    56    16    17    1
    57    19    30    2
    58    20    29    1
    59    21    28    1
    60    31    32    1
    61    31    33    1
    62    37    38    1
    63    37    39    1
    64    44    45    1
    65    48    49    2
    66    56    57    1
    67    58    59    1
    68    58    60    1
    69     4     5    1
    70     4     3    1
    71    13    15    1
    72    13    14    1
    73    50    52    1
    74    50    51    1
    75     1    70    1
    76     1    71    1
    77     1    72    1
    78     7    73    1
    79     7    74    1
    80    10    75    1
    81    10    76    1
    82    10    77    1
    83    14    78    1
    84    14    79    1
    85    14    80    1
    86    15    81    1
    87    20    82    1
    88    21    83    1
    89    24    84    1
    90    25    85    1
    91    26    86    1
    92    28    87    1
    93    28    88    1
    94    28    89    1
    95    29    90    1
    96    29    91    1
    97    29    92    1
    98    35    93    1
    99    35    94    1
   100    35    95    1
   101    41    96    1
   102    41    97    1
   103    41    98    1
   104    45    99    1
   105    45   100    1
   106    45   101    1
   107    46   102    1
   108    46   103    1
   109    54   104    1
   110    54   105    1
   111    54   106    1
   112    63   107    1
   113    64   108    1
   114    65   109    1
   115    67   110    1
