REMARK  Name = NuBBE_1332
REMARK  11 active torsions:
REMARK  status: ('A' for Active; 'I' for Inactive)
REMARK    1  A    between atoms: C_3  and  O_30
REMARK    2  A    between atoms: C_4  and  C_24
REMARK    3  A    between atoms: C_8  and  O_9
REMARK    4  A    between atoms: C_13  and  C_14
REMARK    5  A    between atoms: C_13  and  C_17
REMARK    6  A    between atoms: C_18  and  C_19
REMARK    7  A    between atoms: C_19  and  C_20
REMARK    8  A    between atoms: C_21  and  C_22
REMARK    9  A    between atoms: C_21  and  C_23
REMARK   10  A    between atoms: O_30  and  C_31
REMARK   11  A    between atoms: C_31  and  C_32
REMARK                            x       y       z     vdW  Elec       q    Type
REMARK                         _______ _______ _______ _____ _____    ______ ____
ROOT
ATOM      1  O   LIG A   1      -4.242   1.433  -0.118  0.00  0.00    -0.288 OA
ATOM      2  C   LIG A   1      -3.015   1.457  -0.084  0.00  0.00    +0.214 C 
ATOM      3  C   LIG A   1      -2.184   2.648   0.330  0.00  0.00    +0.292 C 
ATOM      4  C   LIG A   1      -1.144   2.795  -0.789  0.00  0.00    +0.252 C 
ATOM      5  O   LIG A   1      -0.308   1.626  -0.927  0.00  0.00    -0.479 OA
ATOM      6  C   LIG A   1      -0.914   0.405  -0.808  0.00  0.00    +0.143 A 
ATOM      7  C   LIG A   1      -2.252   0.248  -0.433  0.00  0.00    +0.105 A 
ATOM      8  C   LIG A   1      -2.824  -1.019  -0.319  0.00  0.00    +0.142 A 
ATOM      9  C   LIG A   1      -2.037  -2.162  -0.515  0.00  0.00    +0.059 A 
ATOM     10  C   LIG A   1      -0.685  -2.013  -0.865  0.00  0.00    +0.139 A 
ATOM     11  O   LIG A   1       0.152  -3.080  -1.055  0.00  0.00    -0.481 OA
ATOM     12  C   LIG A   1      -0.312  -4.419  -0.792  0.00  0.00    +0.123 C 
ATOM     13  C   LIG A   1       0.503  -4.957   0.391  0.00  0.00    +0.060 C 
ATOM     14  C   LIG A   1      -1.781  -4.549  -0.483  0.00  0.00    +0.020 C 
ATOM     15  C   LIG A   1      -2.594  -3.499  -0.355  0.00  0.00    +0.015 C 
ATOM     16  C   LIG A   1       0.011  -5.229  -2.052  0.00  0.00    +0.060 C 
ATOM     17  C   LIG A   1      -0.119  -0.732  -1.048  0.00  0.00    +0.041 A 
ENDROOT
BRANCH   4  18
ATOM     18  C   LIG A   1      -0.238   3.995  -0.554  0.00  0.00    -0.003 A 
ATOM     19  C   LIG A   1       0.967   3.864   0.158  0.00  0.00    +0.007 A 
ATOM     20  C   LIG A   1       1.802   4.962   0.361  0.00  0.00    +0.000 A 
ATOM     21  C   LIG A   1       1.439   6.211  -0.134  0.00  0.00    +0.000 A 
ATOM     22  C   LIG A   1       0.236   6.364  -0.822  0.00  0.00    +0.000 A 
ATOM     23  C   LIG A   1      -0.601   5.265  -1.029  0.00  0.00    +0.007 A 
ENDBRANCH   4  18
BRANCH   8  24
ATOM     24  O   LIG A   1      -4.149  -1.180   0.017  0.00  0.00    -0.505 OA
ATOM     25  H   LIG A   1      -4.585  -0.299   0.022  0.00  0.00    +0.292 HD
ENDBRANCH   8  24
BRANCH  17  26
ATOM     26  C   LIG A   1       1.336  -0.583  -1.462  0.00  0.00    +0.069 C 
BRANCH  26  27
ATOM     27  C   LIG A   1       2.266  -0.500  -0.280  0.00  0.00    -0.023 C 
ATOM     28  C   LIG A   1       3.323  -1.285   0.010  0.00  0.00    -0.079 C 
ATOM     29  C   LIG A   1       3.822  -2.424  -0.835  0.00  0.00    +0.038 C 
ATOM     30  C   LIG A   1       4.116  -1.060   1.271  0.00  0.00    +0.038 C 
ENDBRANCH  26  27
ENDBRANCH  17  26
BRANCH   3  31
ATOM     31  O   LIG A   1      -1.532   2.372   1.581  0.00  0.00    -0.449 OA
BRANCH  31  32
ATOM     32  C   LIG A   1      -2.296   2.513   2.695  0.00  0.00    +0.305 C 
ATOM     33  C   LIG A   1      -1.478   2.207   3.912  0.00  0.00    +0.136 C 
ATOM     34  O   LIG A   1      -3.471   2.841   2.710  0.00  0.00    -0.251 OA
ENDBRANCH  31  32
ENDBRANCH   3  31
TORSDOF 6
