@<TRIPOS>MOLECULE
NuBBE_2229
 55 59 0 0 0
SMALL
GASTEIGER

@<TRIPOS>ATOM
      1 C          -1.7236    0.6991   -0.7302 C.2     1  LIG1        0.1931
      2 O          -2.1222   -0.1502   -1.5279 O.2     1  LIG1       -0.2870
      3 C          -2.6148    1.8200   -0.3023 C.2     1  LIG1       -0.0135
      4 C          -3.8808    1.9129   -0.7457 C.2     1  LIG1       -0.0510
      5 C          -4.8073    3.0015   -0.3848 C.ar    1  LIG1       -0.0249
      6 C          -5.8473    3.3364   -1.2644 C.ar    1  LIG1       -0.0546
      7 C          -6.7533    4.3553   -0.9486 C.ar    1  LIG1       -0.0612
      8 C          -6.6370    5.0459    0.2554 C.ar    1  LIG1       -0.0617
      9 C          -5.6205    4.7139    1.1462 C.ar    1  LIG1       -0.0612
     10 C          -4.7175    3.6944    0.8312 C.ar    1  LIG1       -0.0546
     11 C          -0.3542    0.6216   -0.1315 C.ar    1  LIG1        0.1050
     12 C           0.2067   -0.6280    0.1815 C.ar    1  LIG1        0.1425
     13 C           1.4341   -0.7131    0.8443 C.ar    1  LIG1        0.0404
     14 C           1.9473   -2.0771    1.2002 C.3     1  LIG1        0.0011
     15 C           2.0105   -2.7610   -0.1618 C.3     1  LIG1        0.0057
     16 C           0.5245   -2.8511   -0.6951 C.3     1  LIG1        0.1085
     17 O          -0.3804   -1.8052   -0.2084 O.3     1  LIG1       -0.4847
     18 C           0.4373   -2.8755   -2.2274 C.3     1  LIG1       -0.0249
     19 C          -0.1027   -4.1607   -0.1717 C.3     1  LIG1       -0.0249
     20 C           3.0181   -2.0067   -1.0839 C.3     1  LIG1       -0.0424
     21 C           4.3188   -1.5646   -0.3739 C.3     1  LIG1       -0.0128
     22 C           4.1616   -1.0343    1.0795 C.3     1  LIG1        0.1085
     23 C           3.2969   -1.9912    1.8902 C.3     1  LIG1       -0.0057
     24 O           3.6023    0.3032    1.1354 O.3     1  LIG1       -0.4854
     25 C           2.2565    0.4020    0.9035 C.ar    1  LIG1        0.1317
     26 C           1.7542    1.6514    0.5685 C.ar    1  LIG1        0.0228
     27 C           0.4458    1.7632    0.0789 C.ar    1  LIG1        0.1347
     28 O           0.0066    3.0095   -0.2826 O.3     1  LIG1       -0.5058
     29 C           5.5489   -0.9121    1.7230 C.3     1  LIG1       -0.0249
     30 H          -2.2028    2.5605    0.3683 H       1  LIG1        0.0656
     31 H          -4.2697    1.1591   -1.4282 H       1  LIG1        0.0625
     32 H          -5.9588    2.8126   -2.2117 H       1  LIG1        0.0623
     33 H          -7.5498    4.6089   -1.6437 H       1  LIG1        0.0618
     34 H          -7.3401    5.8372    0.5020 H       1  LIG1        0.0618
     35 H          -5.5296    5.2433    2.0910 H       1  LIG1        0.0618
     36 H          -3.9491    3.4461    1.5578 H       1  LIG1        0.0623
     37 H           1.2465   -2.5834    1.8745 H       1  LIG1        0.0356
     38 H           2.4108   -3.7773   -0.0423 H       1  LIG1        0.0345
     39 H           0.7314   -1.9152   -2.6626 H       1  LIG1        0.0268
     40 H          -0.5940   -3.0478   -2.5571 H       1  LIG1        0.0268
     41 H           1.0670   -3.6644   -2.6527 H       1  LIG1        0.0268
     42 H          -0.1309   -4.1774    0.9231 H       1  LIG1        0.0268
     43 H           0.4504   -5.0405   -0.5174 H       1  LIG1        0.0268
     44 H          -1.1433   -4.2562   -0.5036 H       1  LIG1        0.0268
     45 H           2.5548   -1.1170   -1.5267 H       1  LIG1        0.0271
     46 H           3.2828   -2.6479   -1.9338 H       1  LIG1        0.0271
     47 H           4.8042   -0.8005   -0.9940 H       1  LIG1        0.0304
     48 H           4.9877   -2.4353   -0.3587 H       1  LIG1        0.0304
     49 H           3.1601   -1.6050    2.9091 H       1  LIG1        0.0310
     50 H           3.7538   -2.9849    1.9711 H       1  LIG1        0.0310
     51 H           2.4102    2.5140    0.6355 H       1  LIG1        0.0691
     52 H           0.6869    3.6710   -0.0679 H       1  LIG1        0.2922
     53 H           6.0677   -1.8755    1.7618 H       1  LIG1        0.0268
     54 H           5.4726   -0.5198    2.7439 H       1  LIG1        0.0268
     55 H           6.1728   -0.2042    1.1652 H       1  LIG1        0.0268
@<TRIPOS>BOND
     1     1     2    2
     2     1     3    1
     3     3     4    2
     4     4     5    1
     5     5     6   ar
     6     6     7   ar
     7     7     8   ar
     8     8     9   ar
     9     9    10   ar
    10     5    10   ar
    11     1    11    1
    12    11    12   ar
    13    12    13   ar
    14    13    14    1
    15    14    15    1
    16    15    16    1
    17    16    17    1
    18    12    17    1
    19    16    18    1
    20    16    19    1
    21    15    20    1
    22    20    21    1
    23    21    22    1
    24    22    23    1
    25    14    23    1
    26    22    24    1
    27    24    25    1
    28    13    25   ar
    29    25    26   ar
    30    26    27   ar
    31    11    27   ar
    32    27    28    1
    33    22    29    1
    34     3    30    1
    35     4    31    1
    36     6    32    1
    37     7    33    1
    38     8    34    1
    39     9    35    1
    40    10    36    1
    41    14    37    1
    42    15    38    1
    43    18    39    1
    44    18    40    1
    45    18    41    1
    46    19    42    1
    47    19    43    1
    48    19    44    1
    49    20    45    1
    50    20    46    1
    51    21    47    1
    52    21    48    1
    53    23    49    1
    54    23    50    1
    55    26    51    1
    56    28    52    1
    57    29    53    1
    58    29    54    1
    59    29    55    1
