REMARK  Name = NuBBE_2040
REMARK  10 active torsions:
REMARK  status: ('A' for Active; 'I' for Inactive)
REMARK    1  A    between atoms: C_1  and  C_2
REMARK    2  A    between atoms: C_1  and  C_4
REMARK    3  A    between atoms: C_9  and  O_11
REMARK    4  A    between atoms: O_11  and  C_12
REMARK    5  A    between atoms: C_14  and  C_19
REMARK    6  A    between atoms: C_16  and  C_18
REMARK    7  A    between atoms: C_21  and  O_22
REMARK    8  A    between atoms: O_22  and  C_23
REMARK    9  A    between atoms: C_24  and  O_27
REMARK   10  A    between atoms: O_27  and  C_28
REMARK                            x       y       z     vdW  Elec       q    Type
REMARK                         _______ _______ _______ _____ _____    ______ ____
ROOT
ATOM      1  C   LIG A   1      -1.364   0.939   1.487  0.00  0.00    +0.059 C 
ATOM      2  C   LIG A   1       0.066   1.301   1.811  0.00  0.00    +0.113 C 
ATOM      3  C   LIG A   1       0.505   2.534   2.061  0.00  0.00    +0.096 C 
ATOM      4  C   LIG A   1      -0.428   3.679   2.000  0.00  0.00    +0.223 C 
ATOM      5  O   LIG A   1      -0.060   4.756   2.432  0.00  0.00    -0.284 OA
ATOM      6  C   LIG A   1      -1.763   3.436   1.325  0.00  0.00    +0.164 C 
ATOM      7  C   LIG A   1      -2.142   2.171   1.069  0.00  0.00    +0.038 C 
ATOM      8  O   LIG A   1       0.962   0.264   1.617  0.00  0.00    -0.487 OA
ATOM      9  C   LIG A   1       0.224  -0.760   0.922  0.00  0.00    +0.207 C 
ATOM     10  C   LIG A   1      -1.085  -0.115   0.395  0.00  0.00    +0.049 C 
ATOM     11  C   LIG A   1      -0.968   0.474  -1.019  0.00  0.00    +0.013 C 
ENDROOT
BRANCH   9  12
ATOM     12  C   LIG A   1       1.081  -1.450  -0.115  0.00  0.00    -0.003 A 
ATOM     13  C   LIG A   1       2.151  -0.805  -0.759  0.00  0.00    +0.056 A 
ATOM     14  C   LIG A   1       2.898  -1.454  -1.755  0.00  0.00    +0.162 A 
ATOM     15  C   LIG A   1       2.608  -2.790  -2.073  0.00  0.00    +0.162 A 
ATOM     16  C   LIG A   1       1.543  -3.433  -1.434  0.00  0.00    +0.050 A 
ATOM     17  C   LIG A   1       0.779  -2.767  -0.476  0.00  0.00    +0.011 A 
BRANCH  14  18
ATOM     18  O   LIG A   1       3.895  -0.686  -2.307  0.00  0.00    -0.491 OA
ATOM     19  C   LIG A   1       4.203  -0.958  -3.673  0.00  0.00    +0.277 C 
ENDBRANCH  14  18
BRANCH  15  20
ATOM     20  O   LIG A   1       3.466  -3.473  -2.893  0.00  0.00    -0.491 OA
ATOM     21  C   LIG A   1       2.879  -4.411  -3.784  0.00  0.00    +0.277 C 
ENDBRANCH  15  20
ENDBRANCH   9  12
BRANCH   6  22
ATOM     22  O   LIG A   1      -2.597   4.470   0.922  0.00  0.00    -0.492 OA
ATOM     23  C   LIG A   1      -2.544   5.652   1.717  0.00  0.00    +0.277 C 
ENDBRANCH   6  22
BRANCH   1  24
ATOM     24  C   LIG A   1      -2.042   0.288   2.742  0.00  0.00    +0.045 C 
BRANCH  24  25
ATOM     25  C   LIG A   1      -3.469  -0.168   2.537  0.00  0.00    -0.033 C 
ATOM     26  C   LIG A   1      -3.889  -1.430   2.697  0.00  0.00    +0.004 C 
ENDBRANCH  24  25
ENDBRANCH   1  24
TORSDOF 6
