@<TRIPOS>MOLECULE
NuBBE_412
 63 67 0 0 0
SMALL
GASTEIGER

@<TRIPOS>ATOM
      1 C           1.9902    2.5853    1.7893 C.3     1  LIG1        0.0790
      2 O           1.5632    3.0948    0.5297 O.3     1  LIG1       -0.4914
      3 C           0.8003    2.2555   -0.2357 C.ar    1  LIG1        0.1630
      4 C           0.5202    0.9125    0.0785 C.ar    1  LIG1       -0.0131
      5 C          -0.2885    0.0995   -0.7284 C.ar    1  LIG1       -0.0430
      6 C          -0.5472   -1.3365   -0.3204 C.3     1  LIG1       -0.0255
      7 C          -1.2257   -1.4422    1.0524 C.3     1  LIG1       -0.0254
      8 C          -1.4905   -2.8888    1.4610 C.3     1  LIG1        0.0511
      9 O          -0.2528   -3.5798    1.6259 O.3     1  LIG1       -0.3487
     10 C          -0.4411   -4.9656    1.9354 C.3     1  LIG1        0.1879
     11 H          -1.1403   -5.3849    1.2005 H       1  LIG1        0.0937
     12 O          -1.0451   -5.1739    3.2141 O.3     1  LIG1       -0.3405
     13 C          -0.2149   -5.1257    4.3879 C.3     1  LIG1        0.1130
     14 H          -0.7294   -5.8237    5.0620 H       1  LIG1        0.0647
     15 C           1.2375   -5.6276    4.2483 C.3     1  LIG1        0.1119
     16 H           1.8653   -5.2204    5.0496 H       1  LIG1        0.0647
     17 C           1.8636   -5.3196    2.8884 C.3     1  LIG1        0.1141
     18 H           2.7786   -5.9153    2.7800 H       1  LIG1        0.0648
     19 O           2.2484   -3.9467    2.8412 O.3     1  LIG1       -0.3864
     20 O           1.2339   -7.0621    4.4071 O.3     1  LIG1       -0.3865
     21 C          -0.3023   -3.7566    5.0713 C.3     1  LIG1        0.0730
     22 O          -1.6555   -3.4970    5.4578 O.3     1  LIG1       -0.3924
     23 C           0.8890   -5.7239    1.7737 C.3     1  LIG1        0.1341
     24 H           1.3267   -5.4726    0.8007 H       1  LIG1        0.0671
     25 O           0.6665   -7.1444    1.7737 O.3     1  LIG1       -0.3841
     26 C          -0.8244    0.6112   -1.9194 C.ar    1  LIG1       -0.0475
     27 C          -0.5443    1.9510   -2.2753 C.ar    1  LIG1        0.0247
     28 C           0.2453    2.7231   -1.4353 C.ar    1  LIG1        0.1771
     29 O           0.3851    3.9697   -1.9626 O.2     1  LIG1       -0.4511
     30 C          -0.3012    4.0196   -3.1381 C.ar    1  LIG1        0.1365
     31 C          -0.2812    5.2729   -3.8723 C.ar    1  LIG1        0.0210
     32 C          -0.9673    5.4126   -5.0888 C.ar    1  LIG1       -0.0055
     33 C          -0.9254    6.6208   -5.7458 C.ar    1  LIG1        0.1669
     34 C          -0.2281    7.6963   -5.2450 C.ar    1  LIG1        0.1663
     35 C           0.4615    7.6099   -4.0617 C.ar    1  LIG1       -0.0155
     36 C           0.4340    6.3911   -3.3715 C.ar    1  LIG1       -0.0474
     37 O          -0.3151    8.7948   -6.0436 O.3     1  LIG1       -0.4526
     38 C          -1.1568    8.2940   -7.1046 C.3     1  LIG1        0.2332
     39 O          -1.5392    6.9166   -6.9286 O.3     1  LIG1       -0.4526
     40 C          -0.8986    2.7798   -3.3716 C.ar    1  LIG1       -0.0080
     41 H           2.5511    3.3684    2.3061 H       1  LIG1        0.0660
     42 H           2.6625    1.7292    1.6604 H       1  LIG1        0.0660
     43 H           1.1334    2.3179    2.4194 H       1  LIG1        0.0660
     44 H           0.9370    0.4696    0.9771 H       1  LIG1        0.0658
     45 H           0.4142   -1.8645   -0.3187 H       1  LIG1        0.0314
     46 H          -1.1749   -1.8286   -1.0723 H       1  LIG1        0.0314
     47 H          -2.1741   -0.8911    1.0356 H       1  LIG1        0.0290
     48 H          -0.5963   -0.9756    1.8193 H       1  LIG1        0.0290
     49 H          -2.1085   -3.3840    0.7035 H       1  LIG1        0.0561
     50 H          -2.0255   -2.8916    2.4155 H       1  LIG1        0.0561
     51 H           2.4158   -3.7162    1.9086 H       1  LIG1        0.2100
     52 H           1.1959   -7.2383    5.3665 H       1  LIG1        0.2100
     53 H           0.2937   -3.7520    5.9909 H       1  LIG1        0.0584
     54 H           0.0253   -2.9386    4.4275 H       1  LIG1        0.0584
     55 H          -2.2074   -3.7423    4.6914 H       1  LIG1        0.2095
     56 H           0.6443   -7.4372    2.7124 H       1  LIG1        0.2101
     57 H          -1.4409   -0.0033   -2.5692 H       1  LIG1        0.0627
     58 H          -1.5342    4.5884   -5.5268 H       1  LIG1        0.0662
     59 H           1.0055    8.4552   -3.6708 H       1  LIG1        0.0655
     60 H           0.9749    6.3148   -2.4336 H       1  LIG1        0.0626
     61 H          -0.6188    8.3904   -8.0535 H       1  LIG1        0.1166
     62 H          -2.0638    8.9064   -7.1498 H       1  LIG1        0.1166
     63 H          -1.5036    2.5193   -4.2191 H       1  LIG1        0.0661
@<TRIPOS>BOND
     1     1     2    1
     2     2     3    1
     3     3     4   ar
     4     4     5   ar
     5     5     6    1
     6     6     7    1
     7     7     8    1
     8     8     9    1
     9     9    10    1
    10    10    11    1
    11    10    12    1
    12    12    13    1
    13    13    15    1
    14    15    16    1
    15    15    17    1
    16    15    20    1
    17    21    22    1
    18    10    23    1
    19    17    23    1
    20     5    26   ar
    21    26    27   ar
    22    27    28   ar
    23     3    28   ar
    24    28    29   ar
    25    29    30   ar
    26    30    31    1
    27    31    32   ar
    28    32    33   ar
    29    33    34   ar
    30    34    35   ar
    31    35    36   ar
    32    31    36   ar
    33    34    37    1
    34    37    38    1
    35    38    39    1
    36    33    39    1
    37    30    40   ar
    38    27    40   ar
    39    13    21    1
    40    13    14    1
    41    17    19    1
    42    17    18    1
    43    23    25    1
    44    23    24    1
    45     1    41    1
    46     1    42    1
    47     1    43    1
    48     4    44    1
    49     6    45    1
    50     6    46    1
    51     7    47    1
    52     7    48    1
    53     8    49    1
    54     8    50    1
    55    19    51    1
    56    20    52    1
    57    21    53    1
    58    21    54    1
    59    22    55    1
    60    25    56    1
    61    26    57    1
    62    32    58    1
    63    35    59    1
    64    36    60    1
    65    38    61    1
    66    38    62    1
    67    40    63    1
