@<TRIPOS>MOLECULE
NuBBE_1318
 34 37 0 0 0
SMALL
GASTEIGER

@<TRIPOS>ATOM
      1 O          -4.2023    1.3430    0.0984 O.2     1  LIG1       -0.2870
      2 C          -2.9850    1.2240    0.0937 C.ar    1  LIG1        0.1931
      3 C          -2.3561   -0.1060    0.0874 C.ar    1  LIG1        0.0287
      4 C          -1.0189   -0.2082    0.0968 C.ar    1  LIG1        0.1393
      5 C          -0.3266   -1.5185    0.0803 C.ar    1  LIG1        0.0176
      6 C          -0.8715   -2.6613    0.6839 C.ar    1  LIG1       -0.0476
      7 C          -0.1854   -3.8816    0.6613 C.ar    1  LIG1       -0.0193
      8 C           1.0626   -3.9885    0.0475 C.ar    1  LIG1        0.1201
      9 O           1.6271   -5.2322    0.1036 O.3     1  LIG1       -0.4951
     10 C           2.9094   -5.3818   -0.4936 C.3     1  LIG1        0.0788
     11 C           1.6198   -2.8607   -0.5495 C.ar    1  LIG1       -0.0193
     12 C           0.9318   -1.6396   -0.5302 C.ar    1  LIG1       -0.0476
     13 O          -0.1627    0.8848    0.0973 O.2     1  LIG1       -0.4539
     14 C          -2.0811    2.3843    0.0918 C.ar    1  LIG1        0.0648
     15 C          -0.7004    2.1504    0.0916 C.ar    1  LIG1        0.1500
     16 C           0.1642    3.2621    0.0861 C.ar    1  LIG1        0.0630
     17 C           1.5726    3.4613    0.0833 C.ar    1  LIG1       -0.0126
     18 C           1.7748    4.8222    0.0807 C.ar    1  LIG1        0.0932
     19 O           0.5873    5.4817    0.0798 O.2     1  LIG1       -0.4628
     20 C          -0.3928    4.5370    0.0833 C.ar    1  LIG1        0.1383
     21 C          -1.7615    4.7972    0.0847 C.ar    1  LIG1       -0.0179
     22 C          -2.6071    3.6835    0.0888 C.ar    1  LIG1       -0.0439
     23 H          -3.0332   -0.9496    0.0641 H       1  LIG1        0.0693
     24 H          -1.8311   -2.6257    1.1941 H       1  LIG1        0.0626
     25 H          -0.6282   -4.7557    1.1338 H       1  LIG1        0.0654
     26 H           3.2316   -6.4164   -0.3417 H       1  LIG1        0.0660
     27 H           3.6481   -4.7305   -0.0145 H       1  LIG1        0.0660
     28 H           2.8634   -5.2011   -1.5726 H       1  LIG1        0.0660
     29 H           2.5873   -2.8908   -1.0390 H       1  LIG1        0.0654
     30 H           1.3964   -0.7794   -1.0087 H       1  LIG1        0.0626
     31 H           2.3419    2.7023    0.0852 H       1  LIG1        0.0656
     32 H           2.6556    5.4495    0.0799 H       1  LIG1        0.1030
     33 H          -2.1439    5.8112    0.0831 H       1  LIG1        0.0655
     34 H          -3.6860    3.8332    0.0896 H       1  LIG1        0.0627
@<TRIPOS>BOND
     1     1     2    2
     2     2     3   ar
     3     3     4   ar
     4     4     5    1
     5     5     6   ar
     6     6     7   ar
     7     7     8   ar
     8     8     9    1
     9     9    10    1
    10     8    11   ar
    11    11    12   ar
    12     5    12   ar
    13     4    13   ar
    14     2    14   ar
    15    14    15   ar
    16    13    15   ar
    17    15    16   ar
    18    16    17   ar
    19    17    18   ar
    20    18    19   ar
    21    16    20   ar
    22    19    20   ar
    23    20    21   ar
    24    21    22   ar
    25    14    22   ar
    26     3    23    1
    27     6    24    1
    28     7    25    1
    29    10    26    1
    30    10    27    1
    31    10    28    1
    32    11    29    1
    33    12    30    1
    34    17    31    1
    35    18    32    1
    36    21    33    1
    37    22    34    1
