REMARK  Name = NuBBE_1080
REMARK  9 active torsions:
REMARK  status: ('A' for Active; 'I' for Inactive)
REMARK    1  A    between atoms: N_5  and  C_13
REMARK    2  A    between atoms: C_7  and  O_12
REMARK    3  A    between atoms: C_14  and  O_15
REMARK    4  A    between atoms: O_15  and  C_16
REMARK    5  A    between atoms: C_19  and  C_24
REMARK    6  A    between atoms: C_22  and  O_23
REMARK    7  A    between atoms: C_24  and  O_25
REMARK    8  A    between atoms: C_24  and  C_26
REMARK    9  A    between atoms: C_24  and  C_27
REMARK                            x       y       z     vdW  Elec       q    Type
REMARK                         _______ _______ _______ _____ _____    ______ ____
ROOT
ATOM      1  O   LIG A   1      -3.230  -2.609   0.336  0.00  0.00    -0.286 OA
ATOM      2  C   LIG A   1      -2.022  -2.569   0.119  0.00  0.00    +0.201 A 
ATOM      3  C   LIG A   1      -1.248  -1.297   0.070  0.00  0.00    +0.091 A 
ATOM      4  C   LIG A   1       0.166  -1.363   0.232  0.00  0.00    +0.102 A 
ATOM      5  N   LIG A   1       0.807  -2.650   0.377  0.00  0.00    -0.337 N 
ATOM      6  C   LIG A   1       0.095  -3.833   0.007  0.00  0.00    +0.095 A 
ATOM      7  C   LIG A   1       0.773  -5.028  -0.278  0.00  0.00    +0.141 A 
ATOM      8  C   LIG A   1       0.091  -6.205  -0.576  0.00  0.00    +0.047 A 
ATOM      9  C   LIG A   1      -1.302  -6.200  -0.620  0.00  0.00    +0.004 A 
ATOM     10  C   LIG A   1      -2.000  -5.014  -0.386  0.00  0.00    +0.014 A 
ATOM     11  C   LIG A   1      -1.298  -3.836  -0.093  0.00  0.00    +0.050 A 
ATOM     12  C   LIG A   1       1.265  -2.799   1.783  0.00  0.00    +0.149 C 
ATOM     13  C   LIG A   1       0.939  -0.167   0.207  0.00  0.00    +0.186 A 
ATOM     14  C   LIG A   1       0.265   1.034   0.009  0.00  0.00    +0.171 A 
ATOM     15  O   LIG A   1       0.837   2.285  -0.049  0.00  0.00    -0.481 OA
ATOM     16  C   LIG A   1      -0.185   3.132  -0.640  0.00  0.00    +0.209 C 
ATOM     17  C   LIG A   1      -1.539   2.503  -0.295  0.00  0.00    +0.090 C 
ATOM     18  C   LIG A   1      -1.116   1.089  -0.144  0.00  0.00    +0.044 A 
ATOM     19  C   LIG A   1      -1.886  -0.060  -0.105  0.00  0.00    +0.137 A 
ENDROOT
BRANCH  16  20
ATOM     20  C   LIG A   1      -0.012   4.587  -0.144  0.00  0.00    +0.097 C 
ATOM     21  C   LIG A   1       1.367   5.142  -0.521  0.00  0.00    +0.045 C 
ATOM     22  C   LIG A   1      -1.105   5.495  -0.710  0.00  0.00    +0.045 C 
BRANCH  20  23
ATOM     23  O   LIG A   1      -0.118   4.630   1.285  0.00  0.00    -0.386 OA
ATOM     24  H   LIG A   1       0.574   4.040   1.638  0.00  0.00    +0.210 HD
ENDBRANCH  20  23
ENDBRANCH  16  20
BRANCH   7  25
ATOM     25  O   LIG A   1       2.142  -5.051  -0.316  0.00  0.00    -0.505 OA
ATOM     26  H   LIG A   1       2.411  -4.111  -0.318  0.00  0.00    +0.292 HD
ENDBRANCH   7  25
BRANCH  13  27
ATOM     27  O   LIG A   1       2.295  -0.314   0.354  0.00  0.00    -0.489 OA
ATOM     28  C   LIG A   1       3.106   0.854   0.313  0.00  0.00    +0.277 C 
ENDBRANCH  13  27
BRANCH  19  29
ATOM     29  O   LIG A   1      -3.235   0.024  -0.273  0.00  0.00    -0.506 OA
ATOM     30  H   LIG A   1      -3.546   0.920  -0.073  0.00  0.00    +0.292 HD
ENDBRANCH  19  29
TORSDOF 5
