@<TRIPOS>MOLECULE
NuBBE_1934
 39 40 0 0 0
SMALL
GASTEIGER

@<TRIPOS>ATOM
      1 C          -1.7944    1.1286   -3.2538 C.3     1  LIG1       -0.0624
      2 C          -0.6865    0.3232   -2.5488 C.3     1  LIG1       -0.0431
      3 H           0.2694    0.6304   -2.9959 H       1  LIG1        0.0298
      4 C          -0.6117    0.6552   -0.9976 C.3     1  LIG1       -0.0285
      5 H          -1.6032    0.4566   -0.5644 H       1  LIG1        0.0312
      6 C           0.4308   -0.2065   -0.1973 C.3     1  LIG1       -0.0128
      7 H           1.2600   -0.3786   -0.9007 H       1  LIG1        0.0352
      8 C           1.1001    0.4665    1.0698 C.3     1  LIG1       -0.0133
      9 C           0.8638   -0.3064    2.3874 C.3     1  LIG1       -0.0423
     10 C           1.0767   -1.8041    2.2465 C.3     1  LIG1       -0.0314
     11 C           0.1797   -2.3422    1.1822 C.2     1  LIG1       -0.0762
     12 C          -0.3605   -3.7266    1.3907 C.3     1  LIG1       -0.0438
     13 C          -0.1280   -1.5965    0.1088 C.2     1  LIG1       -0.0811
     14 H           2.1845    0.4051    0.8847 H       1  LIG1        0.0351
     15 C           0.8202    1.9440    1.2917 C.2     1  LIG1       -0.0729
     16 C           1.3906    2.6005    2.5248 C.3     1  LIG1       -0.0435
     17 C           0.1494    2.6852    0.4057 C.2     1  LIG1       -0.0845
     18 C          -0.3658    2.1754   -0.8864 C.3     1  LIG1       -0.0309
     19 C          -0.8780   -1.1451   -2.9313 C.3     1  LIG1       -0.0624
     20 H          -1.8768    0.8445   -4.3090 H       1  LIG1        0.0232
     21 H          -1.5890    2.2028   -3.2406 H       1  LIG1        0.0232
     22 H          -2.7668    0.9555   -2.7811 H       1  LIG1        0.0232
     23 H          -0.1539   -0.1133    2.7548 H       1  LIG1        0.0274
     24 H           1.5507    0.0474    3.1663 H       1  LIG1        0.0274
     25 H           0.8560   -2.2777    3.2103 H       1  LIG1        0.0310
     26 H           2.1208   -2.0340    2.0031 H       1  LIG1        0.0310
     27 H          -0.9394   -3.7725    2.3190 H       1  LIG1        0.0274
     28 H           0.4607   -4.4474    1.4559 H       1  LIG1        0.0274
     29 H          -1.0181   -4.0409    0.5736 H       1  LIG1        0.0274
     30 H          -0.8131   -2.0377   -0.6040 H       1  LIG1        0.0575
     31 H           2.4550    2.3651    2.6250 H       1  LIG1        0.0274
     32 H           0.8647    2.2627    3.4233 H       1  LIG1        0.0274
     33 H           1.3020    3.6921    2.4899 H       1  LIG1        0.0274
     34 H           0.0026    3.7489    0.5863 H       1  LIG1        0.0572
     35 H           0.3353    2.5098   -1.6621 H       1  LIG1        0.0310
     36 H          -1.3140    2.6935   -1.0778 H       1  LIG1        0.0310
     37 H          -0.9525   -1.2554   -4.0196 H       1  LIG1        0.0232
     38 H          -1.7982   -1.5533   -2.5016 H       1  LIG1        0.0232
     39 H          -0.0228   -1.7550   -2.6279 H       1  LIG1        0.0232
@<TRIPOS>BOND
     1     1     2    1
     2     2     3    1
     3     4     6    1
     4     6     8    1
     5     8     9    1
     6     9    10    1
     7    10    11    1
     8    11    13    2
     9     6    13    1
    10     8    15    1
    11    15    17    2
    12    17    18    1
    13     4    18    1
    14     2    19    1
    15     6     7    1
    16     8    14    1
    17    11    12    1
    18    15    16    1
    19     4     5    1
    20     4     2    1
    21     1    20    1
    22     1    21    1
    23     1    22    1
    24     9    23    1
    25     9    24    1
    26    10    25    1
    27    10    26    1
    28    12    27    1
    29    12    28    1
    30    12    29    1
    31    13    30    1
    32    16    31    1
    33    16    32    1
    34    16    33    1
    35    17    34    1
    36    18    35    1
    37    18    36    1
    38    19    37    1
    39    19    38    1
    40    19    39    1
