@<TRIPOS>MOLECULE
NuBBE_906
 37 39 0 0 0
SMALL
GASTEIGER

@<TRIPOS>ATOM
      1 O           0.2571   -2.3081   -0.4054 O.2     1  LIG1       -0.2718
      2 C          -0.0050   -1.1068   -0.5074 C.2     1  LIG1        0.2569
      3 N           0.5518   -0.1541    0.3205 N.am    1  LIG1       -0.2531
      4 C           1.3118   -0.3357    1.4929 C.ar    1  LIG1        0.0820
      5 C           1.7137    0.9212    1.9673 C.ar    1  LIG1       -0.0201
      6 C           1.1765    2.0301    1.1123 C.3     1  LIG1        0.0018
      7 C           0.6737    1.2461   -0.1006 C.3     1  LIG1        0.1114
      8 C          -0.6352    1.7794   -0.6646 C.2     1  LIG1        0.2380
      9 O          -0.8700    2.9890   -0.6655 O.2     1  LIG1       -0.2735
     10 N          -1.4610    0.8362   -1.2844 N.am    1  LIG1       -0.2787
     11 C          -0.8989   -0.5061   -1.6608 C.3     1  LIG1        0.1833
     12 C           0.0236   -0.4366   -2.9195 C.3     1  LIG1        0.0837
     13 O          -0.6326    0.0668   -4.0848 O.3     1  LIG1       -0.3915
     14 S          -2.2743   -1.7475   -1.9709 S.3     1  LIG1       -0.1271
     15 C          -3.1117   -1.7404   -0.3590 C.3     1  LIG1       -0.0156
     16 C          -2.6294    1.3541   -1.9924 C.3     1  LIG1        0.0050
     17 C           2.4622    1.0616    3.1275 C.ar    1  LIG1       -0.0565
     18 C           2.8225   -0.0904    3.8240 C.ar    1  LIG1       -0.0579
     19 C           2.4223   -1.3521    3.3616 C.ar    1  LIG1       -0.0183
     20 C           1.6626   -1.4809    2.1957 C.ar    1  LIG1        0.1384
     21 O           1.3274   -2.7517    1.8432 O.3     1  LIG1       -0.5049
     22 H           1.9541    2.7465    0.8322 H       1  LIG1        0.0337
     23 H           0.3696    2.5487    1.6410 H       1  LIG1        0.0337
     24 H           1.4260    1.2837   -0.9043 H       1  LIG1        0.0604
     25 H           0.4385   -1.4237   -3.1581 H       1  LIG1        0.0592
     26 H           0.8752    0.2261   -2.7386 H       1  LIG1        0.0592
     27 H           0.0158    0.0654   -4.8107 H       1  LIG1        0.2095
     28 H          -3.7810   -2.6046   -0.3121 H       1  LIG1        0.0341
     29 H          -3.7254   -0.8444   -0.2402 H       1  LIG1        0.0341
     30 H          -2.4094   -1.8114    0.4738 H       1  LIG1        0.0341
     31 H          -2.8682    2.3748   -1.6776 H       1  LIG1        0.0429
     32 H          -3.5082    0.7471   -1.7740 H       1  LIG1        0.0429
     33 H          -2.4456    1.3676   -3.0679 H       1  LIG1        0.0429
     34 H           2.7547    2.0411    3.4937 H       1  LIG1        0.0621
     35 H           3.4095   -0.0140    4.7362 H       1  LIG1        0.0619
     36 H           2.7047   -2.2436    3.9169 H       1  LIG1        0.0655
     37 H           0.9026   -2.7333    0.9595 H       1  LIG1        0.2922
@<TRIPOS>BOND
     1     1     2    2
     2     2     3   am
     3     3     4    1
     4     4     5   ar
     5     5     6    1
     6     6     7    1
     7     3     7    1
     8     7     8    1
     9     8     9    2
    10     8    10   am
    11    10    11    1
    12     2    11    1
    13    11    12    1
    14    12    13    1
    15    11    14    1
    16    14    15    1
    17    10    16    1
    18     5    17   ar
    19    17    18   ar
    20    18    19   ar
    21    19    20   ar
    22     4    20   ar
    23    20    21    1
    24     6    22    1
    25     6    23    1
    26     7    24    1
    27    12    25    1
    28    12    26    1
    29    13    27    1
    30    15    28    1
    31    15    29    1
    32    15    30    1
    33    16    31    1
    34    16    32    1
    35    16    33    1
    36    17    34    1
    37    18    35    1
    38    19    36    1
    39    21    37    1
