REMARK  Name = NuBBE_2398
REMARK  9 active torsions:
REMARK  status: ('A' for Active; 'I' for Inactive)
REMARK    1  A    between atoms: C_1  and  C_3
REMARK    2  A    between atoms: C_1  and  C_11
REMARK    3  A    between atoms: C_4  and  C_5
REMARK    4  A    between atoms: C_12  and  O_13
REMARK    5  A    between atoms: C_14  and  C_15
REMARK    6  A    between atoms: C_15  and  C_16
REMARK    7  A    between atoms: C_17  and  C_18
REMARK    8  A    between atoms: C_17  and  C_19
REMARK    9  A    between atoms: C_20  and  O_23
REMARK                            x       y       z     vdW  Elec       q    Type
REMARK                         _______ _______ _______ _____ _____    ______ ____
ROOT
ATOM      1  C   LIG A   1      -0.081   0.395   1.091  0.00  0.00    +0.064 A 
ATOM      2  C   LIG A   1       0.743  -0.752   1.176  0.00  0.00    +0.135 A 
ATOM      3  C   LIG A   1       2.154  -0.669   1.115  0.00  0.00    +0.040 A 
ATOM      4  C   LIG A   1       2.718   0.605   0.963  0.00  0.00    +0.124 A 
ATOM      5  C   LIG A   1       1.915   1.741   0.856  0.00  0.00    +0.046 A 
ATOM      6  C   LIG A   1       0.524   1.642   0.923  0.00  0.00    +0.019 A 
ENDROOT
BRANCH   1   7
ATOM      7  C   LIG A   1      -1.563   0.237   1.226  0.00  0.00    +0.190 C 
ATOM      8  O   LIG A   1      -1.994  -0.709   1.870  0.00  0.00    -0.287 OA
BRANCH   7   9
ATOM      9  C   LIG A   1      -2.478   1.195   0.534  0.00  0.00    +0.052 C 
ATOM     10  C   LIG A   1      -3.755   0.844   0.307  0.00  0.00    +0.012 C 
BRANCH  10  11
ATOM     11  C   LIG A   1      -4.726   1.736  -0.336  0.00  0.00    -0.025 A 
ATOM     12  C   LIG A   1      -5.524   2.576   0.450  0.00  0.00    +0.008 A 
ATOM     13  C   LIG A   1      -6.505   3.376  -0.142  0.00  0.00    +0.001 A 
ATOM     14  C   LIG A   1      -6.693   3.344  -1.523  0.00  0.00    +0.000 A 
ATOM     15  C   LIG A   1      -5.895   2.517  -2.313  0.00  0.00    +0.001 A 
ATOM     16  C   LIG A   1      -4.912   1.716  -1.722  0.00  0.00    +0.008 A 
ENDBRANCH  10  11
ENDBRANCH   7   9
ENDBRANCH   1   7
BRANCH   2  17
ATOM     17  O   LIG A   1       0.198  -2.010   1.312  0.00  0.00    -0.506 OA
ATOM     18  H   LIG A   1      -0.755  -1.913   1.536  0.00  0.00    +0.292 HD
ENDBRANCH   2  17
BRANCH   4  19
ATOM     19  O   LIG A   1       4.062   0.851   0.929  0.00  0.00    -0.506 OA
ATOM     20  H   LIG A   1       4.552   0.034   1.101  0.00  0.00    +0.292 HD
ENDBRANCH   4  19
BRANCH   3  21
ATOM     21  C   LIG A   1       2.995  -1.925   1.200  0.00  0.00    +0.069 C 
BRANCH  21  22
ATOM     22  C   LIG A   1       3.281  -2.542  -0.145  0.00  0.00    -0.023 C 
ATOM     23  C   LIG A   1       4.481  -2.760  -0.721  0.00  0.00    -0.079 C 
ATOM     24  C   LIG A   1       5.808  -2.333  -0.158  0.00  0.00    +0.038 C 
ATOM     25  C   LIG A   1       4.589  -3.512  -2.024  0.00  0.00    +0.038 C 
ENDBRANCH  21  22
ENDBRANCH   3  21
TORSDOF 7
