REMARK  Name = NuBBE_1345
REMARK  4 active torsions:
REMARK  status: ('A' for Active; 'I' for Inactive)
REMARK    1  A    between atoms: C_1  and  O_2
REMARK    2  A    between atoms: O_2  and  C_3
REMARK    3  A    between atoms: C_12  and  C_13
REMARK    4  A    between atoms: C_12  and  C_14
REMARK                            x       y       z     vdW  Elec       q    Type
REMARK                         _______ _______ _______ _____ _____    ______ ____
ROOT
ATOM      1  C   LIG A   1       1.694   1.729  -2.006  0.00  0.00    +0.144 A 
ATOM      2  C   LIG A   1       0.720   2.586  -2.515  0.00  0.00    +0.048 A 
ATOM      3  C   LIG A   1      -0.577   2.535  -2.005  0.00  0.00    +0.004 A 
ATOM      4  C   LIG A   1      -0.896   1.634  -0.982  0.00  0.00    +0.014 A 
ATOM      5  C   LIG A   1       0.082   0.784  -0.447  0.00  0.00    +0.044 A 
ATOM      6  C   LIG A   1      -0.202  -0.182   0.629  0.00  0.00    +0.143 A 
ATOM      7  C   LIG A   1       0.776  -0.960   1.128  0.00  0.00    +0.081 A 
ATOM      8  C   LIG A   1       0.476  -1.892   2.188  0.00  0.00    +0.016 C 
ATOM      9  C   LIG A   1      -0.786  -2.025   2.610  0.00  0.00    +0.020 C 
ATOM     10  C   LIG A   1      -1.920  -1.222   2.013  0.00  0.00    +0.123 C 
ATOM     11  C   LIG A   1      -2.662  -0.477   3.128  0.00  0.00    +0.060 C 
ATOM     12  C   LIG A   1      -2.885  -2.163   1.284  0.00  0.00    +0.060 C 
ATOM     13  O   LIG A   1      -1.515  -0.218   1.055  0.00  0.00    -0.481 OA
ATOM     14  C   LIG A   1       1.382   0.854  -0.960  0.00  0.00    +0.095 A 
ATOM     15  N   LIG A   1       2.380   0.032  -0.422  0.00  0.00    -0.319 N 
ATOM     16  C   LIG A   1       2.173  -0.858   0.594  0.00  0.00    +0.260 A 
ATOM     17  O   LIG A   1       3.091  -1.545   1.034  0.00  0.00    -0.267 OA
ATOM     18  H   LIG A   1       3.322   0.114  -0.784  0.00  0.00    +0.169 HD
ENDROOT
BRANCH   1  20
ATOM     19  C   LIG A   1       3.052   1.256  -3.806  0.00  0.00    +0.277 C 
ATOM     20  O   LIG A   1       2.983   1.770  -2.475  0.00  0.00    -0.493 OA
ENDBRANCH   1  20
TORSDOF 1
