@<TRIPOS>MOLECULE
NuBBE_2028
 25 25 0 0 0
SMALL
GASTEIGER

@<TRIPOS>ATOM
      1 O          -2.3134   -1.0523   -0.0965 O.3     1  LIG1       -0.5065
      2 C          -0.9535   -0.9135   -0.1354 C.ar    1  LIG1        0.1205
      3 C          -0.3062    0.3311   -0.0877 C.ar    1  LIG1       -0.0034
      4 C          -1.0747    1.6434   -0.0415 C.3     1  LIG1       -0.0181
      5 C          -1.2793    2.0874    1.4084 C.3     1  LIG1       -0.0585
      6 C          -0.4350    2.7724   -0.8601 C.3     1  LIG1       -0.0585
      7 C           1.0999    0.3228   -0.0616 C.ar    1  LIG1       -0.0546
      8 C           1.8239   -0.8730   -0.1276 C.ar    1  LIG1       -0.0583
      9 C           1.1621   -2.0982   -0.2264 C.ar    1  LIG1       -0.0470
     10 C           1.9312   -3.3839   -0.2705 C.3     1  LIG1       -0.0396
     11 C          -0.2347   -2.1083   -0.2148 C.ar    1  LIG1       -0.0170
     12 H          -2.7008   -0.2496    0.2835 H       1  LIG1        0.2921
     13 H          -2.0608    1.4871   -0.4957 H       1  LIG1        0.0345
     14 H          -0.3233    2.2869    1.9059 H       1  LIG1        0.0235
     15 H          -1.8005    1.3179    1.9886 H       1  LIG1        0.0235
     16 H          -1.8794    3.0025    1.4531 H       1  LIG1        0.0235
     17 H           0.5053    3.1224   -0.4217 H       1  LIG1        0.0235
     18 H          -1.1092    3.6350   -0.9089 H       1  LIG1        0.0235
     19 H          -0.2332    2.4481   -1.8869 H       1  LIG1        0.0235
     20 H           1.6607    1.2511    0.0135 H       1  LIG1        0.0622
     21 H           2.9109   -0.8367   -0.1046 H       1  LIG1        0.0620
     22 H           2.9147   -3.2367   -0.7291 H       1  LIG1        0.0278
     23 H           1.4030   -4.1332   -0.8696 H       1  LIG1        0.0278
     24 H           2.0693   -3.7728    0.7430 H       1  LIG1        0.0278
     25 H          -0.7771   -3.0499   -0.2574 H       1  LIG1        0.0657
@<TRIPOS>BOND
     1     1     2    1
     2     2     3   ar
     3     3     4    1
     4     4     5    1
     5     4     6    1
     6     3     7   ar
     7     7     8   ar
     8     8     9   ar
     9     9    10    1
    10     9    11   ar
    11     2    11   ar
    12     1    12    1
    13     4    13    1
    14     5    14    1
    15     5    15    1
    16     5    16    1
    17     6    17    1
    18     6    18    1
    19     6    19    1
    20     7    20    1
    21     8    21    1
    22    10    22    1
    23    10    23    1
    24    10    24    1
    25    11    25    1
