REMARK  Name = NuBBE_577
REMARK  6 active torsions:
REMARK  status: ('A' for Active; 'I' for Inactive)
REMARK    1  A    between atoms: C_5  and  O_6
REMARK    2  A    between atoms: C_5  and  C_7
REMARK    3  A    between atoms: C_11  and  C_12
REMARK    4  A    between atoms: C_17  and  C_18
REMARK    5  A    between atoms: C_17  and  C_19
REMARK    6  A    between atoms: C_21  and  C_23
REMARK                            x       y       z     vdW  Elec       q    Type
REMARK                         _______ _______ _______ _____ _____    ______ ____
ROOT
ATOM      1  O   LIG A   1      -2.640  -0.544  -1.635  0.00  0.00    -0.292 OA
ATOM      2  C   LIG A   1      -1.409  -0.492  -1.501  0.00  0.00    +0.163 C 
ATOM      3  C   LIG A   1      -0.741  -1.701  -0.939  0.00  0.00    +0.008 C 
ATOM      4  C   LIG A   1      -1.225  -2.837  -1.830  0.00  0.00    +0.081 C 
ATOM      5  C   LIG A   1      -0.147  -3.872  -1.674  0.00  0.00    +0.129 C 
ATOM      6  C   LIG A   1      -0.663  -5.230  -2.095  0.00  0.00    +0.050 C 
ATOM      7  C   LIG A   1      -0.075  -2.159   0.154  0.00  0.00    +0.036 C 
ATOM      8  C   LIG A   1       0.312  -1.796   1.541  0.00  0.00    +0.184 C 
ATOM      9  C   LIG A   1       1.257  -0.855   2.301  0.00  0.00    +0.098 C 
ATOM     10  C   LIG A   1       1.212  -0.827   3.821  0.00  0.00    +0.044 C 
ATOM     11  C   LIG A   1       1.841   0.369   1.667  0.00  0.00    +0.038 C 
ATOM     12  C   LIG A   1       0.743   1.419   1.698  0.00  0.00    +0.007 C 
ATOM     13  C   LIG A   1       0.915   2.555   0.755  0.00  0.00    -0.001 C 
ATOM     14  C   LIG A   1       0.133   2.696  -0.535  0.00  0.00    -0.001 C 
ATOM     15  C   LIG A   1      -0.213   3.573   0.667  0.00  0.00    -0.029 C 
ATOM     16  C   LIG A   1       0.136   5.031   0.595  0.00  0.00    +0.011 C 
ATOM     17  C   LIG A   1      -1.514   3.333   1.429  0.00  0.00    +0.011 C 
ATOM     18  C   LIG A   1      -0.945   1.776  -0.981  0.00  0.00    +0.015 C 
ATOM     19  C   LIG A   1      -0.674   0.728  -2.043  0.00  0.00    +0.057 C 
ATOM     20  C   LIG A   1       0.715   0.526  -2.626  0.00  0.00    +0.016 C 
ATOM     21  O   LIG A   1       1.721  -2.093   1.834  0.00  0.00    -0.360 OA
ATOM     22  C   LIG A   1       0.071  -3.630  -0.204  0.00  0.00    +0.193 C 
ATOM     23  O   LIG A   1       0.263  -4.511   0.650  0.00  0.00    -0.289 OA
ENDROOT
BRANCH   5  24
ATOM     24  O   LIG A   1       0.988  -3.552  -2.472  0.00  0.00    -0.381 OA
ATOM     25  H   LIG A   1       0.884  -2.665  -2.855  0.00  0.00    +0.211 HD
ENDBRANCH   5  24
TORSDOF 1
