REMARK  Name = NuBBE_209
REMARK  3 active torsions:
REMARK  status: ('A' for Active; 'I' for Inactive)
REMARK    1  A    between atoms: O_1  and  C_2
REMARK    2  A    between atoms: C_2  and  C_3
REMARK    3  A    between atoms: C_4  and  O_5
REMARK                            x       y       z     vdW  Elec       q    Type
REMARK                         _______ _______ _______ _____ _____    ______ ____
ROOT
ATOM      1  C   LIG A   1      -0.093  -0.555   0.010  0.00  0.00    +0.100 A 
ATOM      2  C   LIG A   1      -0.712   0.683   0.236  0.00  0.00    +0.131 A 
ATOM      3  C   LIG A   1       0.000   1.870   0.064  0.00  0.00    +0.046 A 
ATOM      4  C   LIG A   1       1.336   1.833  -0.336  0.00  0.00    +0.004 A 
ATOM      5  C   LIG A   1       1.962   0.609  -0.564  0.00  0.00    +0.001 A 
ATOM      6  C   LIG A   1       1.251  -0.581  -0.393  0.00  0.00    +0.019 A 
ENDROOT
BRANCH   1   7
ATOM      7  C   LIG A   1      -0.777  -1.861   0.169  0.00  0.00    +0.340 C 
ATOM      8  O   LIG A   1      -0.283  -2.958  -0.013  0.00  0.00    -0.245 OA
BRANCH   7   9
ATOM      9  O   LIG A   1      -2.065  -1.741   0.553  0.00  0.00    -0.477 OA
ATOM     10  H   LIG A   1      -2.363  -2.677   0.610  0.00  0.00    +0.295 HD
ENDBRANCH   7   9
ENDBRANCH   1   7
BRANCH   2  11
ATOM     11  O   LIG A   1      -2.015   0.822   0.630  0.00  0.00    -0.506 OA
ATOM     12  H   LIG A   1      -2.394  -0.079   0.711  0.00  0.00    +0.292 HD
ENDBRANCH   2  11
TORSDOF 3
