@<TRIPOS>MOLECULE
NuBBE_2195
 55 56 0 0 0
SMALL
GASTEIGER

@<TRIPOS>ATOM
      1 C           0.2633    1.0304    2.2346 C.3     1  LIG1       -0.0586
      2 C          -0.2504    0.4201    0.8975 C.3     1  LIG1       -0.0188
      3 C           0.9899    0.4111   -0.1287 C.3     1  LIG1        0.0232
      4 H           1.8162   -0.1299    0.3530 H       1  LIG1        0.0383
      5 C           1.5792    1.8095   -0.4306 C.2     1  LIG1        0.1377
      6 C           2.6885    1.8749   -1.4508 C.3     1  LIG1        0.0149
      7 C           2.2339    1.2949   -2.7950 C.3     1  LIG1       -0.0076
      8 C           3.3484    1.2955   -3.8413 C.2     1  LIG1       -0.0848
      9 C           4.6000    1.7558   -3.6987 C.2     1  LIG1       -0.1021
     10 C           1.0751    2.1363   -3.3765 C.3     1  LIG1       -0.0557
     11 C           1.7869   -0.1617   -2.5428 C.3     1  LIG1       -0.0431
     12 C           0.6954   -0.3038   -1.4704 C.3     1  LIG1       -0.0422
     13 O           1.2641    2.8385    0.1647 O.2     1  LIG1       -0.2971
     14 C          -0.8504   -1.0696    1.1487 C.3     1  LIG1       -0.0198
     15 C           0.1672   -1.9589    1.9213 C.3     1  LIG1        0.0486
     16 C          -0.2236   -3.3924    2.1996 C.2     1  LIG1        0.3050
     17 O          -0.1323   -4.1912    1.1195 O.3     1  LIG1       -0.4806
     18 O          -0.5783   -3.8465    3.2692 O.2     1  LIG1       -0.2510
     19 H          -0.9319   -1.5124    0.1497 H       1  LIG1        0.0317
     20 C          -2.3526   -1.1423    1.6945 C.3     1  LIG1       -0.0310
     21 C          -2.4909   -1.0308    3.2274 C.3     1  LIG1       -0.0595
     22 C          -3.0177   -2.4863    1.2767 C.3     1  LIG1       -0.0595
     23 C          -3.2422   -0.0547    1.0459 C.3     1  LIG1       -0.0476
     24 C          -2.6459    1.3318    1.1186 C.3     1  LIG1       -0.0520
     25 C          -1.3566    1.3520    0.3253 C.3     1  LIG1       -0.0467
     26 H          -0.3744    0.7919    3.0829 H       1  LIG1        0.0235
     27 H           0.3063    2.1239    2.2004 H       1  LIG1        0.0235
     28 H           1.2711    0.6770    2.4793 H       1  LIG1        0.0235
     29 H           3.5410    1.3227   -1.0353 H       1  LIG1        0.0350
     30 H           2.9961    2.9226   -1.5597 H       1  LIG1        0.0350
     31 H           3.0779    0.8943   -4.8195 H       1  LIG1        0.0572
     32 H           4.9705    2.1875   -2.7749 H       1  LIG1        0.0532
     33 H           5.3006    1.7210   -4.5284 H       1  LIG1        0.0532
     34 H           1.3936    3.1685   -3.5666 H       1  LIG1        0.0238
     35 H           0.2131    2.1864   -2.7034 H       1  LIG1        0.0238
     36 H           0.7166    1.7209   -4.3261 H       1  LIG1        0.0238
     37 H           2.6530   -0.7650   -2.2373 H       1  LIG1        0.0274
     38 H           1.4168   -0.6117   -3.4741 H       1  LIG1        0.0274
     39 H           0.5679   -1.3771   -1.2915 H       1  LIG1        0.0272
     40 H          -0.2455    0.0496   -1.9004 H       1  LIG1        0.0272
     41 H           1.1146   -2.0107    1.3678 H       1  LIG1        0.0381
     42 H           0.4178   -1.5211    2.8921 H       1  LIG1        0.0381
     43 H          -0.4145   -5.0653    1.4687 H       1  LIG1        0.2951
     44 H          -2.0087   -1.8575    3.7526 H       1  LIG1        0.0235
     45 H          -3.5487   -1.0567    3.5193 H       1  LIG1        0.0235
     46 H          -2.0866   -0.1023    3.6281 H       1  LIG1        0.0235
     47 H          -2.7041   -3.3293    1.8940 H       1  LIG1        0.0235
     48 H          -2.8017   -2.7299    0.2302 H       1  LIG1        0.0235
     49 H          -4.1088   -2.4337    1.3760 H       1  LIG1        0.0235
     50 H          -4.2324   -0.0375    1.5193 H       1  LIG1        0.0271
     51 H          -3.4191   -0.3053   -0.0095 H       1  LIG1        0.0271
     52 H          -2.4843    1.6510    2.1528 H       1  LIG1        0.0266
     53 H          -3.3483    2.0485    0.6770 H       1  LIG1        0.0266
     54 H          -1.0225    2.3924    0.2819 H       1  LIG1        0.0271
     55 H          -1.5925    1.0744   -0.7070 H       1  LIG1        0.0271
@<TRIPOS>BOND
     1     1     2    1
     2     3     5    1
     3     5     6    1
     4     6     7    1
     5     7     8    1
     6     8     9    2
     7     7    10    1
     8     7    11    1
     9    11    12    1
    10     3    12    1
    11     5    13    2
    12     2    14    1
    13    15    16    1
    14    16    17    1
    15    16    18    2
    16    14    20    1
    17    20    21    1
    18    20    22    1
    19    20    23    1
    20    23    24    1
    21    24    25    1
    22     2    25    1
    23    14    19    1
    24    14    15    1
    25     3     4    1
    26     3     2    1
    27     1    26    1
    28     1    27    1
    29     1    28    1
    30     6    29    1
    31     6    30    1
    32     8    31    1
    33     9    32    1
    34     9    33    1
    35    10    34    1
    36    10    35    1
    37    10    36    1
    38    11    37    1
    39    11    38    1
    40    12    39    1
    41    12    40    1
    42    15    41    1
    43    15    42    1
    44    17    43    1
    45    21    44    1
    46    21    45    1
    47    21    46    1
    48    22    47    1
    49    22    48    1
    50    22    49    1
    51    23    50    1
    52    23    51    1
    53    24    52    1
    54    24    53    1
    55    25    54    1
    56    25    55    1
