REMARK  Name = NuBBE_968
REMARK  9 active torsions:
REMARK  status: ('A' for Active; 'I' for Inactive)
REMARK    1  A    between atoms: C_1  and  C_2
REMARK    2  A    between atoms: C_2  and  C_3
REMARK    3  A    between atoms: C_2  and  C_18
REMARK    4  A    between atoms: C_2  and  O_19
REMARK    5  A    between atoms: C_6  and  C_8
REMARK    6  A    between atoms: C_8  and  C_9
REMARK    7  A    between atoms: C_11  and  C_14
REMARK    8  A    between atoms: C_11  and  C_16
REMARK    9  A    between atoms: C_14  and  O_15
REMARK                            x       y       z     vdW  Elec       q    Type
REMARK                         _______ _______ _______ _____ _____    ______ ____
ROOT
ATOM      1  C   LIG A   1       0.831   1.118   0.187  0.00  0.00    +0.021 C 
ATOM      2  C   LIG A   1       0.396  -0.153   0.966  0.00  0.00    +0.015 C 
ATOM      3  C   LIG A   1      -0.457  -1.189   0.186  0.00  0.00    +0.027 C 
ATOM      4  C   LIG A   1      -0.028  -1.247  -1.323  0.00  0.00    +0.018 C 
ATOM      5  C   LIG A   1      -0.197   0.142  -1.992  0.00  0.00    +0.014 C 
ATOM      6  C   LIG A   1      -0.018   1.353  -1.072  0.00  0.00    +0.007 C 
ENDROOT
BRANCH   1   8
ATOM      7  C   LIG A   1       1.304   3.648   0.332  0.00  0.00    +0.041 C 
ATOM      8  C   LIG A   1       0.885   2.390   1.105  0.00  0.00    +0.063 C 
ATOM      9  C   LIG A   1       1.850   2.208   2.285  0.00  0.00    +0.041 C 
BRANCH   8  10
ATOM     10  O   LIG A   1      -0.418   2.674   1.627  0.00  0.00    -0.389 OA
ATOM     11  H   LIG A   1      -0.638   2.007   2.298  0.00  0.00    +0.210 HD
ENDBRANCH   8  10
ENDBRANCH   1   8
BRANCH   3  12
ATOM     12  C   LIG A   1      -1.948  -1.012   0.561  0.00  0.00    -0.076 C 
ATOM     13  C   LIG A   1      -2.372  -1.763   1.805  0.00  0.00    +0.038 C 
ATOM     14  C   LIG A   1      -2.872  -0.293  -0.088  0.00  0.00    +0.007 C 
ENDBRANCH   3  12
BRANCH   4  15
ATOM     15  C   LIG A   1       1.460  -1.649  -1.511  0.00  0.00    -0.025 C 
ATOM     16  C   LIG A   1       2.241  -2.368  -0.692  0.00  0.00    +0.004 C 
ENDBRANCH   4  15
BRANCH   4  17
ATOM     17  C   LIG A   1      -0.874  -2.278  -2.127  0.00  0.00    +0.167 C 
BRANCH  17  18
ATOM     18  O   LIG A   1      -0.789  -3.589  -1.574  0.00  0.00    -0.394 OA
ATOM     19  H   LIG A   1      -1.037  -4.209  -2.280  0.00  0.00    +0.209 HD
ENDBRANCH  17  18
ENDBRANCH   4  17
TORSDOF 6
