@<TRIPOS>MOLECULE
NuBBE_1320
 39 42 0 0 0
SMALL
GASTEIGER

@<TRIPOS>ATOM
      1 O          -4.3623   -1.0677    0.0959 O.2     1  LIG1       -0.2870
      2 C          -3.1390   -1.0636    0.0567 C.ar    1  LIG1        0.1931
      3 C          -2.3802   -2.3220    0.0351 C.ar    1  LIG1        0.0287
      4 C          -1.0420   -2.2757   -0.0175 C.ar    1  LIG1        0.1392
      5 C          -0.2242   -3.5042   -0.0302 C.ar    1  LIG1        0.0174
      6 C           0.9381   -3.5798    0.7525 C.ar    1  LIG1       -0.0511
      7 C           1.7311   -4.7301    0.7461 C.ar    1  LIG1       -0.0611
      8 C           1.3758   -5.8175   -0.0484 C.ar    1  LIG1       -0.0617
      9 C           0.2307   -5.7548   -0.8390 C.ar    1  LIG1       -0.0611
     10 C          -0.5633   -4.6046   -0.8326 C.ar    1  LIG1       -0.0511
     11 O          -0.3030   -1.1049   -0.0372 O.2     1  LIG1       -0.4539
     12 C          -2.3554    0.1805    0.0284 C.ar    1  LIG1        0.0648
     13 C          -0.9623    0.1032   -0.0178 C.ar    1  LIG1        0.1498
     14 C          -0.1939    1.2800   -0.0434 C.ar    1  LIG1        0.0595
     15 C           1.2632    1.2525   -0.1026 C.2     1  LIG1       -0.0478
     16 C           1.9214    2.4145   -0.0788 C.2     1  LIG1       -0.0408
     17 C           1.2350    3.7572    0.0022 C.3     1  LIG1        0.1235
     18 C           1.6155    4.4447    1.3187 C.3     1  LIG1       -0.0215
     19 C           1.6809    4.6244   -1.1810 C.3     1  LIG1       -0.0215
     20 O          -0.2056    3.7246   -0.0457 O.3     1  LIG1       -0.4815
     21 C          -0.8469    2.5184   -0.0191 C.ar    1  LIG1        0.1324
     22 C          -2.2425    2.5867    0.0232 C.ar    1  LIG1       -0.0184
     23 C          -3.0014    1.4186    0.0482 C.ar    1  LIG1       -0.0439
     24 H          -2.9557   -3.2376    0.0745 H       1  LIG1        0.0693
     25 H           1.2327   -2.7427    1.3823 H       1  LIG1        0.0625
     26 H           2.6260   -4.7754    1.3615 H       1  LIG1        0.0618
     27 H           1.9932   -6.7121   -0.0544 H       1  LIG1        0.0618
     28 H          -0.0436   -6.5998   -1.4656 H       1  LIG1        0.0618
     29 H          -1.4422   -4.5760   -1.4729 H       1  LIG1        0.0625
     30 H           1.7862    0.3045   -0.1604 H       1  LIG1        0.0624
     31 H           3.0080    2.4070   -0.1132 H       1  LIG1        0.0611
     32 H           2.6986    4.5801    1.4132 H       1  LIG1        0.0271
     33 H           1.2655    3.8620    2.1793 H       1  LIG1        0.0271
     34 H           1.1370    5.4280    1.3981 H       1  LIG1        0.0271
     35 H           2.7666    4.7706   -1.1977 H       1  LIG1        0.0271
     36 H           1.2017    5.6099   -1.1454 H       1  LIG1        0.0271
     37 H           1.3801    4.1703   -2.1329 H       1  LIG1        0.0271
     38 H          -2.7366    3.5552    0.0372 H       1  LIG1        0.0654
     39 H          -4.0873    1.4752    0.0827 H       1  LIG1        0.0627
@<TRIPOS>BOND
     1     1     2    2
     2     2     3   ar
     3     3     4   ar
     4     4     5    1
     5     5     6   ar
     6     6     7   ar
     7     7     8   ar
     8     8     9   ar
     9     9    10   ar
    10     5    10   ar
    11     4    11   ar
    12     2    12   ar
    13    12    13   ar
    14    11    13   ar
    15    13    14   ar
    16    14    15    1
    17    15    16    2
    18    16    17    1
    19    17    18    1
    20    17    19    1
    21    17    20    1
    22    14    21   ar
    23    20    21    1
    24    21    22   ar
    25    22    23   ar
    26    12    23   ar
    27     3    24    1
    28     6    25    1
    29     7    26    1
    30     8    27    1
    31     9    28    1
    32    10    29    1
    33    15    30    1
    34    16    31    1
    35    18    32    1
    36    18    33    1
    37    18    34    1
    38    19    35    1
    39    19    36    1
    40    19    37    1
    41    22    38    1
    42    23    39    1
