@<TRIPOS>MOLECULE
NuBBE_2228
 31 35 0 0 0
SMALL
GASTEIGER

@<TRIPOS>ATOM
      1 O          -1.8009    2.7576   -0.0083 O.3     1  LIG1       -0.5061
      2 C          -0.4425    2.6022   -0.0092 C.ar    1  LIG1        0.1254
      3 C           0.2473    1.3670   -0.0088 C.ar    1  LIG1        0.0387
      4 C          -0.3319   -0.0339    0.0197 C.ar    1  LIG1        0.0416
      5 C           0.5807   -1.1470   -0.0020 C.ar    1  LIG1        0.0229
      6 C           1.9680   -1.0078   -0.0478 C.ar    1  LIG1        0.1193
      7 C           2.5580    0.3363   -0.0381 C.2     1  LIG1        0.2125
      8 O           3.7833    0.4908   -0.0370 O.2     1  LIG1       -0.2850
      9 C           1.6652    1.5108   -0.0243 C.ar    1  LIG1        0.0351
     10 C           2.3255    2.7608   -0.0251 C.ar    1  LIG1       -0.0501
     11 C           1.6021    3.9338   -0.0156 C.ar    1  LIG1       -0.0576
     12 C           0.2201    3.8505   -0.0115 C.ar    1  LIG1       -0.0195
     13 N           2.8684   -2.0306   -0.0809 N.ar    1  LIG1       -0.2511
     14 C           2.3904   -3.2798   -0.0708 C.ar    1  LIG1        0.0290
     15 C           1.0446   -3.5649   -0.0207 C.ar    1  LIG1       -0.0357
     16 C           0.1368   -2.5053    0.0295 C.ar    1  LIG1       -0.0100
     17 C          -1.2131   -2.7983    0.1254 C.ar    1  LIG1       -0.0083
     18 C          -2.0849   -1.7432    0.1510 C.ar    1  LIG1        0.1674
     19 C          -1.6806   -0.4157    0.0755 C.ar    1  LIG1        0.1747
     20 O          -2.7906    0.3889    0.0669 O.3     1  LIG1       -0.4520
     21 C          -3.8699   -0.5752   -0.0163 C.3     1  LIG1        0.2333
     22 O          -3.4320   -1.9098    0.2449 O.3     1  LIG1       -0.4526
     23 H          -2.2261    1.8859    0.0220 H       1  LIG1        0.2922
     24 H           3.4141    2.8092   -0.0308 H       1  LIG1        0.0625
     25 H           2.1118    4.8937   -0.0124 H       1  LIG1        0.0619
     26 H          -0.3605    4.7716   -0.0069 H       1  LIG1        0.0654
     27 H           3.1369   -4.0674   -0.0957 H       1  LIG1        0.0830
     28 H           0.7177   -4.6000   -0.0153 H       1  LIG1        0.0639
     29 H          -1.5875   -3.8158    0.1726 H       1  LIG1        0.0661
     30 H          -4.2934   -0.5538   -1.0284 H       1  LIG1        0.1166
     31 H          -4.6568   -0.3106    0.6983 H       1  LIG1        0.1166
@<TRIPOS>BOND
     1     1     2    1
     2     2     3   ar
     3     3     4    1
     4     4     5   ar
     5     5     6   ar
     6     6     7    1
     7     7     8    2
     8     7     9    1
     9     3     9   ar
    10     9    10   ar
    11    10    11   ar
    12    11    12   ar
    13     2    12   ar
    14     6    13   ar
    15    13    14   ar
    16    14    15   ar
    17    15    16   ar
    18     5    16   ar
    19    16    17   ar
    20    17    18   ar
    21    18    19   ar
    22     4    19   ar
    23    19    20    1
    24    20    21    1
    25    21    22    1
    26    18    22    1
    27     1    23    1
    28    10    24    1
    29    11    25    1
    30    12    26    1
    31    14    27    1
    32    15    28    1
    33    17    29    1
    34    21    30    1
    35    21    31    1
