REMARK  Name = NuBBE_1664
REMARK  12 active torsions:
REMARK  status: ('A' for Active; 'I' for Inactive)
REMARK    1  A    between atoms: C_6  and  O_12
REMARK    2  A    between atoms: C_7  and  O_10
REMARK    3  A    between atoms: C_8  and  O_9
REMARK    4  A    between atoms: O_10  and  C_11
REMARK    5  A    between atoms: O_12  and  C_13
REMARK    6  A    between atoms: C_16  and  C_18
REMARK    7  A    between atoms: C_18  and  O_19
REMARK    8  A    between atoms: C_20  and  O_28
REMARK    9  A    between atoms: C_22  and  O_27
REMARK   10  A    between atoms: C_24  and  O_26
REMARK   11  A    between atoms: C_31  and  C_32
REMARK   12  A    between atoms: C_35  and  O_38
REMARK                            x       y       z     vdW  Elec       q    Type
REMARK                         _______ _______ _______ _____ _____    ______ ____
ROOT
ATOM      1  O   LIG A   1      -2.690  -3.498   0.677  0.00  0.00    -0.286 OA
ATOM      2  C   LIG A   1      -1.582  -2.993   0.464  0.00  0.00    +0.204 A 
ATOM      3  C   LIG A   1      -1.421  -1.532   0.487  0.00  0.00    +0.110 A 
ATOM      4  C   LIG A   1      -0.142  -1.004   0.408  0.00  0.00    +0.146 A 
ATOM      5  C   LIG A   1       0.051   0.375   0.383  0.00  0.00    +0.096 A 
ATOM      6  C   LIG A   1      -1.043   1.250   0.418  0.00  0.00    +0.173 A 
ATOM      7  C   LIG A   1      -2.356   0.724   0.553  0.00  0.00    +0.204 A 
ATOM      8  C   LIG A   1      -2.532  -0.672   0.560  0.00  0.00    +0.177 A 
ATOM      9  O   LIG A   1       0.976  -1.796   0.336  0.00  0.00    -0.462 OA
ATOM     10  C   LIG A   1       0.791  -3.146   0.142  0.00  0.00    +0.208 A 
ATOM     11  C   LIG A   1      -0.383  -3.800   0.167  0.00  0.00    +0.064 A 
ENDROOT
BRANCH  11  12
ATOM     12  C   LIG A   1      -0.452  -5.247  -0.088  0.00  0.00    -0.011 A 
ATOM     13  C   LIG A   1      -0.342  -6.162   0.968  0.00  0.00    +0.012 A 
ATOM     14  C   LIG A   1      -0.399  -7.540   0.726  0.00  0.00    +0.046 A 
ATOM     15  C   LIG A   1      -0.569  -8.003  -0.574  0.00  0.00    +0.117 A 
ATOM     16  C   LIG A   1      -0.682  -7.112  -1.634  0.00  0.00    +0.046 A 
ATOM     17  C   LIG A   1      -0.621  -5.735  -1.394  0.00  0.00    +0.012 A 
BRANCH  15  18
ATOM     18  O   LIG A   1      -0.626  -9.337  -0.852  0.00  0.00    -0.507 OA
ATOM     19  H   LIG A   1      -0.515  -9.834  -0.024  0.00  0.00    +0.292 HD
ENDBRANCH  15  18
ENDBRANCH  11  12
BRANCH   8  20
ATOM     20  O   LIG A   1      -3.794  -1.213   0.582  0.00  0.00    -0.503 OA
ATOM     21  H   LIG A   1      -3.736  -2.190   0.667  0.00  0.00    +0.292 HD
ENDBRANCH   8  20
BRANCH   7  22
ATOM     22  O   LIG A   1      -3.391   1.634   0.592  0.00  0.00    -0.488 OA
ATOM     23  C   LIG A   1      -4.548   1.266   1.347  0.00  0.00    +0.277 C 
ENDBRANCH   7  22
BRANCH   6  24
ATOM     24  O   LIG A   1      -0.883   2.618   0.378  0.00  0.00    -0.457 OA
BRANCH  24  25
ATOM     25  C   LIG A   1       0.274   3.140  -0.322  0.00  0.00    +0.339 C 
ATOM     26  O   LIG A   1       1.442   3.074   0.518  0.00  0.00    -0.331 OA
ATOM     27  C   LIG A   1       2.611   3.659  -0.068  0.00  0.00    +0.179 C 
ATOM     28  C   LIG A   1       2.388   5.164  -0.276  0.00  0.00    +0.177 C 
ATOM     29  C   LIG A   1       1.201   5.333  -1.223  0.00  0.00    +0.180 C 
ATOM     30  C   LIG A   1      -0.042   4.604  -0.710  0.00  0.00    +0.214 C 
BRANCH  30  31
ATOM     31  O   LIG A   1      -1.040   4.659  -1.744  0.00  0.00    -0.383 OA
ATOM     32  H   LIG A   1      -1.105   5.604  -1.986  0.00  0.00    +0.210 HD
ENDBRANCH  30  31
BRANCH  29  33
ATOM     33  O   LIG A   1       0.899   6.729  -1.389  0.00  0.00    -0.386 OA
ATOM     34  H   LIG A   1       1.770   7.158  -1.526  0.00  0.00    +0.210 HD
ENDBRANCH  29  33
BRANCH  28  35
ATOM     35  O   LIG A   1       3.506   5.841  -0.859  0.00  0.00    -0.387 OA
ATOM     36  H   LIG A   1       4.310   5.509  -0.400  0.00  0.00    +0.210 HD
ENDBRANCH  28  35
BRANCH  27  37
ATOM     37  C   LIG A   1       3.803   3.371   0.856  0.00  0.00    +0.190 C 
BRANCH  37  38
ATOM     38  O   LIG A   1       5.005   3.933   0.335  0.00  0.00    -0.392 OA
ATOM     39  H   LIG A   1       5.745   3.458   0.758  0.00  0.00    +0.209 HD
ENDBRANCH  37  38
ENDBRANCH  27  37
ENDBRANCH  24  25
ENDBRANCH   6  24
TORSDOF 11
