REMARK  Name = NuBBE_1861
REMARK  11 active torsions:
REMARK  status: ('A' for Active; 'I' for Inactive)
REMARK    1  A    between atoms: O_1  and  C_2
REMARK    2  A    between atoms: C_7  and  C_8
REMARK    3  A    between atoms: C_8  and  C_9
REMARK    4  A    between atoms: C_9  and  C_10
REMARK    5  A    between atoms: C_10  and  C_11
REMARK    6  A    between atoms: C_11  and  C_12
REMARK    7  A    between atoms: C_12  and  O_14
REMARK    8  A    between atoms: C_12  and  C_15
REMARK    9  A    between atoms: C_15  and  C_16
REMARK   10  A    between atoms: C_16  and  C_17
REMARK   11  A    between atoms: C_20  and  O_21
REMARK                            x       y       z     vdW  Elec       q    Type
REMARK                         _______ _______ _______ _____ _____    ______ ____
ROOT
ATOM      1  C   LIG A   1       2.046  -2.486   0.313  0.00  0.00    +0.115 C 
ENDROOT
BRANCH   1   2
ATOM      2  O   LIG A   1       2.059  -3.778  -0.291  0.00  0.00    -0.392 OA
ATOM      3  H   LIG A   1       2.063  -4.436   0.426  0.00  0.00    +0.210 HD
ENDBRANCH   1   2
BRANCH   1   4
ATOM      4  C   LIG A   1       2.568  -1.462  -0.709  0.00  0.00    +0.031 C 
BRANCH   4   5
ATOM      5  C   LIG A   1       1.720  -1.349  -1.983  0.00  0.00    +0.003 C 
BRANCH   5   6
ATOM      6  C   LIG A   1       2.220  -0.275  -2.963  0.00  0.00    +0.005 C 
BRANCH   6   7
ATOM      7  C   LIG A   1       2.190   1.164  -2.423  0.00  0.00    +0.035 C 
BRANCH   7  13
ATOM      8  C   LIG A   1      -1.602   2.848  -1.226  0.00  0.00    +0.117 A 
ATOM      9  C   LIG A   1      -0.429   3.265  -0.615  0.00  0.00    +0.045 A 
ATOM     10  C   LIG A   1       0.791   2.700  -0.996  0.00  0.00    +0.007 A 
ATOM     11  C   LIG A   1      -1.577   1.863  -2.207  0.00  0.00    +0.045 A 
ATOM     12  C   LIG A   1      -0.357   1.302  -2.588  0.00  0.00    +0.007 A 
ATOM     13  C   LIG A   1       0.843   1.704  -1.988  0.00  0.00    -0.047 A 
BRANCH   8  14
ATOM     14  O   LIG A   1      -2.814   3.373  -0.890  0.00  0.00    -0.507 OA
ATOM     15  H   LIG A   1      -2.670   4.071  -0.231  0.00  0.00    +0.292 HD
ENDBRANCH   8  14
ENDBRANCH   7  13
ENDBRANCH   6   7
ENDBRANCH   5   6
ENDBRANCH   4   5
ENDBRANCH   1   4
BRANCH   1  16
ATOM     16  C   LIG A   1       0.640  -2.196   0.860  0.00  0.00    +0.036 C 
BRANCH  16  17
ATOM     17  C   LIG A   1       0.543  -0.842   1.566  0.00  0.00    +0.037 C 
BRANCH  17  18
ATOM     18  C   LIG A   1      -0.827  -0.589   2.143  0.00  0.00    -0.047 A 
ATOM     19  C   LIG A   1      -1.823   0.017   1.364  0.00  0.00    +0.007 A 
ATOM     20  C   LIG A   1      -3.086   0.275   1.900  0.00  0.00    +0.045 A 
ATOM     21  C   LIG A   1      -3.354  -0.080   3.216  0.00  0.00    +0.117 A 
ATOM     22  C   LIG A   1      -2.386  -0.702   3.998  0.00  0.00    +0.045 A 
ATOM     23  C   LIG A   1      -1.123  -0.957   3.461  0.00  0.00    +0.007 A 
BRANCH  21  24
ATOM     24  O   LIG A   1      -4.565   0.173   3.788  0.00  0.00    -0.507 OA
ATOM     25  H   LIG A   1      -5.100   0.680   3.155  0.00  0.00    +0.292 HD
ENDBRANCH  21  24
ENDBRANCH  17  18
ENDBRANCH  16  17
ENDBRANCH   1  16
TORSDOF 11
