@<TRIPOS>MOLECULE
NuBBE_298
 29 30 0 0 0
SMALL
GASTEIGER

@<TRIPOS>ATOM
      1 C          -2.4463   -2.0759   -2.1996 C.3     1  LIG1        0.0788
      2 O          -1.1535   -2.4652   -1.7471 O.3     1  LIG1       -0.4946
      3 C          -0.5137   -1.5806   -0.9170 C.ar    1  LIG1        0.1300
      4 C           0.3842   -2.1327    0.0176 C.ar    1  LIG1        0.0335
      5 C           0.5576   -3.6282    0.1028 C.3     1  LIG1       -0.0327
      6 C           1.1184   -1.2627    0.8483 C.ar    1  LIG1        0.1376
      7 O           2.0152   -1.7741    1.7461 O.3     1  LIG1       -0.5055
      8 C           0.9286    0.1268    0.7863 C.ar    1  LIG1        0.1057
      9 C           1.6647    1.0841    1.6442 C.ar    1  LIG1        0.1964
     10 C           1.3075    2.5048    1.4956 C.ar    1  LIG1        0.0263
     11 C           0.4138    2.8809    0.5719 C.ar    1  LIG1        0.1345
     12 C           0.0516    4.3223    0.3557 C.3     1  LIG1        0.1020
     13 O          -1.3342    4.5226    0.5985 O.3     1  LIG1       -0.3873
     14 O          -0.2269    1.9962   -0.2798 O.2     1  LIG1       -0.4569
     15 C           0.0242    0.6504   -0.1383 C.ar    1  LIG1        0.1459
     16 C          -0.6818   -0.1954   -0.9975 C.ar    1  LIG1        0.0236
     17 O           2.5453    0.7810    2.4398 O.2     1  LIG1       -0.2869
     18 H          -2.9287   -2.9602   -2.6271 H       1  LIG1        0.0660
     19 H          -2.3726   -1.3229   -2.9899 H       1  LIG1        0.0660
     20 H          -3.0712   -1.7210   -1.3727 H       1  LIG1        0.0660
     21 H          -0.3450   -4.1633   -0.2095 H       1  LIG1        0.0280
     22 H           0.7475   -3.9465    1.1332 H       1  LIG1        0.0280
     23 H           1.3923   -3.9435   -0.5304 H       1  LIG1        0.0280
     24 H           2.3882   -2.6038    1.4108 H       1  LIG1        0.2922
     25 H           1.8132    3.2007    2.1534 H       1  LIG1        0.0690
     26 H           0.2722    4.6198   -0.6746 H       1  LIG1        0.0638
     27 H           0.6080    4.9890    1.0225 H       1  LIG1        0.0638
     28 H          -1.8128    3.8473    0.0880 H       1  LIG1        0.2100
     29 H          -1.3458    0.2500   -1.7313 H       1  LIG1        0.0691
@<TRIPOS>BOND
     1     1     2    1
     2     2     3    1
     3     3     4   ar
     4     4     5    1
     5     4     6   ar
     6     6     7    1
     7     6     8   ar
     8     8     9   ar
     9     9    10   ar
    10    10    11   ar
    11    11    12    1
    12    12    13    1
    13    11    14   ar
    14    14    15   ar
    15     8    15   ar
    16    15    16   ar
    17     3    16   ar
    18     9    17    2
    19     1    18    1
    20     1    19    1
    21     1    20    1
    22     5    21    1
    23     5    22    1
    24     5    23    1
    25     7    24    1
    26    10    25    1
    27    12    26    1
    28    12    27    1
    29    13    28    1
    30    16    29    1
