REMARK  Name = NuBBE_2130
REMARK  8 active torsions:
REMARK  status: ('A' for Active; 'I' for Inactive)
REMARK    1  A    between atoms: C_1  and  C_2
REMARK    2  A    between atoms: C_2  and  C_3
REMARK    3  A    between atoms: C_3  and  C_4
REMARK    4  A    between atoms: C_4  and  C_5
REMARK    5  A    between atoms: C_5  and  C_6
REMARK    6  A    between atoms: C_6  and  C_7
REMARK    7  A    between atoms: C_7  and  C_8
REMARK    8  A    between atoms: C_8  and  C_9
REMARK                            x       y       z     vdW  Elec       q    Type
REMARK                         _______ _______ _______ _____ _____    ______ ____
ROOT
ATOM      1  C   LIG A   1       0.582  -0.432  -0.487  0.00  0.00    +0.000 C 
ENDROOT
BRANCH   1   2
ATOM      2  C   LIG A   1       0.090   0.821   0.238  0.00  0.00    +0.000 C 
BRANCH   2   3
ATOM      3  C   LIG A   1      -1.409   1.040   0.022  0.00  0.00    -0.000 C 
BRANCH   3   4
ATOM      4  C   LIG A   1      -1.893   2.293   0.752  0.00  0.00    -0.000 C 
BRANCH   4   5
ATOM      5  C   LIG A   1      -3.398   2.503   0.579  0.00  0.00    -0.000 C 
BRANCH   5   7
ATOM      6  C   LIG A   1      -5.361   3.983   1.155  0.00  0.00    +0.004 C 
ATOM      7  C   LIG A   1      -3.865   3.760   1.313  0.00  0.00    -0.003 C 
ENDBRANCH   5   7
ENDBRANCH   4   5
ENDBRANCH   3   4
ENDBRANCH   2   3
ENDBRANCH   1   2
BRANCH   1   8
ATOM      8  C   LIG A   1       2.068  -0.684  -0.217  0.00  0.00    +0.003 C 
BRANCH   8   9
ATOM      9  C   LIG A   1       2.598  -1.914  -0.957  0.00  0.00    -0.011 C 
ATOM     10  C   LIG A   1       4.078  -2.174  -0.681  0.00  0.00    +0.003 C 
ATOM     11  C   LIG A   1       4.262  -3.606  -1.155  0.00  0.00    +0.000 C 
ATOM     12  C   LIG A   1       2.986  -4.318  -0.720  0.00  0.00    +0.000 C 
ATOM     13  C   LIG A   1       1.925  -3.229  -0.554  0.00  0.00    +0.003 C 
ENDBRANCH   8   9
ENDBRANCH   1   8
TORSDOF 7
