@<TRIPOS>MOLECULE
NuBBE_2019
 36 38 0 0 0
SMALL
GASTEIGER

@<TRIPOS>ATOM
      1 O          -1.9644   -0.7883    0.2818 O.2     1  LIG1       -0.2864
      2 C          -0.7374   -0.7531    0.2082 C.ar    1  LIG1        0.2003
      3 C           0.0135   -2.0141    0.1686 C.ar    1  LIG1        0.0684
      4 C          -0.6735   -3.2297    0.1716 C.ar    1  LIG1       -0.0437
      5 C           0.0408   -4.4216    0.1402 C.ar    1  LIG1       -0.0156
      6 C           1.4401   -4.4003    0.1042 C.ar    1  LIG1        0.1622
      7 O           2.0892   -5.6037    0.0784 O.3     1  LIG1       -0.5032
      8 C           2.1430   -3.1838    0.0965 C.ar    1  LIG1        0.2046
      9 O           3.5024   -3.0071    0.0585 O.3     1  LIG1       -0.4885
     10 C           4.3382   -4.1519   -0.0017 C.3     1  LIG1        0.0791
     11 C           1.4048   -1.9858    0.1310 C.ar    1  LIG1        0.1834
     12 O           2.0979   -0.7981    0.1268 O.2     1  LIG1       -0.4583
     13 C           1.3829    0.3741    0.1184 C.ar    1  LIG1        0.1040
     14 C           0.0470    0.5148    0.1576 C.ar    1  LIG1        0.0643
     15 C          -0.5929    1.8508    0.1143 C.ar    1  LIG1       -0.0110
     16 C           0.0198    2.9869    0.6659 C.ar    1  LIG1       -0.0504
     17 C          -0.6009    4.2400    0.6050 C.ar    1  LIG1       -0.0194
     18 C          -1.8525    4.3860    0.0085 C.ar    1  LIG1        0.1201
     19 O          -2.3548    5.6573    0.0084 O.3     1  LIG1       -0.4951
     20 C          -3.6195    5.8315   -0.6203 C.3     1  LIG1        0.0788
     21 C          -2.4805    3.2658   -0.5256 C.ar    1  LIG1       -0.0194
     22 C          -1.8517    2.0184   -0.4803 C.ar    1  LIG1       -0.0504
     23 H          -1.7613   -3.2461    0.1993 H       1  LIG1        0.0627
     24 H          -0.5112   -5.3573    0.1457 H       1  LIG1        0.0655
     25 H           1.4373   -6.3236    0.0922 H       1  LIG1        0.2923
     26 H           5.3743   -3.8028   -0.0503 H       1  LIG1        0.0660
     27 H           4.1528   -4.7336   -0.9102 H       1  LIG1        0.0660
     28 H           4.2445   -4.7579    0.9048 H       1  LIG1        0.0660
     29 H           2.0835    1.1986    0.0619 H       1  LIG1        0.1037
     30 H           0.9865    2.9221    1.1596 H       1  LIG1        0.0625
     31 H          -0.1029    5.1074    1.0315 H       1  LIG1        0.0654
     32 H          -3.8749    6.8936   -0.5742 H       1  LIG1        0.0660
     33 H          -4.4001    5.2754   -0.0899 H       1  LIG1        0.0660
     34 H          -3.5793    5.5444   -1.6769 H       1  LIG1        0.0660
     35 H          -3.4610    3.3154   -0.9865 H       1  LIG1        0.0654
     36 H          -2.3800    1.1762   -0.9227 H       1  LIG1        0.0625
@<TRIPOS>BOND
     1     1     2    2
     2     2     3   ar
     3     3     4   ar
     4     4     5   ar
     5     5     6   ar
     6     6     7    1
     7     6     8   ar
     8     8     9    1
     9     9    10    1
    10     8    11   ar
    11     3    11   ar
    12    11    12   ar
    13    12    13   ar
    14    13    14   ar
    15     2    14   ar
    16    14    15    1
    17    15    16   ar
    18    16    17   ar
    19    17    18   ar
    20    18    19    1
    21    19    20    1
    22    18    21   ar
    23    21    22   ar
    24    15    22   ar
    25     4    23    1
    26     5    24    1
    27     7    25    1
    28    10    26    1
    29    10    27    1
    30    10    28    1
    31    13    29    1
    32    16    30    1
    33    17    31    1
    34    20    32    1
    35    20    33    1
    36    20    34    1
    37    21    35    1
    38    22    36    1
