@<TRIPOS>MOLECULE
NuBBE_2318
 53 55 0 0 0
SMALL
GASTEIGER

@<TRIPOS>ATOM
      1 C           2.2118   -1.5826   -2.8719 C.2     1  LIG1        0.2150
      2 O           2.4849   -2.5968   -3.5059 O.2     1  LIG1       -0.2869
      3 C           0.8404   -0.8745   -3.0122 C.3     1  LIG1        0.2406
      4 C           0.9226    0.6473   -2.8103 C.3     1  LIG1        0.0463
      5 C          -0.5860    0.9428   -2.6128 C.3     1  LIG1        0.0190
      6 H          -1.0715    0.9043   -3.5995 H       1  LIG1        0.0354
      7 C          -1.0675   -0.2973   -1.8311 C.3     1  LIG1        0.1665
      8 H          -2.0311   -0.6391   -2.2285 H       1  LIG1        0.0914
      9 O          -1.2069   -0.0107   -0.4451 O.3     1  LIG1       -0.3463
     10 C          -1.6532   -1.1488    0.2862 C.3     1  LIG1        0.0758
     11 C          -1.8092   -0.7806    1.7386 C.ar    1  LIG1       -0.0181
     12 C          -0.7144   -0.2976    2.4688 C.ar    1  LIG1       -0.0109
     13 C          -0.8160   -0.0193    3.8390 C.ar    1  LIG1        0.1618
     14 C          -2.0456   -0.2001    4.4927 C.ar    1  LIG1        0.1615
     15 C          -3.1489   -0.6528    3.7567 C.ar    1  LIG1       -0.0160
     16 C          -3.0296   -0.9514    2.3965 C.ar    1  LIG1       -0.0527
     17 O          -2.1504    0.1530    5.8121 O.3     1  LIG1       -0.4915
     18 C          -3.0712   -0.6039    6.5895 C.3     1  LIG1        0.0790
     19 O           0.3532    0.4434    4.3889 O.3     1  LIG1       -0.4914
     20 C           0.5798    0.1176    5.7546 C.3     1  LIG1        0.0790
     21 O          -0.0916   -1.3310   -2.0350 O.3     1  LIG1       -0.3123
     22 C          -0.9444    2.2942   -2.0022 C.3     1  LIG1       -0.0571
     23 C           1.7249    0.9706   -1.5162 C.3     1  LIG1       -0.0226
     24 C           2.9821    0.1685   -1.3442 C.2     1  LIG1       -0.0798
     25 C           3.2207   -0.9960   -1.9554 C.2     1  LIG1       -0.0176
     26 C           1.4952    1.4221   -4.0345 C.3     1  LIG1       -0.0233
     27 C           2.9211    1.1146   -4.4169 C.2     1  LIG1       -0.0904
     28 C           3.2871    0.1976   -5.3223 C.2     1  LIG1       -0.1026
     29 O           0.2792   -1.2140   -4.2793 O.3     1  LIG1       -0.3581
     30 H          -0.9200   -1.9605    0.2150 H       1  LIG1        0.0611
     31 H          -2.6061   -1.5022   -0.1248 H       1  LIG1        0.0611
     32 H           0.2395   -0.1459    1.9666 H       1  LIG1        0.0659
     33 H          -4.1265   -0.7595    4.2154 H       1  LIG1        0.0655
     34 H          -3.9034   -1.3077    1.8556 H       1  LIG1        0.0622
     35 H          -2.8566   -0.4043    7.6438 H       1  LIG1        0.0660
     36 H          -2.9517   -1.6801    6.4221 H       1  LIG1        0.0660
     37 H          -4.0997   -0.2854    6.3957 H       1  LIG1        0.0660
     38 H           1.6413    0.2824    5.9636 H       1  LIG1        0.0660
     39 H           0.3611   -0.9357    5.9633 H       1  LIG1        0.0660
     40 H           0.0224    0.7854    6.4168 H       1  LIG1        0.0660
     41 H          -0.4585    3.1103   -2.5456 H       1  LIG1        0.0234
     42 H          -0.6524    2.3768   -0.9510 H       1  LIG1        0.0234
     43 H          -2.0260    2.4596   -2.0567 H       1  LIG1        0.0234
     44 H           1.1305    0.7978   -0.6132 H       1  LIG1        0.0315
     45 H           1.9771    2.0382   -1.5044 H       1  LIG1        0.0315
     46 H           3.7339    0.5773   -0.6722 H       1  LIG1        0.0573
     47 H           4.1484   -1.5426   -1.8416 H       1  LIG1        0.0651
     48 H           1.4569    2.4991   -3.8219 H       1  LIG1        0.0315
     49 H           0.8501    1.2833   -4.9114 H       1  LIG1        0.0315
     50 H           3.7019    1.6813   -3.9115 H       1  LIG1        0.0566
     51 H           2.5606   -0.4153   -5.8486 H       1  LIG1        0.0532
     52 H           4.3368    0.0032   -5.5253 H       1  LIG1        0.0532
     53 H           0.5748   -2.1350   -4.4298 H       1  LIG1        0.2132
@<TRIPOS>BOND
     1     1     2    2
     2     1     3    1
     3     3     4    1
     4     4     5    1
     5     5     6    1
     6     5     7    1
     7     7     8    1
     8     7     9    1
     9     9    10    1
    10    10    11    1
    11    11    12   ar
    12    12    13   ar
    13    13    14   ar
    14    14    15   ar
    15    15    16   ar
    16    11    16   ar
    17    14    17    1
    18    17    18    1
    19    13    19    1
    20    19    20    1
    21     7    21    1
    22     3    21    1
    23     5    22    1
    24     4    23    1
    25    23    24    1
    26    24    25    2
    27     1    25    1
    28     4    26    1
    29    26    27    1
    30    27    28    2
    31     3    29    1
    32    10    30    1
    33    10    31    1
    34    12    32    1
    35    15    33    1
    36    16    34    1
    37    18    35    1
    38    18    36    1
    39    18    37    1
    40    20    38    1
    41    20    39    1
    42    20    40    1
    43    22    41    1
    44    22    42    1
    45    22    43    1
    46    23    44    1
    47    23    45    1
    48    24    46    1
    49    25    47    1
    50    26    48    1
    51    26    49    1
    52    27    50    1
    53    28    51    1
    54    28    52    1
    55    29    53    1
