@<TRIPOS>MOLECULE
NuBBE_2043
 54 56 0 0 0
SMALL
GASTEIGER

@<TRIPOS>ATOM
      1 O          -0.7708    1.6722    3.0487 O.3     1  LIG1       -0.3647
      2 C          -0.3759    1.1257    4.2966 C.3     1  LIG1        0.0381
      3 C           0.1134    1.4599    1.9690 C.3     1  LIG1        0.1491
      4 C           0.4219   -0.0245    1.6192 C.3     1  LIG1        0.0038
      5 H          -0.4621   -0.6017    1.9157 H       1  LIG1        0.0340
      6 C           1.6245   -0.6329    2.3528 C.3     1  LIG1       -0.0585
      7 C           0.6440   -0.0879    0.0546 C.3     1  LIG1        0.0070
      8 H           1.6631   -0.4374   -0.1684 H       1  LIG1        0.0364
      9 C           0.4789    1.3854   -0.4121 C.3     1  LIG1        0.0903
     10 H           0.0736    1.5825   -1.4077 H       1  LIG1        0.0466
     11 C          -0.4715    1.9035    0.6374 C.2     1  LIG1        0.1801
     12 O          -1.4484    2.5764    0.4121 O.2     1  LIG1       -0.2932
     13 C           1.8042    2.1021   -0.2894 C.2     1  LIG1        0.1702
     14 O           2.6040    2.1401   -1.2250 O.2     1  LIG1       -0.2916
     15 C           2.1420    2.6736    1.0501 C.2     1  LIG1       -0.0013
     16 C           1.3336    2.3529    2.0819 C.2     1  LIG1       -0.0383
     17 C           3.3782    3.5101    1.2030 C.3     1  LIG1       -0.0066
     18 C           3.0766    4.9035    1.6857 C.2     1  LIG1       -0.0867
     19 C           4.0305    5.8082    1.9400 C.2     1  LIG1       -0.1023
     20 C          -0.2950   -1.0652   -0.6507 C.ar    1  LIG1       -0.0357
     21 C          -0.7522   -2.2440   -0.0544 C.ar    1  LIG1       -0.0126
     22 C          -1.6794   -3.0939   -0.6897 C.ar    1  LIG1        0.1654
     23 O          -2.0001   -4.1578    0.1160 O.3     1  LIG1       -0.4913
     24 C          -2.9452   -5.1177   -0.3255 C.3     1  LIG1        0.0790
     25 C          -2.1471   -2.7838   -1.9825 C.ar    1  LIG1        0.2035
     26 C          -1.6753   -1.6132   -2.6044 C.ar    1  LIG1        0.1654
     27 C          -0.7284   -0.8135   -1.9549 C.ar    1  LIG1       -0.0126
     28 O          -2.2353   -1.2083   -3.7942 O.3     1  LIG1       -0.4913
     29 C          -1.4112   -0.4098   -4.6426 C.3     1  LIG1        0.0790
     30 O          -3.0803   -3.6142   -2.5417 O.3     1  LIG1       -0.4885
     31 C          -3.0656   -3.8045   -3.9530 C.3     1  LIG1        0.0791
     32 H          -1.0660    1.4839    5.0636 H       1  LIG1        0.0524
     33 H           0.6320    1.4473    4.5755 H       1  LIG1        0.0524
     34 H          -0.4316    0.0346    4.2790 H       1  LIG1        0.0524
     35 H           2.5630   -0.1419    2.0776 H       1  LIG1        0.0234
     36 H           1.7237   -1.6942    2.1037 H       1  LIG1        0.0234
     37 H           1.5225   -0.5644    3.4379 H       1  LIG1        0.0234
     38 H           1.5662    2.7506    3.0647 H       1  LIG1        0.0609
     39 H           3.9390    3.5646    0.2643 H       1  LIG1        0.0356
     40 H           4.0270    3.0086    1.9331 H       1  LIG1        0.0356
     41 H           2.0378    5.1914    1.8415 H       1  LIG1        0.0570
     42 H           5.0824    5.5810    1.7974 H       1  LIG1        0.0532
     43 H           3.7718    6.8020    2.2926 H       1  LIG1        0.0532
     44 H          -0.4179   -2.5333    0.9410 H       1  LIG1        0.0658
     45 H          -2.7036   -5.5145   -1.3139 H       1  LIG1        0.0660
     46 H          -3.9623   -4.7156   -0.2752 H       1  LIG1        0.0660
     47 H          -2.8895   -5.9672    0.3630 H       1  LIG1        0.0660
     48 H          -0.3531    0.0546   -2.4758 H       1  LIG1        0.0658
     49 H          -1.9088   -0.3287   -5.6124 H       1  LIG1        0.0660
     50 H          -0.4360   -0.8842   -4.8000 H       1  LIG1        0.0660
     51 H          -1.2950    0.6084   -4.2551 H       1  LIG1        0.0660
     52 H          -3.0803   -4.8816   -4.1472 H       1  LIG1        0.0660
     53 H          -2.1853   -3.4132   -4.4714 H       1  LIG1        0.0660
     54 H          -3.9807   -3.3743   -4.3705 H       1  LIG1        0.0660
@<TRIPOS>BOND
     1     1     2    1
     2     1     3    1
     3     3     4    1
     4     4     7    1
     5     7     8    1
     6     7     9    1
     7     9    10    1
     8     9    11    1
     9     3    11    1
    10    11    12    2
    11     9    13    1
    12    13    14    2
    13    13    15    1
    14    15    16    2
    15     3    16    1
    16    15    17    1
    17    17    18    1
    18    18    19    2
    19     7    20    1
    20    20    21   ar
    21    21    22   ar
    22    22    23    1
    23    23    24    1
    24    22    25   ar
    25    25    26   ar
    26    26    27   ar
    27    20    27   ar
    28    26    28    1
    29    28    29    1
    30    25    30    1
    31    30    31    1
    32     4     6    1
    33     4     5    1
    34     2    32    1
    35     2    33    1
    36     2    34    1
    37     6    35    1
    38     6    36    1
    39     6    37    1
    40    16    38    1
    41    17    39    1
    42    17    40    1
    43    18    41    1
    44    19    42    1
    45    19    43    1
    46    21    44    1
    47    24    45    1
    48    24    46    1
    49    24    47    1
    50    27    48    1
    51    29    49    1
    52    29    50    1
    53    29    51    1
    54    31    52    1
    55    31    53    1
    56    31    54    1
