@<TRIPOS>MOLECULE
NuBBE_2506
 61 64 0 0 0
SMALL
GASTEIGER

@<TRIPOS>ATOM
      1 C          -5.1828   -1.6318   -2.2666 C.3     1  LIG1        0.0336
      2 C          -4.2063   -0.7461   -1.5205 C.2     1  LIG1        0.3093
      3 O          -4.3396    0.4412   -1.3414 O.2     1  LIG1       -0.2507
      4 O          -3.1299   -1.5347   -1.0851 O.3     1  LIG1       -0.4220
      5 C          -1.8495   -1.2606   -0.4637 C.ar    1  LIG1        0.1774
      6 C          -1.4165   -2.3370    0.3555 C.ar    1  LIG1        0.0016
      7 C          -2.2781   -3.5684    0.6376 C.3     1  LIG1       -0.0179
      8 C          -2.0069   -4.6931   -0.3679 C.3     1  LIG1       -0.0585
      9 C          -2.0982   -4.1314    2.0584 C.3     1  LIG1       -0.0585
     10 C          -0.1241   -2.2708    0.8687 C.ar    1  LIG1       -0.0487
     11 C           0.6836   -1.1606    0.6295 C.ar    1  LIG1       -0.0111
     12 C           0.2690   -0.0445   -0.1545 C.ar    1  LIG1        0.0129
     13 C          -1.0083   -0.1330   -0.7696 C.ar    1  LIG1        0.1781
     14 O          -1.4315    0.8542   -1.6924 O.3     1  LIG1       -0.4219
     15 C          -1.8358    0.3671   -2.9377 C.2     1  LIG1        0.3093
     16 C          -2.5010    1.4089   -3.7969 C.3     1  LIG1        0.0336
     17 O          -1.7200   -0.7943   -3.3255 O.2     1  LIG1       -0.2507
     18 C           1.4397    1.0159   -0.1756 C.3     1  LIG1        0.0264
     19 C           1.2419    2.2898   -1.0204 C.3     1  LIG1       -0.0408
     20 C           2.2307    3.4291   -0.7091 C.3     1  LIG1       -0.0517
     21 C           2.2258    3.7955    0.7709 C.3     1  LIG1       -0.0476
     22 C           2.6570    2.6145    1.6603 C.3     1  LIG1       -0.0311
     23 C           2.4661    3.0405    3.1385 C.3     1  LIG1       -0.0595
     24 C           4.1708    2.3619    1.4646 C.3     1  LIG1       -0.0595
     25 C           1.7260    1.3868    1.3535 C.3     1  LIG1       -0.0213
     26 C           2.1356    0.1157    2.1434 C.3     1  LIG1       -0.0182
     27 C           2.0770   -1.0869    1.2135 C.3     1  LIG1        0.0843
     28 H           2.3471   -2.0032    1.7487 H       1  LIG1        0.0646
     29 O           3.0299   -0.8852    0.1620 O.3     1  LIG1       -0.3711
     30 C           2.6456    0.1832   -0.7246 C.3     1  LIG1        0.0584
     31 H          -5.8228   -1.0097   -2.8989 H       1  LIG1        0.0342
     32 H          -5.8049   -2.1936   -1.5669 H       1  LIG1        0.0342
     33 H          -4.6453   -2.3192   -2.9263 H       1  LIG1        0.0342
     34 H          -3.3349   -3.2850    0.5613 H       1  LIG1        0.0345
     35 H          -0.9650   -5.0309   -0.3223 H       1  LIG1        0.0235
     36 H          -2.2145   -4.3777   -1.3950 H       1  LIG1        0.0235
     37 H          -2.6425   -5.5602   -0.1508 H       1  LIG1        0.0235
     38 H          -1.1009   -4.5605    2.2087 H       1  LIG1        0.0235
     39 H          -2.8158   -4.9381    2.2445 H       1  LIG1        0.0235
     40 H          -2.2535   -3.3571    2.8164 H       1  LIG1        0.0235
     41 H           0.2831   -3.0863    1.4588 H       1  LIG1        0.0625
     42 H          -1.8530    2.2694   -3.9605 H       1  LIG1        0.0342
     43 H          -3.4730    1.7161   -3.4019 H       1  LIG1        0.0342
     44 H          -2.6922    0.9468   -4.7750 H       1  LIG1        0.0342
     45 H           0.2356    2.6868   -0.8550 H       1  LIG1        0.0275
     46 H           1.3203    2.0531   -2.0885 H       1  LIG1        0.0275
     47 H           3.2460    3.1730   -1.0338 H       1  LIG1        0.0266
     48 H           1.9522    4.3192   -1.2863 H       1  LIG1        0.0266
     49 H           1.2168    4.1255    1.0515 H       1  LIG1        0.0271
     50 H           2.8836    4.6587    0.9425 H       1  LIG1        0.0271
     51 H           1.4143    3.2560    3.3572 H       1  LIG1        0.0235
     52 H           2.7963    2.2594    3.8322 H       1  LIG1        0.0235
     53 H           3.0405    3.9458    3.3681 H       1  LIG1        0.0235
     54 H           4.7396    3.2872    1.6225 H       1  LIG1        0.0235
     55 H           4.4209    2.0151    0.4633 H       1  LIG1        0.0235
     56 H           4.5734    1.6332    2.1740 H       1  LIG1        0.0235
     57 H           0.7392    1.6780    1.7501 H       1  LIG1        0.0316
     58 H           1.4590   -0.0186    2.9970 H       1  LIG1        0.0297
     59 H           3.1448    0.1860    2.5560 H       1  LIG1        0.0297
     60 H           2.3972   -0.2796   -1.6883 H       1  LIG1        0.0569
     61 H           3.5379    0.7844   -0.9081 H       1  LIG1        0.0569
@<TRIPOS>BOND
     1     1     2    1
     2     2     3    2
     3     2     4    1
     4     4     5    1
     5     5     6   ar
     6     6     7    1
     7     7     8    1
     8     7     9    1
     9     6    10   ar
    10    10    11   ar
    11    11    12   ar
    12    12    13   ar
    13     5    13   ar
    14    13    14    1
    15    14    15    1
    16    15    16    1
    17    15    17    2
    18    12    18    1
    19    18    19    1
    20    19    20    1
    21    20    21    1
    22    21    22    1
    23    22    23    1
    24    22    24    1
    25    22    25    1
    26    18    25    1
    27    25    26    1
    28    26    27    1
    29    27    28    1
    30    11    27    1
    31    27    29    1
    32    29    30    1
    33    18    30    1
    34     1    31    1
    35     1    32    1
    36     1    33    1
    37     7    34    1
    38     8    35    1
    39     8    36    1
    40     8    37    1
    41     9    38    1
    42     9    39    1
    43     9    40    1
    44    10    41    1
    45    16    42    1
    46    16    43    1
    47    16    44    1
    48    19    45    1
    49    19    46    1
    50    20    47    1
    51    20    48    1
    52    21    49    1
    53    21    50    1
    54    23    51    1
    55    23    52    1
    56    23    53    1
    57    24    54    1
    58    24    55    1
    59    24    56    1
    60    25    57    1
    61    26    58    1
    62    26    59    1
    63    30    60    1
    64    30    61    1
