@<TRIPOS>MOLECULE
NuBBE_1915
 26 28 0 0 0
SMALL
GASTEIGER

@<TRIPOS>ATOM
      1 C          -1.9990   -1.0622   -0.3345 C.3     1  LIG1       -0.0585
      2 C          -0.5758   -0.6609   -0.1907 C.3     1  LIG1       -0.0205
      3 C          -0.1712    0.7586    0.2052 C.3     1  LIG1       -0.0261
      4 C          -0.6746    1.1657    1.5950 C.3     1  LIG1       -0.0590
      5 C          -0.6274    1.8119   -0.8120 C.3     1  LIG1       -0.0590
      6 C           1.3903    0.4700    0.1559 C.3     1  LIG1       -0.0348
      7 C           1.5369   -0.8067    1.0541 C.3     1  LIG1       -0.0461
      8 C           0.4636   -1.6054    0.3463 C.3     1  LIG1       -0.0312
      9 C           0.4926   -1.2133   -1.0920 C.3     1  LIG1       -0.0312
     10 C           1.5894   -0.1851   -1.2526 C.3     1  LIG1       -0.0461
     11 H          -2.5663   -0.8177    0.5688 H       1  LIG1        0.0235
     12 H          -2.0979   -2.1391   -0.5070 H       1  LIG1        0.0235
     13 H          -2.4619   -0.5438   -1.1800 H       1  LIG1        0.0235
     14 H          -1.7536    1.3592    1.5759 H       1  LIG1        0.0235
     15 H          -0.1775    2.0808    1.9343 H       1  LIG1        0.0235
     16 H          -0.5233    0.3936    2.3540 H       1  LIG1        0.0235
     17 H          -1.7079    1.9819   -0.7358 H       1  LIG1        0.0235
     18 H          -0.4440    1.5186   -1.8493 H       1  LIG1        0.0235
     19 H          -0.1240    2.7679   -0.6330 H       1  LIG1        0.0235
     20 H           2.0516    1.3030    0.3970 H       1  LIG1        0.0306
     21 H           1.3176   -0.6361    2.1095 H       1  LIG1        0.0271
     22 H           2.5224   -1.2739    0.9573 H       1  LIG1        0.0271
     23 H           0.2502   -2.6072    0.6681 H       1  LIG1        0.0309
     24 H           0.2991   -1.9083   -1.8875 H       1  LIG1        0.0309
     25 H           1.4165    0.4993   -2.0853 H       1  LIG1        0.0271
     26 H           2.5743   -0.6507   -1.3616 H       1  LIG1        0.0271
@<TRIPOS>BOND
     1     1     2    1
     2     2     3    1
     3     3     4    1
     4     3     5    1
     5     3     6    1
     6     6     7    1
     7     7     8    1
     8     2     8    1
     9     8     9    1
    10     2     9    1
    11     9    10    1
    12     6    10    1
    13     1    11    1
    14     1    12    1
    15     1    13    1
    16     4    14    1
    17     4    15    1
    18     4    16    1
    19     5    17    1
    20     5    18    1
    21     5    19    1
    22     6    20    1
    23     7    21    1
    24     7    22    1
    25     8    23    1
    26     9    24    1
    27    10    25    1
    28    10    26    1
