@<TRIPOS>MOLECULE
NuBBE_1691
 57 57 0 0 0
SMALL
GASTEIGER

@<TRIPOS>ATOM
      1 C          -2.3336    0.8144   -6.3271 C.3     1  LIG1       -0.0650
      2 C          -1.0734    1.2387   -5.5850 C.3     1  LIG1       -0.0525
      3 C          -1.1903    2.6750   -5.0772 C.3     1  LIG1       -0.0350
      4 C           0.0157    3.1057   -4.2920 C.2     1  LIG1       -0.0876
      5 C           0.3010    3.0775   -2.9758 C.2     1  LIG1       -0.0842
      6 C          -0.4030    2.6025   -1.7208 C.3     1  LIG1       -0.0165
      7 C          -1.8940    2.6349   -1.7032 C.2     1  LIG1       -0.0842
      8 C          -2.7541    2.4046   -0.6895 C.2     1  LIG1       -0.0876
      9 C          -2.5904    2.0442    0.7618 C.3     1  LIG1       -0.0348
     10 C          -1.2016    1.8074    1.3517 C.3     1  LIG1       -0.0496
     11 C          -1.3065    1.4307    2.8423 C.3     1  LIG1       -0.0528
     12 C           0.0416    1.1561    3.5253 C.3     1  LIG1       -0.0530
     13 C           0.7542   -0.0493    2.9147 C.3     1  LIG1       -0.0528
     14 C           2.0819   -0.3936    3.5835 C.3     1  LIG1       -0.0490
     15 C           2.8838   -1.4288    2.7827 C.3     1  LIG1       -0.0268
     16 C           2.3350   -2.8383    2.7022 C.ar    1  LIG1       -0.0299
     17 C           2.6169   -3.7373    3.7467 C.ar    1  LIG1       -0.0576
     18 C           2.2996   -5.0949    3.6326 C.ar    1  LIG1       -0.0580
     19 C           1.6971   -5.5842    2.4746 C.ar    1  LIG1       -0.0193
     20 C           1.3572   -4.7001    1.4512 C.ar    1  LIG1        0.1311
     21 O           0.7714   -5.1793    0.3126 O.3     1  LIG1       -0.5059
     22 C           1.6421   -3.3325    1.5752 C.ar    1  LIG1        0.1032
     23 C           1.2152   -2.4313    0.4944 C.2     1  LIG1        0.3406
     24 O          -0.0542   -2.0352    0.7071 O.3     1  LIG1       -0.4770
     25 O           1.8968   -1.9985   -0.4145 O.2     1  LIG1       -0.2450
     26 H          -2.2558   -0.2299   -6.6448 H       1  LIG1        0.0230
     27 H          -2.4908    1.4305   -7.2183 H       1  LIG1        0.0230
     28 H          -3.2166    0.9081   -5.6862 H       1  LIG1        0.0230
     29 H          -0.2121    1.1452   -6.2577 H       1  LIG1        0.0266
     30 H          -0.9062    0.5538   -4.7458 H       1  LIG1        0.0266
     31 H          -2.1186    2.8025   -4.5246 H       1  LIG1        0.0307
     32 H          -1.2859    3.3516   -5.9371 H       1  LIG1        0.0307
     33 H           0.8063    3.5014   -4.9349 H       1  LIG1        0.0569
     34 H           1.3032    3.4443   -2.7343 H       1  LIG1        0.0572
     35 H          -0.0467    3.2551   -0.9124 H       1  LIG1        0.0350
     36 H          -0.0450    1.5901   -1.5067 H       1  LIG1        0.0350
     37 H          -2.3790    2.9177   -2.6263 H       1  LIG1        0.0572
     38 H          -3.8056    2.5033   -0.9561 H       1  LIG1        0.0569
     39 H          -3.1893    1.1378    0.9278 H       1  LIG1        0.0307
     40 H          -3.0804    2.8402    1.3385 H       1  LIG1        0.0307
     41 H          -0.5873    2.7114    1.2549 H       1  LIG1        0.0268
     42 H          -0.7133    1.0066    0.7912 H       1  LIG1        0.0268
     43 H          -1.9458    0.5448    2.9496 H       1  LIG1        0.0265
     44 H          -1.8071    2.2434    3.3828 H       1  LIG1        0.0265
     45 H          -0.1391    0.9666    4.5919 H       1  LIG1        0.0265
     46 H           0.6762    2.0475    3.4636 H       1  LIG1        0.0265
     47 H           0.9519    0.1578    1.8586 H       1  LIG1        0.0265
     48 H           0.0882   -0.9156    2.9791 H       1  LIG1        0.0265
     49 H           1.9151   -0.7368    4.6104 H       1  LIG1        0.0268
     50 H           2.6897    0.5191    3.6459 H       1  LIG1        0.0268
     51 H           3.8859   -1.4969    3.2333 H       1  LIG1        0.0313
     52 H           3.0730   -1.0454    1.7748 H       1  LIG1        0.0313
     53 H           3.1223   -3.3896    4.6452 H       1  LIG1        0.0621
     54 H           2.5522   -5.7784    4.4404 H       1  LIG1        0.0619
     55 H           1.4974   -6.6477    2.3891 H       1  LIG1        0.0654
     56 H           0.7830   -6.1505    0.3291 H       1  LIG1        0.2922
     57 H          -0.2281   -1.3762    0.0053 H       1  LIG1        0.2954
@<TRIPOS>BOND
     1     1     2    1
     2     2     3    1
     3     3     4    1
     4     4     5    2
     5     5     6    1
     6     6     7    1
     7     7     8    2
     8     8     9    1
     9     9    10    1
    10    10    11    1
    11    11    12    1
    12    12    13    1
    13    13    14    1
    14    14    15    1
    15    15    16    1
    16    16    17   ar
    17    17    18   ar
    18    18    19   ar
    19    19    20   ar
    20    20    21    1
    21    20    22   ar
    22    16    22   ar
    23    22    23    1
    24    23    24    1
    25    23    25    2
    26     1    26    1
    27     1    27    1
    28     1    28    1
    29     2    29    1
    30     2    30    1
    31     3    31    1
    32     3    32    1
    33     4    33    1
    34     5    34    1
    35     6    35    1
    36     6    36    1
    37     7    37    1
    38     8    38    1
    39     9    39    1
    40     9    40    1
    41    10    41    1
    42    10    42    1
    43    11    43    1
    44    11    44    1
    45    12    45    1
    46    12    46    1
    47    13    47    1
    48    13    48    1
    49    14    49    1
    50    14    50    1
    51    15    51    1
    52    15    52    1
    53    17    53    1
    54    18    54    1
    55    19    55    1
    56    21    56    1
    57    24    57    1
