@<TRIPOS>MOLECULE
NuBBE_1108
 55 56 0 0 0
SMALL
GASTEIGER

@<TRIPOS>ATOM
      1 C          -2.7407   -1.4453    1.5033 C.3     1  LIG1       -0.0438
      2 C          -1.4217   -0.7727    1.2286 C.2     1  LIG1       -0.0761
      3 C          -0.5775   -0.5065    2.4612 C.3     1  LIG1       -0.0296
      4 C           0.3587   -1.6743    2.7970 C.3     1  LIG1       -0.0205
      5 C           1.2146   -1.3788    4.0425 C.3     1  LIG1        0.0836
      6 O           0.3246   -1.1823    5.1487 O.3     1  LIG1       -0.3890
      7 C           2.2366   -2.5049    4.3843 C.3     1  LIG1        0.0862
      8 O           1.5220   -3.7311    4.6092 O.3     1  LIG1       -0.3866
      9 C           3.2575   -2.7015    3.2576 C.3     1  LIG1       -0.0339
     10 C           2.9790   -2.2049    5.6933 C.3     1  LIG1       -0.0339
     11 C          -0.9891   -0.3772    0.0133 C.2     1  LIG1       -0.0804
     12 C          -1.7274   -0.4771   -1.2999 C.3     1  LIG1       -0.0006
     13 C          -1.3467    0.6456   -2.2525 C.ar    1  LIG1        0.0629
     14 C          -0.3626    0.6651   -3.1834 C.ar    1  LIG1        0.1378
     15 O           0.4873   -0.3579   -3.5420 O.3     1  LIG1       -0.4940
     16 C           0.0655   -1.7082   -3.4666 C.3     1  LIG1        0.0788
     17 C          -0.0334    1.9327   -3.8857 C.ar    1  LIG1        0.0406
     18 C          -0.7331    3.1094   -3.5862 C.ar    1  LIG1        0.0552
     19 N          -1.8238    3.0506   -2.6789 N.ar    1  LIG1       -0.3107
     20 C          -2.6130    4.2457   -2.4184 C.3     1  LIG1        0.0153
     21 C          -2.1984    1.8724   -2.0579 C.ar    1  LIG1        0.2585
     22 O          -3.2041    1.8023   -1.3394 O.2     1  LIG1       -0.2673
     23 C          -0.3541    4.3185   -4.2014 C.ar    1  LIG1       -0.0374
     24 C           0.6899    4.3631   -5.1256 C.ar    1  LIG1       -0.0598
     25 C           1.3654    3.1973   -5.4530 C.ar    1  LIG1       -0.0610
     26 C           1.0085    1.9953   -4.8370 C.ar    1  LIG1       -0.0491
     27 H          -3.3667   -0.8018    2.1304 H       1  LIG1        0.0274
     28 H          -2.5804   -2.3890    2.0360 H       1  LIG1        0.0274
     29 H          -3.3056   -1.6825    0.5987 H       1  LIG1        0.0274
     30 H          -1.2420   -0.2890    3.3062 H       1  LIG1        0.0311
     31 H           0.0182    0.4030    2.3097 H       1  LIG1        0.0311
     32 H           1.0048   -1.8659    1.9335 H       1  LIG1        0.0294
     33 H          -0.2428   -2.5758    2.9657 H       1  LIG1        0.0294
     34 H           1.7552   -0.4361    3.8956 H       1  LIG1        0.0622
     35 H           0.0551   -2.0744    5.4410 H       1  LIG1        0.2099
     36 H           1.4387   -4.1999    3.7608 H       1  LIG1        0.2102
     37 H           2.7935   -3.1194    2.3584 H       1  LIG1        0.0258
     38 H           4.0348   -3.4152    3.5524 H       1  LIG1        0.0258
     39 H           3.7422   -1.7558    2.9930 H       1  LIG1        0.0258
     40 H           2.2879   -2.1221    6.5394 H       1  LIG1        0.0258
     41 H           3.5623   -1.2814    5.6252 H       1  LIG1        0.0258
     42 H           3.6611   -3.0262    5.9461 H       1  LIG1        0.0258
     43 H           0.0027    0.0709   -0.0514 H       1  LIG1        0.0575
     44 H          -2.8120   -0.4835   -1.1472 H       1  LIG1        0.0358
     45 H          -1.5284   -1.4645   -1.7070 H       1  LIG1        0.0358
     46 H          -1.0064   -1.8208   -3.6558 H       1  LIG1        0.0660
     47 H           0.3617   -2.1310   -2.5018 H       1  LIG1        0.0660
     48 H           0.5823   -2.2736   -4.2470 H       1  LIG1        0.0660
     49 H          -3.0029    4.6437   -3.3607 H       1  LIG1        0.0457
     50 H          -1.9835    4.9885   -1.9184 H       1  LIG1        0.0457
     51 H          -3.4690    4.0436   -1.7685 H       1  LIG1        0.0457
     52 H          -0.8566    5.2541   -3.9755 H       1  LIG1        0.0638
     53 H           0.9692    5.3070   -5.5873 H       1  LIG1        0.0618
     54 H           2.1755    3.2211   -6.1777 H       1  LIG1        0.0618
     55 H           1.5675    1.1009   -5.1049 H       1  LIG1        0.0625
@<TRIPOS>BOND
     1     1     2    1
     2     2     3    1
     3     3     4    1
     4     4     5    1
     5     5     6    1
     6     5     7    1
     7     7     8    1
     8     7     9    1
     9     7    10    1
    10     2    11    2
    11    11    12    1
    12    12    13    1
    13    13    14   ar
    14    14    15    1
    15    15    16    1
    16    14    17   ar
    17    17    18   ar
    18    18    19   ar
    19    19    20    1
    20    19    21   ar
    21    13    21   ar
    22    21    22    2
    23    18    23   ar
    24    23    24   ar
    25    24    25   ar
    26    25    26   ar
    27    17    26   ar
    28     1    27    1
    29     1    28    1
    30     1    29    1
    31     3    30    1
    32     3    31    1
    33     4    32    1
    34     4    33    1
    35     5    34    1
    36     6    35    1
    37     8    36    1
    38     9    37    1
    39     9    38    1
    40     9    39    1
    41    10    40    1
    42    10    41    1
    43    10    42    1
    44    11    43    1
    45    12    44    1
    46    12    45    1
    47    16    46    1
    48    16    47    1
    49    16    48    1
    50    20    49    1
    51    20    50    1
    52    20    51    1
    53    23    52    1
    54    24    53    1
    55    25    54    1
    56    26    55    1
