@<TRIPOS>MOLECULE
NuBBE_1503
 47 47 0 0 0
SMALL
GASTEIGER

@<TRIPOS>ATOM
      1 C           1.2944   -0.6188   -0.9432 C.3     1  LIG1       -0.0209
      2 C           0.0924   -1.4499   -1.3770 C.3     1  LIG1        0.0099
      3 C          -0.9249   -0.5453   -2.0462 C.2     1  LIG1        0.1361
      4 O          -0.9080   -0.3486   -3.2687 O.2     1  LIG1       -0.2973
      5 C          -1.9574    0.0983   -1.1412 C.3     1  LIG1        0.0319
      6 C          -2.4526    1.4623   -1.6296 C.3     1  LIG1        0.0619
      7 H          -1.6066    2.1505   -1.7441 H       1  LIG1        0.0597
      8 C          -3.4912    2.0884   -0.6767 C.3     1  LIG1       -0.0265
      9 C          -2.9896    2.2436    0.7604 C.3     1  LIG1       -0.0507
     10 C          -4.0324    2.8882    1.6749 C.3     1  LIG1       -0.0532
     11 C          -3.5344    3.0413    3.1156 C.3     1  LIG1       -0.0559
     12 C          -2.2875    3.9077    3.2219 C.3     1  LIG1       -0.0653
     13 O          -3.0809    1.3357   -2.9054 O.3     1  LIG1       -0.3914
     14 C           2.3575   -1.4365   -0.2513 C.ar    1  LIG1       -0.0433
     15 C           3.3739   -2.0542   -1.0036 C.ar    1  LIG1       -0.0131
     16 C           4.3689   -2.7996   -0.3683 C.ar    1  LIG1        0.1615
     17 O           5.4226   -3.4179   -0.9911 O.3     1  LIG1       -0.4915
     18 C           5.1697   -3.8707   -2.3173 C.3     1  LIG1        0.0790
     19 C           4.3498   -2.9080    1.0249 C.ar    1  LIG1        0.1585
     20 C           3.3494   -2.3165    1.7837 C.ar    1  LIG1       -0.0163
     21 C           2.3506   -1.5810    1.1451 C.ar    1  LIG1       -0.0549
     22 O           5.3216   -3.6194    1.6745 O.3     1  LIG1       -0.5033
     23 H           0.9758    0.1948   -0.2787 H       1  LIG1        0.0317
     24 H           1.7332   -0.1185   -1.8163 H       1  LIG1        0.0317
     25 H          -0.3872   -1.9480   -0.5253 H       1  LIG1        0.0345
     26 H           0.3808   -2.2409   -2.0792 H       1  LIG1        0.0345
     27 H          -1.4746    0.2221   -0.1675 H       1  LIG1        0.0367
     28 H          -2.7873   -0.6090   -1.0379 H       1  LIG1        0.0367
     29 H          -4.4140    1.4936   -0.6896 H       1  LIG1        0.0290
     30 H          -3.7781    3.0738   -1.0690 H       1  LIG1        0.0290
     31 H          -2.0749    2.8459    0.7457 H       1  LIG1        0.0266
     32 H          -2.7345    1.2660    1.1820 H       1  LIG1        0.0266
     33 H          -4.9418    2.2743    1.6829 H       1  LIG1        0.0265
     34 H          -4.3170    3.8717    1.2827 H       1  LIG1        0.0265
     35 H          -3.3287    2.0554    3.5502 H       1  LIG1        0.0263
     36 H          -4.3338    3.4907    3.7162 H       1  LIG1        0.0263
     37 H          -1.3932    3.3364    2.9521 H       1  LIG1        0.0230
     38 H          -2.1550    4.2635    4.2479 H       1  LIG1        0.0230
     39 H          -2.3506    4.7796    2.5629 H       1  LIG1        0.0230
     40 H          -2.4404    0.8876   -3.4985 H       1  LIG1        0.2098
     41 H           3.3840   -1.9122   -2.0797 H       1  LIG1        0.0658
     42 H           6.0574   -4.4145   -2.6554 H       1  LIG1        0.0660
     43 H           5.0151   -3.0375   -3.0087 H       1  LIG1        0.0660
     44 H           4.3227   -4.5648   -2.3374 H       1  LIG1        0.0660
     45 H           3.3532   -2.4256    2.8642 H       1  LIG1        0.0655
     46 H           1.5791   -1.1102    1.7502 H       1  LIG1        0.0621
     47 H           5.9245   -3.9237    0.9686 H       1  LIG1        0.2923
@<TRIPOS>BOND
     1     1     2    1
     2     2     3    1
     3     3     4    2
     4     3     5    1
     5     6     8    1
     6     8     9    1
     7     9    10    1
     8    10    11    1
     9    11    12    1
    10     6    13    1
    11     1    14    1
    12    14    15   ar
    13    15    16   ar
    14    16    17    1
    15    17    18    1
    16    16    19   ar
    17    19    20   ar
    18    20    21   ar
    19    14    21   ar
    20    19    22    1
    21     6     7    1
    22     6     5    1
    23     1    23    1
    24     1    24    1
    25     2    25    1
    26     2    26    1
    27     5    27    1
    28     5    28    1
    29     8    29    1
    30     8    30    1
    31     9    31    1
    32     9    32    1
    33    10    33    1
    34    10    34    1
    35    11    35    1
    36    11    36    1
    37    12    37    1
    38    12    38    1
    39    12    39    1
    40    13    40    1
    41    15    41    1
    42    18    42    1
    43    18    43    1
    44    18    44    1
    45    20    45    1
    46    21    46    1
    47    22    47    1
