REMARK  Name = NuBBE_67
REMARK  7 active torsions:
REMARK  status: ('A' for Active; 'I' for Inactive)
REMARK    1  A    between atoms: O_1  and  C_2
REMARK    2  A    between atoms: C_3  and  O_22
REMARK    3  A    between atoms: C_5  and  C_6
REMARK    4  A    between atoms: C_10  and  O_18
REMARK    5  A    between atoms: C_12  and  O_16
REMARK    6  A    between atoms: O_16  and  C_17
REMARK    7  A    between atoms: O_22  and  C_23
REMARK                            x       y       z     vdW  Elec       q    Type
REMARK                         _______ _______ _______ _____ _____    ______ ____
ROOT
ATOM      1  C   LIG A   1      -0.703  -0.828  -0.727  0.00  0.00    +0.211 C 
ATOM      2  C   LIG A   1      -0.128  -2.109  -0.138  0.00  0.00    +0.129 C 
ATOM      3  C   LIG A   1       1.302  -2.230  -0.572  0.00  0.00    +0.174 C 
ATOM      4  C   LIG A   1       2.062  -0.978  -0.708  0.00  0.00    +0.101 A 
ATOM      5  C   LIG A   1       3.438  -0.986  -0.941  0.00  0.00    +0.134 A 
ATOM      6  C   LIG A   1       4.147   0.210  -1.001  0.00  0.00    +0.092 A 
ATOM      7  C   LIG A   1       3.488   1.427  -0.820  0.00  0.00    +0.127 A 
ATOM      8  C   LIG A   1       2.107   1.436  -0.589  0.00  0.00    +0.092 A 
ATOM      9  C   LIG A   1       1.393   0.235  -0.548  0.00  0.00    +0.139 A 
ATOM     10  O   LIG A   1       0.049   0.327  -0.311  0.00  0.00    -0.483 OA
ATOM     11  O   LIG A   1       1.865  -3.310  -0.738  0.00  0.00    -0.292 OA
ENDROOT
BRANCH   1  15
ATOM     12  C   LIG A   1      -4.800  -0.321   0.517  0.00  0.00    +0.159 A 
ATOM     13  C   LIG A   1      -3.781   0.222   1.304  0.00  0.00    +0.162 A 
ATOM     14  C   LIG A   1      -2.457   0.047   0.903  0.00  0.00    +0.056 A 
ATOM     15  C   LIG A   1      -2.147  -0.646  -0.285  0.00  0.00    -0.003 A 
ATOM     16  C   LIG A   1      -3.194  -1.191  -1.047  0.00  0.00    +0.011 A 
ATOM     17  C   LIG A   1      -4.520  -1.026  -0.647  0.00  0.00    +0.049 A 
BRANCH  12  18
ATOM     18  O   LIG A   1      -6.110  -0.164   0.880  0.00  0.00    -0.503 OA
ATOM     19  H   LIG A   1      -6.080   0.357   1.706  0.00  0.00    +0.292 HD
ENDBRANCH  12  18
BRANCH  13  20
ATOM     20  O   LIG A   1      -4.200   0.897   2.423  0.00  0.00    -0.491 OA
ATOM     21  C   LIG A   1      -3.179   1.487   3.223  0.00  0.00    +0.277 C 
ENDBRANCH  13  20
ENDBRANCH   1  15
BRANCH   7  22
ATOM     22  O   LIG A   1       4.090   2.658  -0.845  0.00  0.00    -0.495 OA
ATOM     23  C   LIG A   1       5.494   2.658  -1.093  0.00  0.00    +0.277 C 
ENDBRANCH   7  22
BRANCH   5  24
ATOM     24  O   LIG A   1       4.165  -2.133  -1.105  0.00  0.00    -0.506 OA
ATOM     25  H   LIG A   1       3.551  -2.900  -1.027  0.00  0.00    +0.292 HD
ENDBRANCH   5  24
TORSDOF 5
