REMARK  Name = NuBBE_1071
REMARK  12 active torsions:
REMARK  status: ('A' for Active; 'I' for Inactive)
REMARK    1  A    between atoms: C_1  and  C_2
REMARK    2  A    between atoms: C_8  and  C_9
REMARK    3  A    between atoms: C_13  and  C_14
REMARK    4  A    between atoms: C_13  and  C_15
REMARK    5  A    between atoms: C_21  and  C_36
REMARK    6  A    between atoms: C_22  and  C_23
REMARK    7  A    between atoms: C_23  and  C_25
REMARK    8  A    between atoms: C_23  and  C_27
REMARK    9  A    between atoms: C_27  and  C_28
REMARK   10  A    between atoms: C_28  and  C_29
REMARK   11  A    between atoms: C_30  and  C_31
REMARK   12  A    between atoms: C_30  and  C_32
REMARK                            x       y       z     vdW  Elec       q    Type
REMARK                         _______ _______ _______ _____ _____    ______ ____
ROOT
ATOM      1  C   LIG A   1      -3.286  -0.456  -0.408  0.00  0.00    +0.016 C 
ATOM      2  C   LIG A   1      -1.837   0.061  -0.264  0.00  0.00    -0.005 C 
ATOM      3  C   LIG A   1      -0.934  -0.980  -0.982  0.00  0.00    -0.063 C 
ATOM      4  C   LIG A   1      -0.545  -0.876  -2.269  0.00  0.00    -0.026 C 
ATOM      5  C   LIG A   1       0.023  -2.009  -3.077  0.00  0.00    +0.032 C 
ATOM      6  C   LIG A   1      -0.322  -3.370  -2.441  0.00  0.00    +0.012 C 
ATOM      7  C   LIG A   1       0.165  -3.379  -0.951  0.00  0.00    -0.021 C 
ATOM      8  C   LIG A   1       1.688  -3.146  -0.815  0.00  0.00    +0.012 C 
ATOM      9  C   LIG A   1      -0.201  -4.749  -0.321  0.00  0.00    +0.015 C 
ATOM     10  C   LIG A   1       0.306  -5.939  -1.115  0.00  0.00    +0.075 C 
ATOM     11  C   LIG A   1      -0.216  -5.895  -2.531  0.00  0.00    +0.139 C 
ATOM     12  C   LIG A   1       0.024  -4.609  -3.336  0.00  0.00    +0.027 C 
ATOM     13  C   LIG A   1       1.458  -4.661  -3.885  0.00  0.00    +0.019 C 
ATOM     14  C   LIG A   1      -0.929  -4.621  -4.560  0.00  0.00    +0.019 C 
ATOM     15  O   LIG A   1      -0.720  -6.903  -3.032  0.00  0.00    -0.297 OA
ATOM     16  C   LIG A   1      -0.646  -2.249  -0.181  0.00  0.00    +0.021 C 
ATOM     17  C   LIG A   1      -0.013  -1.838   1.158  0.00  0.00    +0.009 C 
ATOM     18  C   LIG A   1      -0.950  -0.938   1.960  0.00  0.00    +0.008 C 
ATOM     19  C   LIG A   1      -1.396   0.356   1.230  0.00  0.00    -0.019 C 
ATOM     20  C   LIG A   1      -0.224   1.416   1.060  0.00  0.00    +0.006 C 
ATOM     21  C   LIG A   1      -0.490   2.082  -0.313  0.00  0.00    +0.005 C 
ATOM     22  C   LIG A   1      -1.769   1.477  -0.866  0.00  0.00    +0.012 C 
ATOM     23  C   LIG A   1      -2.563   0.942   2.071  0.00  0.00    +0.012 C 
ENDROOT
BRANCH  20  24
ATOM     24  C   LIG A   1      -0.021   2.485   2.182  0.00  0.00    +0.056 C 
BRANCH  24  25
ATOM     25  C   LIG A   1       0.293   1.822   3.509  0.00  0.00    +0.227 C 
ATOM     26  O   LIG A   1      -0.141   2.241   4.587  0.00  0.00    -0.301 OA
ENDBRANCH  24  25
BRANCH  24  27
ATOM     27  C   LIG A   1       1.131   3.478   1.879  0.00  0.00    +0.015 C 
BRANCH  27  28
ATOM     28  C   LIG A   1       1.252   4.587   2.938  0.00  0.00    +0.028 C 
BRANCH  28  29
ATOM     29  C   LIG A   1       2.354   5.558   2.611  0.00  0.00    -0.028 C 
ATOM     30  C   LIG A   1       2.231   6.882   2.394  0.00  0.00    -0.080 C 
ATOM     31  C   LIG A   1       0.931   7.639   2.398  0.00  0.00    +0.038 C 
ATOM     32  C   LIG A   1       3.445   7.736   2.132  0.00  0.00    +0.038 C 
ENDBRANCH  28  29
ENDBRANCH  27  28
ENDBRANCH  24  27
ENDBRANCH  20  24
TORSDOF 5
