@<TRIPOS>MOLECULE
NuBBE_428
 99 103 0 0 0
SMALL
GASTEIGER

@<TRIPOS>ATOM
      1 O           3.9743    1.6493   -1.4937 O.3     1  LIG1       -0.3876
      2 C           2.5718    1.4991   -1.2122 C.3     1  LIG1        0.1019
      3 H           2.2075    2.5311   -1.2175 H       1  LIG1        0.0635
      4 C           1.9404    0.7489   -2.4357 C.3     1  LIG1        0.0604
      5 H           2.4128    1.0798   -3.3672 H       1  LIG1        0.0393
      6 C           1.9669   -0.7902   -2.2759 C.3     1  LIG1        0.1436
      7 H           1.4249   -1.2607   -3.0889 H       1  LIG1        0.0769
      8 O           3.2212   -1.4732   -2.3543 O.3     1  LIG1       -0.4580
      9 C           3.7430   -1.5798   -3.6181 C.2     1  LIG1        0.3043
     10 C           4.6465   -2.7744   -3.7584 C.3     1  LIG1        0.0332
     11 O           3.4477   -0.8531   -4.5612 O.2     1  LIG1       -0.2512
     12 C           1.0623   -0.9039   -1.0009 C.3     1  LIG1        0.1548
     13 C           0.1512   -2.1814   -0.8560 C.3     1  LIG1        0.1367
     14 C          -0.7041   -2.4931   -2.0930 C.3     1  LIG1       -0.0295
     15 O           0.9728   -3.3356   -0.6558 O.3     1  LIG1       -0.3820
     16 C          -0.8355   -2.0092    0.3498 C.3     1  LIG1        0.1742
     17 H          -1.5663   -2.8274    0.3462 H       1  LIG1        0.0803
     18 O          -1.5358   -0.7451    0.3004 O.3     1  LIG1       -0.4542
     19 C          -2.8880   -0.7600    0.1560 C.2     1  LIG1        0.3110
     20 C          -3.3072    0.4078   -0.7328 C.3     1  LIG1        0.0616
     21 C          -4.0484    1.5417   -0.0113 C.3     1  LIG1        0.0119
     22 C          -4.4696    2.6501   -0.9695 C.ar    1  LIG1        0.0588
     23 N          -5.8288    2.7718   -1.0508 N.ar    1  LIG1       -0.2588
     24 C          -6.3560    3.7081   -1.8663 C.ar    1  LIG1        0.0279
     25 C          -5.5914    4.5604   -2.6352 C.ar    1  LIG1       -0.0428
     26 C          -4.2076    4.4424   -2.5602 C.ar    1  LIG1       -0.0446
     27 C          -3.6197    3.4687   -1.7288 C.ar    1  LIG1        0.0805
     28 C          -3.3633    2.1247    1.2264 C.3     1  LIG1       -0.0562
     29 C          -4.1315   -0.1710   -1.8947 C.3     1  LIG1       -0.0517
     30 O          -3.6267   -1.6370    0.5542 O.2     1  LIG1       -0.2505
     31 C          -0.0521   -2.1150    1.6379 C.3     1  LIG1        0.1799
     32 H           0.3679   -3.1282    1.6787 H       1  LIG1        0.0811
     33 O          -0.9857   -1.9783    2.7512 O.3     1  LIG1       -0.4539
     34 C          -1.5217   -3.1450    3.2103 C.2     1  LIG1        0.3044
     35 C          -2.6330   -2.9129    4.1880 C.3     1  LIG1        0.0332
     36 O          -1.1637   -4.2686    2.8589 O.2     1  LIG1       -0.2512
     37 C           1.1874   -1.1732    1.7243 C.3     1  LIG1        0.1584
     38 H           1.9306   -1.9042    2.0591 H       1  LIG1        0.0782
     39 O           1.0257   -0.3276    2.8867 O.3     1  LIG1       -0.4567
     40 C           1.2663   -0.9428    4.0836 C.2     1  LIG1        0.3043
     41 C           0.7571   -0.0623    5.2286 C.3     1  LIG1        0.0332
     42 O           1.7969   -2.0228    4.2629 O.2     1  LIG1       -0.2512
     43 O           0.0775    0.1996   -1.2614 O.3     1  LIG1       -0.3558
     44 C           0.4152    0.9550   -2.4533 C.3     1  LIG1        0.1104
     45 C          -0.2652    0.3943   -3.7419 C.3     1  LIG1       -0.0321
     46 C          -0.1195    2.4179   -2.3319 C.3     1  LIG1        0.1219
     47 O          -1.5783    2.4623   -2.3295 O.3     1  LIG1       -0.4582
     48 C          -2.1464    3.4935   -1.6738 C.2     1  LIG1        0.3410
     49 O          -1.5357    4.4452   -1.1683 O.2     1  LIG1       -0.2449
     50 C           1.9100   -0.5941    0.3502 C.3     1  LIG1        0.1197
     51 C           3.3129   -1.3562    0.3570 C.3     1  LIG1        0.1080
     52 O           4.0940   -1.0425    1.5431 O.3     1  LIG1       -0.4639
     53 C           4.5464   -2.0476    2.3188 C.2     1  LIG1        0.3040
     54 C           5.5608   -1.5768    3.3031 C.3     1  LIG1        0.0332
     55 O           4.1892   -3.2392    2.2048 O.2     1  LIG1       -0.2512
     56 C           2.3910    0.9138    0.2621 C.3     1  LIG1        0.1443
     57 H           3.4074    0.9998    0.6664 H       1  LIG1        0.0769
     58 O           1.5762    1.7986    1.0561 O.3     1  LIG1       -0.4580
     59 C           2.0347    1.9755    2.3505 C.2     1  LIG1        0.3043
     60 C           0.9856    2.6782    3.1645 C.3     1  LIG1        0.0332
     61 O           3.0764    1.5665    2.8125 O.2     1  LIG1       -0.2512
     62 H           4.3307    2.2827   -0.8381 H       1  LIG1        0.2100
     63 H           4.2690   -3.6050   -3.1556 H       1  LIG1        0.0342
     64 H           5.6764   -2.5370   -3.4876 H       1  LIG1        0.0342
     65 H           4.6211   -3.1119   -4.8029 H       1  LIG1        0.0342
     66 H          -1.3564   -1.6652   -2.3718 H       1  LIG1        0.0259
     67 H          -1.3475   -3.3618   -1.9062 H       1  LIG1        0.0259
     68 H          -0.0823   -2.7777   -2.9462 H       1  LIG1        0.0259
     69 H           0.3888   -4.1047   -0.4939 H       1  LIG1        0.2104
     70 H          -2.3905    0.7901   -1.1656 H       1  LIG1        0.0417
     71 H          -4.9740    1.0880    0.3773 H       1  LIG1        0.0369
     72 H          -7.4417    3.7536   -1.8785 H       1  LIG1        0.0829
     73 H          -6.0621    5.3049   -3.2679 H       1  LIG1        0.0633
     74 H          -3.5825    5.1194   -3.1398 H       1  LIG1        0.0627
     75 H          -2.4997    2.7486    0.9833 H       1  LIG1        0.0236
     76 H          -3.0383    1.3393    1.9152 H       1  LIG1        0.0236
     77 H          -4.0738    2.7565    1.7773 H       1  LIG1        0.0236
     78 H          -5.1174   -0.5032   -1.5513 H       1  LIG1        0.0238
     79 H          -3.6307   -1.0355   -2.3409 H       1  LIG1        0.0238
     80 H          -4.2799    0.5641   -2.6927 H       1  LIG1        0.0238
     81 H          -2.2745   -3.0137    5.2152 H       1  LIG1        0.0342
     82 H          -3.4187   -3.6536    3.9999 H       1  LIG1        0.0342
     83 H          -3.0778   -1.9255    4.0417 H       1  LIG1        0.0342
     84 H          -0.0631    0.5677    4.9047 H       1  LIG1        0.0342
     85 H           1.5711    0.5235    5.6579 H       1  LIG1        0.0342
     86 H           0.3541   -0.7395    6.0083 H       1  LIG1        0.0342
     87 H          -0.0294   -0.6352   -4.0092 H       1  LIG1        0.0259
     88 H           0.0079    0.9978   -4.6157 H       1  LIG1        0.0259
     89 H          -1.3559    0.3962   -3.6465 H       1  LIG1        0.0259
     90 H           0.2133    3.0004   -3.2006 H       1  LIG1        0.0727
     91 H           0.2354    2.8863   -1.4142 H       1  LIG1        0.0727
     92 H           3.1937   -2.4343    0.2167 H       1  LIG1        0.0706
     93 H           3.9662   -0.9802   -0.4279 H       1  LIG1        0.0706
     94 H           6.3723   -2.3128    3.3604 H       1  LIG1        0.0342
     95 H           5.1148   -1.4366    4.2901 H       1  LIG1        0.0342
     96 H           6.0112   -0.6344    2.9707 H       1  LIG1        0.0342
     97 H           1.2437    2.5791    4.2244 H       1  LIG1        0.0342
     98 H           0.0213    2.1857    3.0116 H       1  LIG1        0.0342
     99 H           0.9341    3.7327    2.9043 H       1  LIG1        0.0342
@<TRIPOS>BOND
     1     2     4    1
     2     4     6    1
     3     8     9    1
     4     9    10    1
     5     9    11    2
     6     6    12    1
     7    12    13    1
     8    13    16    1
     9    16    18    1
    10    18    19    1
    11    19    20    1
    12    20    21    1
    13    21    22    1
    14    22    23   ar
    15    23    24   ar
    16    24    25   ar
    17    25    26   ar
    18    26    27   ar
    19    22    27   ar
    20    16    31    1
    21    33    34    1
    22    34    35    1
    23    34    36    2
    24    31    37    1
    25    39    40    1
    26    40    41    1
    27    40    42    2
    28    12    43    1
    29    43    44    1
    30     4    44    1
    31    44    46    1
    32    46    47    1
    33    47    48    1
    34    27    48    1
    35    12    50    1
    36    37    50    1
    37    51    52    1
    38    52    53    1
    39    53    54    1
    40    53    55    2
    41    50    56    1
    42     2    56    1
    43    58    59    1
    44    59    60    1
    45    59    61    2
    46     4     5    1
    47    16    17    1
    48    19    30    2
    49    20    29    1
    50    21    28    1
    51    31    32    1
    52    31    33    1
    53    37    38    1
    54    37    39    1
    55    44    45    1
    56    48    49    2
    57    50    51    1
    58     6     8    1
    59     6     7    1
    60     2     3    1
    61     2     1    1
    62    13    15    1
    63    13    14    1
    64    56    58    1
    65    56    57    1
    66     1    62    1
    67    10    63    1
    68    10    64    1
    69    10    65    1
    70    14    66    1
    71    14    67    1
    72    14    68    1
    73    15    69    1
    74    20    70    1
    75    21    71    1
    76    24    72    1
    77    25    73    1
    78    26    74    1
    79    28    75    1
    80    28    76    1
    81    28    77    1
    82    29    78    1
    83    29    79    1
    84    29    80    1
    85    35    81    1
    86    35    82    1
    87    35    83    1
    88    41    84    1
    89    41    85    1
    90    41    86    1
    91    45    87    1
    92    45    88    1
    93    45    89    1
    94    46    90    1
    95    46    91    1
    96    51    92    1
    97    51    93    1
    98    54    94    1
    99    54    95    1
   100    54    96    1
   101    60    97    1
   102    60    98    1
   103    60    99    1
