@<TRIPOS>MOLECULE
NuBBE_2424
 37 40 0 0 0
SMALL
GASTEIGER

@<TRIPOS>ATOM
      1 C          -1.5511   -1.3753   -0.4934 C.3     1  LIG1        0.0154
      2 C          -1.8675    0.0968   -0.3070 C.ar    1  LIG1        0.0534
      3 C          -1.2214    1.1208   -1.0438 C.ar    1  LIG1        0.0074
      4 C          -1.5877    2.4621   -0.7365 C.ar    1  LIG1       -0.0110
      5 C          -0.9925    3.5462   -1.4070 C.ar    1  LIG1       -0.0083
      6 C          -0.0476    3.2773   -2.3714 C.ar    1  LIG1        0.1668
      7 C           0.3079    1.9957   -2.6913 C.ar    1  LIG1        0.1669
      8 C          -0.2508    0.9029   -2.0562 C.ar    1  LIG1       -0.0067
      9 O           1.2481    1.9483   -3.6741 O.3     1  LIG1       -0.4526
     10 C           1.4923    3.3557   -3.8810 C.3     1  LIG1        0.2332
     11 O           0.6277    4.2062   -3.0990 O.3     1  LIG1       -0.4526
     12 C          -2.5500    2.7122    0.2449 C.ar    1  LIG1       -0.0357
     13 C          -3.1218    1.6402    0.8994 C.ar    1  LIG1        0.0285
     14 N          -2.8067    0.3572    0.6510 N.ar    1  LIG1       -0.2589
     15 C          -0.3958   -1.8765    0.3480 C.ar    1  LIG1       -0.0413
     16 C           0.7234   -2.4880   -0.2315 C.ar    1  LIG1       -0.0548
     17 C           1.7687   -2.9615    0.5725 C.ar    1  LIG1       -0.0197
     18 C           1.7102   -2.8370    1.9628 C.ar    1  LIG1        0.1201
     19 C           0.5986   -2.2280    2.5414 C.ar    1  LIG1       -0.0197
     20 C          -0.4469   -1.7624    1.7434 C.ar    1  LIG1       -0.0548
     21 O           2.7815   -3.3394    2.6532 O.3     1  LIG1       -0.4951
     22 C           2.7026   -3.2430    4.0729 C.3     1  LIG1        0.0788
     23 H          -1.3919   -1.5974   -1.5546 H       1  LIG1        0.0377
     24 H          -2.4398   -1.9610   -0.2182 H       1  LIG1        0.0377
     25 H          -1.2535    4.5734   -1.1812 H       1  LIG1        0.0661
     26 H           0.0682   -0.0894   -2.3459 H       1  LIG1        0.0662
     27 H           1.3485    3.5901   -4.9419 H       1  LIG1        0.1166
     28 H           2.5330    3.5728   -3.6113 H       1  LIG1        0.1166
     29 H          -2.8565    3.7199    0.4989 H       1  LIG1        0.0639
     30 H          -3.8734    1.7934    1.6689 H       1  LIG1        0.0830
     31 H           0.7952   -2.6043   -1.3104 H       1  LIG1        0.0622
     32 H           2.6346   -3.4292    0.1091 H       1  LIG1        0.0654
     33 H           0.5082   -2.0927    3.6130 H       1  LIG1        0.0654
     34 H          -1.3065   -1.2997    2.2254 H       1  LIG1        0.0622
     35 H           3.5980   -3.7022    4.5009 H       1  LIG1        0.0660
     36 H           1.8339   -3.7894    4.4577 H       1  LIG1        0.0660
     37 H           2.6808   -2.1951    4.3923 H       1  LIG1        0.0660
@<TRIPOS>BOND
     1     1     2    1
     2     2     3   ar
     3     3     4   ar
     4     4     5   ar
     5     5     6   ar
     6     6     7   ar
     7     7     8   ar
     8     3     8   ar
     9     7     9    1
    10     9    10    1
    11    10    11    1
    12     6    11    1
    13     4    12   ar
    14    12    13   ar
    15    13    14   ar
    16     2    14   ar
    17     1    15    1
    18    15    16   ar
    19    16    17   ar
    20    17    18   ar
    21    18    19   ar
    22    19    20   ar
    23    15    20   ar
    24    18    21    1
    25    21    22    1
    26     1    23    1
    27     1    24    1
    28     5    25    1
    29     8    26    1
    30    10    27    1
    31    10    28    1
    32    12    29    1
    33    13    30    1
    34    16    31    1
    35    17    32    1
    36    19    33    1
    37    20    34    1
    38    22    35    1
    39    22    36    1
    40    22    37    1
