@<TRIPOS>MOLECULE
NuBBE_560
 61 60 0 0 0
SMALL
GASTEIGER

@<TRIPOS>ATOM
      1 C           1.0881    0.1134    3.0538 C.3     1  LIG1       -0.0624
      2 C          -0.2299   -0.3474    2.0570 C.3     1  LIG1       -0.0439
      3 H           0.3317   -1.2501    1.9061 H       1  LIG1        0.0298
      4 C          -1.3444   -0.9726    2.8878 C.3     1  LIG1       -0.0505
      5 C          -2.4751   -1.8036    2.2154 C.3     1  LIG1       -0.0526
      6 C          -2.2829   -3.2138    1.5324 C.3     1  LIG1       -0.0505
      7 C          -1.7246   -3.4714    0.0633 C.3     1  LIG1       -0.0439
      8 H          -1.9175   -4.5300   -0.1554 H       1  LIG1        0.0298
      9 C          -2.5706   -2.6764   -0.9593 C.3     1  LIG1       -0.0624
     10 C          -0.1326   -3.3307   -0.1492 C.3     1  LIG1       -0.0502
     11 C           0.1813   -1.8744   -0.0866 C.3     1  LIG1       -0.0491
     12 C           1.5831   -1.1034    0.2003 C.3     1  LIG1       -0.0319
     13 C           1.7435    0.5753    0.5526 C.2     1  LIG1       -0.0744
     14 C           3.0771    1.0722    0.2652 C.2     1  LIG1       -0.0600
     15 C           3.4350    2.4513    0.5581 C.3     1  LIG1        0.0626
     16 O           4.1493    2.5377    1.7870 O.3     1  LIG1       -0.3910
     17 C           0.8288    1.8888    1.2651 C.3     1  LIG1       -0.0437
     18 C          -0.9991    0.3849    0.4928 C.3     1  LIG1       -0.0505
     19 C          -0.2318    0.7961   -1.0057 C.3     1  LIG1       -0.0526
     20 C          -1.0223    1.5046   -2.0923 C.3     1  LIG1       -0.0507
     21 C          -0.0866    1.8838   -3.2968 C.3     1  LIG1       -0.0467
     22 C          -0.8942    2.6106   -4.3653 C.3     1  LIG1       -0.0627
     23 C           1.1146    2.7694   -2.9106 C.3     1  LIG1       -0.0627
     24 H           0.8406    0.8874    3.7826 H       1  LIG1        0.0232
     25 H           2.0161    0.4798    2.6060 H       1  LIG1        0.0232
     26 H           1.5374   -0.7790    3.5184 H       1  LIG1        0.0232
     27 H          -1.7830   -0.1286    3.4224 H       1  LIG1        0.0268
     28 H          -0.8363   -1.6230    3.6063 H       1  LIG1        0.0268
     29 H          -3.1034   -1.1691    1.5829 H       1  LIG1        0.0265
     30 H          -3.1118   -2.0221    3.0880 H       1  LIG1        0.0265
     31 H          -3.3182   -3.6022    1.4835 H       1  LIG1        0.0268
     32 H          -1.7757   -3.8877    2.2304 H       1  LIG1        0.0268
     33 H          -3.6299   -2.9475   -0.9044 H       1  LIG1        0.0232
     34 H          -2.2100   -2.8284   -1.9798 H       1  LIG1        0.0232
     35 H          -2.5645   -1.6041   -0.7950 H       1  LIG1        0.0232
     36 H           0.1711   -3.6479   -1.1486 H       1  LIG1        0.0268
     37 H           0.3923   -3.8734    0.6382 H       1  LIG1        0.0268
     38 H          -0.5247   -1.7664    0.6918 H       1  LIG1        0.0268
     39 H          -0.3498   -1.4621   -0.9209 H       1  LIG1        0.0268
     40 H           2.2036   -1.3669   -0.6590 H       1  LIG1        0.0310
     41 H           2.0907   -1.6483    1.0405 H       1  LIG1        0.0310
     42 H           3.7927    0.4041   -0.1600 H       1  LIG1        0.0594
     43 H           2.6167    3.1606    0.6005 H       1  LIG1        0.0601
     44 H           4.0984    2.8583   -0.2581 H       1  LIG1        0.0601
     45 H           4.7795    1.8067    1.8199 H       1  LIG1        0.2098
     46 H           0.1570    2.4526    0.6096 H       1  LIG1        0.0274
     47 H           1.3687    2.5475    1.8967 H       1  LIG1        0.0274
     48 H           0.0285    1.6390    2.0516 H       1  LIG1        0.0274
     49 H          -1.6081    1.2540    0.7786 H       1  LIG1        0.0268
     50 H          -1.8082   -0.2694    0.1699 H       1  LIG1        0.0268
     51 H           0.2900   -0.0040   -1.5343 H       1  LIG1        0.0265
     52 H           0.5524    1.5204   -0.8767 H       1  LIG1        0.0265
     53 H          -1.4369    2.4144   -1.6570 H       1  LIG1        0.0268
     54 H          -1.8197    0.8455   -2.4349 H       1  LIG1        0.0268
     55 H           0.3165    0.9639   -3.7456 H       1  LIG1        0.0295
     56 H          -1.1983    3.6007   -4.0111 H       1  LIG1        0.0232
     57 H          -1.7884    2.0429   -4.6343 H       1  LIG1        0.0232
     58 H          -0.2929    2.7453   -5.2715 H       1  LIG1        0.0232
     59 H           0.8210    3.5367   -2.1868 H       1  LIG1        0.0232
     60 H           1.5398    3.2787   -3.7835 H       1  LIG1        0.0232
     61 H           1.9254    2.1770   -2.4719 H       1  LIG1        0.0232
@<TRIPOS>BOND
     1     1     2    1
     2     2     3    1
     3     2     4    1
     4     4     5    1
     5     5     6    1
     6     6     7    1
     7     7     8    1
     8     7     9    1
     9     7    10    1
    10    10    11    1
    11    11    12    1
    12    12    13    1
    13    13    14    2
    14    14    15    1
    15    15    16    1
    16    13    17    1
    17     2    18    1
    18    18    19    1
    19    19    20    1
    20    20    21    1
    21    21    22    1
    22    21    23    1
    23     1    24    1
    24     1    25    1
    25     1    26    1
    26     4    27    1
    27     4    28    1
    28     5    29    1
    29     5    30    1
    30     6    31    1
    31     6    32    1
    32     9    33    1
    33     9    34    1
    34     9    35    1
    35    10    36    1
    36    10    37    1
    37    11    38    1
    38    11    39    1
    39    12    40    1
    40    12    41    1
    41    14    42    1
    42    15    43    1
    43    15    44    1
    44    16    45    1
    45    17    46    1
    46    17    47    1
    47    17    48    1
    48    18    49    1
    49    18    50    1
    50    19    51    1
    51    19    52    1
    52    20    53    1
    53    20    54    1
    54    21    55    1
    55    22    56    1
    56    22    57    1
    57    22    58    1
    58    23    59    1
    59    23    60    1
    60    23    61    1
