@<TRIPOS>MOLECULE
NuBBE_267
 41 43 0 0 0
SMALL
GASTEIGER

@<TRIPOS>ATOM
      1 C          -2.2085    4.2403    2.3149 C.3     1  LIG1        0.0788
      2 O          -2.6361    2.9168    2.6145 O.3     1  LIG1       -0.4949
      3 C          -2.0362    1.9114    1.9048 C.ar    1  LIG1        0.1271
      4 C          -2.4758    0.6173    2.2422 C.ar    1  LIG1        0.0227
      5 C          -1.9476   -0.5234    1.6193 C.ar    1  LIG1        0.1377
      6 O          -2.3293   -1.8036    1.8977 O.3     1  LIG1       -0.4942
      7 C          -3.2180   -1.9837    2.9981 C.3     1  LIG1        0.0788
      8 C          -1.0574    2.0839    0.9285 C.ar    1  LIG1        0.0228
      9 C          -0.5326    0.9571    0.3275 C.ar    1  LIG1        0.1402
     10 O           0.4684    1.0383   -0.6054 O.3     1  LIG1       -0.4688
     11 C          -0.9691   -0.3090    0.6602 C.ar    1  LIG1        0.1053
     12 C          -0.1771   -1.2125   -0.1602 C.2     1  LIG1        0.2213
     13 C           0.7484   -0.3315   -1.0286 C.3     1  LIG1        0.2313
     14 C           2.2278   -0.5925   -0.7456 C.2     1  LIG1        0.1521
     15 O           2.5089   -0.9182    0.5735 O.2     1  LIG1       -0.4947
     16 C           3.7364   -1.6026    0.8209 C.3     1  LIG1        0.0785
     17 C           3.1661   -0.5018   -1.7071 C.2     1  LIG1        0.0228
     18 C           0.3864   -0.4035   -2.5363 C.3     1  LIG1        0.0177
     19 H          -0.5823    0.0912   -2.6931 H       1  LIG1        0.0350
     20 C           0.2561   -1.8284   -3.0871 C.3     1  LIG1       -0.0575
     21 C           1.4166    0.3869   -3.3591 C.3     1  LIG1        0.0170
     22 C           2.8228   -0.0835   -3.0832 C.2     1  LIG1        0.1598
     23 O           3.7027   -0.0651   -3.9401 O.2     1  LIG1       -0.2926
     24 O          -0.2478   -2.4223   -0.1447 O.2     1  LIG1       -0.2870
     25 H          -2.7699    4.9285    2.9526 H       1  LIG1        0.0660
     26 H          -2.4283    4.4935    1.2725 H       1  LIG1        0.0660
     27 H          -1.1438    4.3694    2.5377 H       1  LIG1        0.0660
     28 H          -3.2375    0.5411    3.0131 H       1  LIG1        0.0691
     29 H          -3.4072   -3.0545    3.1168 H       1  LIG1        0.0660
     30 H          -4.1828   -1.4982    2.8126 H       1  LIG1        0.0660
     31 H          -2.7691   -1.6190    3.9292 H       1  LIG1        0.0660
     32 H          -0.6821    3.0556    0.6341 H       1  LIG1        0.0691
     33 H           3.7601   -1.8943    1.8744 H       1  LIG1        0.0660
     34 H           4.5981   -0.9527    0.6357 H       1  LIG1        0.0660
     35 H           3.7976   -2.5128    0.2144 H       1  LIG1        0.0660
     36 H           4.2223   -0.6694   -1.5430 H       1  LIG1        0.0687
     37 H           1.1271   -2.4463   -2.8502 H       1  LIG1        0.0234
     38 H           0.1372   -1.8143   -4.1762 H       1  LIG1        0.0234
     39 H          -0.6335   -2.3199   -2.6814 H       1  LIG1        0.0234
     40 H           1.3722    1.4565   -3.1230 H       1  LIG1        0.0349
     41 H           1.2167    0.2753   -4.4307 H       1  LIG1        0.0349
@<TRIPOS>BOND
     1     1     2    1
     2     2     3    1
     3     3     4   ar
     4     4     5   ar
     5     5     6    1
     6     6     7    1
     7     3     8   ar
     8     8     9   ar
     9     9    10    1
    10     9    11   ar
    11     5    11   ar
    12    11    12    1
    13    12    13    1
    14    13    14    1
    15    14    15    1
    16    15    16    1
    17    14    17    2
    18    10    13    1
    19    13    18    1
    20    18    21    1
    21    21    22    1
    22    17    22    1
    23    22    23    2
    24    12    24    2
    25    18    20    1
    26    18    19    1
    27     1    25    1
    28     1    26    1
    29     1    27    1
    30     4    28    1
    31     7    29    1
    32     7    30    1
    33     7    31    1
    34     8    32    1
    35    16    33    1
    36    16    34    1
    37    16    35    1
    38    17    36    1
    39    20    37    1
    40    20    38    1
    41    20    39    1
    42    21    40    1
    43    21    41    1
