@<TRIPOS>MOLECULE
NuBBE_948
 114 117 0 0 0
SMALL
GASTEIGER

@<TRIPOS>ATOM
      1 O          -2.9402   -0.3400   -3.1087 O.2     1  LIG1       -0.2487
      2 C          -1.7293   -0.3983   -3.1913 C.2     1  LIG1        0.3289
      3 O          -0.9011    0.6817   -3.1117 O.3     1  LIG1       -0.4503
      4 C          -1.4614    1.8704   -2.5073 C.3     1  LIG1        0.1808
      5 H          -2.3913    1.6097   -1.9980 H       1  LIG1        0.0835
      6 C          -1.7364    2.9680   -3.5573 C.3     1  LIG1       -0.0008
      7 H          -2.1494    3.8479   -3.0517 H       1  LIG1        0.0336
      8 C          -0.4756    3.4143   -4.3024 C.3     1  LIG1       -0.0588
      9 C          -2.7771    2.5002   -4.5775 C.3     1  LIG1       -0.0588
     10 C          -0.4359    2.2988   -1.4305 C.2     1  LIG1        0.2571
     11 O           0.7466    1.9584   -1.5349 O.2     1  LIG1       -0.2715
     12 C          -0.9267   -1.7003   -3.3833 C.3     1  LIG1        0.1267
     13 H           0.1296   -1.4577   -3.2163 H       1  LIG1        0.0620
     14 N          -1.3433   -2.7489   -2.3858 N.am    1  LIG1       -0.2877
     15 C          -0.4332   -3.0899   -1.3818 C.2     1  LIG1        0.2571
     16 C          -0.8300   -4.1621   -0.3257 C.3     1  LIG1        0.1808
     17 H          -1.8889   -4.0708   -0.0634 H       1  LIG1        0.0835
     18 C          -0.5981   -5.5883   -0.8805 C.3     1  LIG1       -0.0008
     19 H          -1.1961   -5.7146   -1.7920 H       1  LIG1        0.0336
     20 C           0.8662   -5.8498   -1.2479 C.3     1  LIG1       -0.0588
     21 C          -1.0565   -6.6460    0.1307 C.3     1  LIG1       -0.0588
     22 O          -0.0483   -3.9805    0.8740 O.3     1  LIG1       -0.4503
     23 C          -0.4684   -2.9332    1.6420 C.2     1  LIG1        0.3289
     24 C           0.5336   -2.5968    2.7596 C.3     1  LIG1        0.1267
     25 H           1.4479   -2.3328    2.2160 H       1  LIG1        0.0620
     26 N           0.0579   -1.4032    3.5254 N.am    1  LIG1       -0.2877
     27 C          -1.1067   -1.5806    4.3875 C.3     1  LIG1        0.0041
     28 C           0.6349   -0.1801    3.2069 C.2     1  LIG1        0.2571
     29 C           0.1892    1.1241    3.9231 C.3     1  LIG1        0.1808
     30 H          -0.8753    1.1071    4.1672 H       1  LIG1        0.0835
     31 O           0.4161    2.2320    3.0197 O.3     1  LIG1       -0.4503
     32 C          -0.4066    2.2031    1.9267 C.2     1  LIG1        0.3289
     33 C           0.0759    3.1638    0.8157 C.3     1  LIG1        0.1267
     34 H           1.0593    2.7816    0.5170 H       1  LIG1        0.0620
     35 N          -0.8659    3.0517   -0.3380 N.am    1  LIG1       -0.2877
     36 C          -2.2452    3.4880   -0.1447 C.3     1  LIG1        0.0041
     37 C           0.2601    4.5996    1.3454 C.3     1  LIG1        0.0014
     38 C           0.7377    5.6109    0.3217 C.ar    1  LIG1       -0.0451
     39 C          -0.1827    6.3490   -0.4365 C.ar    1  LIG1       -0.0585
     40 C           0.2478    7.2787   -1.3855 C.ar    1  LIG1       -0.0615
     41 C           1.6084    7.4906   -1.5846 C.ar    1  LIG1       -0.0617
     42 C           2.5365    6.7764   -0.8295 C.ar    1  LIG1       -0.0615
     43 C           2.1056    5.8430    0.1196 C.ar    1  LIG1       -0.0585
     44 O          -1.3960    1.4848    1.8491 O.2     1  LIG1       -0.2487
     45 C           0.9888    1.3441    5.2299 C.3     1  LIG1       -0.0008
     46 H           0.8561    0.4662    5.8752 H       1  LIG1        0.0336
     47 C           2.4911    1.5213    4.9813 C.3     1  LIG1       -0.0588
     48 C           0.4723    2.5698    5.9964 C.3     1  LIG1       -0.0588
     49 O           1.5419   -0.1117    2.3670 O.2     1  LIG1       -0.2715
     50 C           0.8564   -3.8097    3.6596 C.3     1  LIG1        0.0014
     51 C           1.8529   -3.5501    4.7800 C.ar    1  LIG1       -0.0451
     52 C           1.7713   -4.2836    5.9744 C.ar    1  LIG1       -0.0585
     53 C           2.6999   -4.0833    7.0020 C.ar    1  LIG1       -0.0615
     54 C           3.7251   -3.1528    6.8497 C.ar    1  LIG1       -0.0617
     55 C           3.8246   -2.4247    5.6693 C.ar    1  LIG1       -0.0615
     56 C           2.9039   -2.6304    4.6402 C.ar    1  LIG1       -0.0585
     57 O          -1.5199   -2.3329    1.4352 O.2     1  LIG1       -0.2487
     58 O           0.7016   -2.6040   -1.3521 O.2     1  LIG1       -0.2715
     59 C          -2.7713   -3.0277   -2.2484 C.3     1  LIG1        0.0041
     60 C          -1.0646   -2.2297   -4.8242 C.3     1  LIG1        0.0014
     61 C          -0.5545   -1.3013   -5.9033 C.ar    1  LIG1       -0.0451
     62 C          -1.4200   -0.3727   -6.4953 C.ar    1  LIG1       -0.0585
     63 C          -0.9586    0.5237   -7.4612 C.ar    1  LIG1       -0.0615
     64 C           0.3676    0.4737   -7.8778 C.ar    1  LIG1       -0.0617
     65 C           1.2322   -0.4670   -7.3209 C.ar    1  LIG1       -0.0615
     66 C           0.7783   -1.3428   -6.3296 C.ar    1  LIG1       -0.0585
     67 H          -0.7249    4.1601   -5.0659 H       1  LIG1        0.0234
     68 H           0.0194    2.5763   -4.8035 H       1  LIG1        0.0234
     69 H           0.2407    3.8793   -3.6182 H       1  LIG1        0.0234
     70 H          -3.0192    3.2914   -5.2941 H       1  LIG1        0.0234
     71 H          -3.7055    2.1896   -4.0887 H       1  LIG1        0.0234
     72 H          -2.4023    1.6549   -5.1498 H       1  LIG1        0.0234
     73 H           1.0002   -6.8805   -1.5940 H       1  LIG1        0.0234
     74 H           1.5318   -5.6931   -0.3931 H       1  LIG1        0.0234
     75 H           1.1917   -5.1931   -2.0606 H       1  LIG1        0.0234
     76 H          -0.9440   -7.6534   -0.2853 H       1  LIG1        0.0234
     77 H          -2.1121   -6.5098    0.3876 H       1  LIG1        0.0234
     78 H          -0.4718   -6.6010    1.0558 H       1  LIG1        0.0234
     79 H          -1.8355   -2.2376    3.9040 H       1  LIG1        0.0429
     80 H          -1.6136   -0.6460    4.6159 H       1  LIG1        0.0429
     81 H          -0.7848   -2.0453    5.3223 H       1  LIG1        0.0429
     82 H          -2.4180    3.8042    0.8875 H       1  LIG1        0.0429
     83 H          -2.9535    2.6915   -0.3766 H       1  LIG1        0.0429
     84 H          -2.4333    4.3346   -0.8075 H       1  LIG1        0.0429
     85 H           0.9869    4.5873    2.1692 H       1  LIG1        0.0337
     86 H          -0.6676    4.9643    1.8025 H       1  LIG1        0.0337
     87 H          -1.2495    6.2137   -0.2910 H       1  LIG1        0.0620
     88 H          -0.4802    7.8395   -1.9656 H       1  LIG1        0.0618
     89 H           1.9449    8.2134   -2.3234 H       1  LIG1        0.0618
     90 H           3.5996    6.9459   -0.9813 H       1  LIG1        0.0618
     91 H           2.8509    5.3073    0.7035 H       1  LIG1        0.0620
     92 H           3.0248    1.6616    5.9277 H       1  LIG1        0.0234
     93 H           2.6966    2.3916    4.3493 H       1  LIG1        0.0234
     94 H           2.9206    0.6394    4.4987 H       1  LIG1        0.0234
     95 H           1.0569    2.7306    6.9098 H       1  LIG1        0.0234
     96 H          -0.5723    2.4336    6.2946 H       1  LIG1        0.0234
     97 H           0.5389    3.4840    5.3964 H       1  LIG1        0.0234
     98 H           1.2716   -4.6194    3.0444 H       1  LIG1        0.0337
     99 H          -0.0758   -4.2026    4.0861 H       1  LIG1        0.0337
    100 H           0.9857   -5.0222    6.1177 H       1  LIG1        0.0620
    101 H           2.6279   -4.6581    7.9219 H       1  LIG1        0.0618
    102 H           4.4508   -2.9998    7.6439 H       1  LIG1        0.0618
    103 H           4.6226   -1.6979    5.5388 H       1  LIG1        0.0618
    104 H           3.0279   -2.0489    3.7292 H       1  LIG1        0.0620
    105 H          -3.2745   -2.9527   -3.2146 H       1  LIG1        0.0429
    106 H          -3.2016   -2.3095   -1.5427 H       1  LIG1        0.0429
    107 H          -2.9454   -4.0335   -1.8640 H       1  LIG1        0.0429
    108 H          -0.5264   -3.1841   -4.9060 H       1  LIG1        0.0337
    109 H          -2.1106   -2.4718   -5.0489 H       1  LIG1        0.0337
    110 H          -2.4639   -0.3265   -6.1906 H       1  LIG1        0.0620
    111 H          -1.6342    1.2647   -7.8807 H       1  LIG1        0.0618
    112 H           0.7269    1.1665   -8.6342 H       1  LIG1        0.0618
    113 H           2.2656   -0.5137   -7.6551 H       1  LIG1        0.0618
    114 H           1.4750   -2.0590   -5.8994 H       1  LIG1        0.0620
@<TRIPOS>BOND
     1     1     2    2
     2     2     3    1
     3     3     4    1
     4     6     7    1
     5     6     8    1
     6     6     9    1
     7     4    10    1
     8    10    11    2
     9     2    12    1
    10    12    14    1
    11    14    15   am
    12    15    16    1
    13    18    19    1
    14    18    20    1
    15    18    21    1
    16    16    22    1
    17    22    23    1
    18    23    24    1
    19    24    25    1
    20    24    26    1
    21    26    27    1
    22    26    28   am
    23    28    29    1
    24    29    31    1
    25    31    32    1
    26    32    33    1
    27    33    34    1
    28    33    35    1
    29    10    35   am
    30    35    36    1
    31    33    37    1
    32    37    38    1
    33    38    39   ar
    34    39    40   ar
    35    40    41   ar
    36    41    42   ar
    37    42    43   ar
    38    38    43   ar
    39    32    44    2
    40    45    46    1
    41    45    47    1
    42    45    48    1
    43    28    49    2
    44    24    50    1
    45    50    51    1
    46    51    52   ar
    47    52    53   ar
    48    53    54   ar
    49    54    55   ar
    50    55    56   ar
    51    51    56   ar
    52    23    57    2
    53    15    58    2
    54    14    59    1
    55    60    61    1
    56    61    62   ar
    57    62    63   ar
    58    63    64   ar
    59    64    65   ar
    60    65    66   ar
    61    61    66   ar
    62     4     6    1
    63     4     5    1
    64    12    60    1
    65    12    13    1
    66    16    18    1
    67    16    17    1
    68    29    45    1
    69    29    30    1
    70     8    67    1
    71     8    68    1
    72     8    69    1
    73     9    70    1
    74     9    71    1
    75     9    72    1
    76    20    73    1
    77    20    74    1
    78    20    75    1
    79    21    76    1
    80    21    77    1
    81    21    78    1
    82    27    79    1
    83    27    80    1
    84    27    81    1
    85    36    82    1
    86    36    83    1
    87    36    84    1
    88    37    85    1
    89    37    86    1
    90    39    87    1
    91    40    88    1
    92    41    89    1
    93    42    90    1
    94    43    91    1
    95    47    92    1
    96    47    93    1
    97    47    94    1
    98    48    95    1
    99    48    96    1
   100    48    97    1
   101    50    98    1
   102    50    99    1
   103    52   100    1
   104    53   101    1
   105    54   102    1
   106    55   103    1
   107    56   104    1
   108    59   105    1
   109    59   106    1
   110    59   107    1
   111    60   108    1
   112    60   109    1
   113    62   110    1
   114    63   111    1
   115    64   112    1
   116    65   113    1
   117    66   114    1
