@<TRIPOS>MOLECULE
NuBBE_395
 41 43 0 0 0
SMALL
GASTEIGER

@<TRIPOS>ATOM
      1 C          -2.2169    1.0387   -3.3705 C.3     1  LIG1       -0.0649
      2 C          -1.1377    0.9225   -2.2981 C.3     1  LIG1       -0.0502
      3 C          -1.2957   -0.3303   -1.4134 C.3     1  LIG1       -0.0083
      4 H          -1.3462   -1.1907   -2.1002 H       1  LIG1        0.0331
      5 C          -2.6239   -0.3617   -0.6268 C.3     1  LIG1        0.0802
      6 H          -3.4713   -0.3064   -1.3169 H       1  LIG1        0.0643
      7 O          -2.7527   -1.6415    0.0127 O.3     1  LIG1       -0.3688
      8 C          -1.7979   -1.7981    1.0630 C.3     1  LIG1        0.0631
      9 C          -0.3779   -1.7819    0.4759 C.3     1  LIG1       -0.0230
     10 C          -0.0515   -0.6373   -0.5127 C.3     1  LIG1       -0.0299
     11 H           0.6981   -1.0386   -1.2085 H       1  LIG1        0.0306
     12 C           0.6405    0.5800    0.1561 C.3     1  LIG1       -0.0121
     13 C           2.0047    0.2884    0.8235 C.3     1  LIG1        0.1071
     14 H           1.8592   -0.4079    1.6574 H       1  LIG1        0.0737
     15 O           2.4792    1.5234    1.4162 O.3     1  LIG1       -0.4580
     16 C           3.7121    1.5461    1.9850 C.2     1  LIG1        0.3319
     17 C           4.6605    0.5001    1.5459 C.2     1  LIG1        0.0187
     18 C           4.3783   -0.3176    0.5224 C.2     1  LIG1       -0.0738
     19 C           3.0482   -0.2604   -0.1543 C.3     1  LIG1        0.0031
     20 O           4.0597    2.4057    2.7855 O.2     1  LIG1       -0.2456
     21 H          -1.9571   -2.7995    1.4824 H       1  LIG1        0.0599
     22 C          -2.0879   -0.7888    2.1901 C.3     1  LIG1       -0.0082
     23 C          -2.5319    0.5527    1.6872 C.2     1  LIG1       -0.0831
     24 C          -2.7669    0.7463    0.3818 C.2     1  LIG1       -0.0592
     25 H          -2.0297    1.9136   -4.0008 H       1  LIG1        0.0230
     26 H          -3.2124    1.1613   -2.9344 H       1  LIG1        0.0230
     27 H          -2.2287    0.1531   -4.0139 H       1  LIG1        0.0230
     28 H          -1.1547    1.8331   -1.6896 H       1  LIG1        0.0266
     29 H          -0.1632    0.8898   -2.8002 H       1  LIG1        0.0266
     30 H          -0.2836   -2.7097   -0.1074 H       1  LIG1        0.0293
     31 H           0.3600   -1.8682    1.2778 H       1  LIG1        0.0293
     32 H           0.8103    1.3677   -0.5881 H       1  LIG1        0.0304
     33 H          -0.0089    1.0380    0.9067 H       1  LIG1        0.0304
     34 H           5.6197    0.4837    2.0472 H       1  LIG1        0.0686
     35 H           5.1151   -1.0347    0.1718 H       1  LIG1        0.0575
     36 H           2.7731   -1.2679   -0.4802 H       1  LIG1        0.0343
     37 H           3.1372    0.3763   -1.0430 H       1  LIG1        0.0343
     38 H          -1.2174   -0.6850    2.8458 H       1  LIG1        0.0332
     39 H          -2.9101   -1.1795    2.8038 H       1  LIG1        0.0332
     40 H          -2.6593    1.3614    2.4001 H       1  LIG1        0.0571
     41 H          -3.0723    1.7238    0.0207 H       1  LIG1        0.0595
@<TRIPOS>BOND
     1     1     2    1
     2     3     5    1
     3     5     7    1
     4     7     8    1
     5     8     9    1
     6     9    10    1
     7     3    10    1
     8    12    13    1
     9    13    14    1
    10    13    15    1
    11    15    16    1
    12    16    17    1
    13    17    18    2
    14    18    19    1
    15    13    19    1
    16    16    20    2
    17     8    22    1
    18    22    23    1
    19    23    24    2
    20     5    24    1
    21     5     6    1
    22     8    21    1
    23    10    12    1
    24    10    11    1
    25     3     4    1
    26     3     2    1
    27     1    25    1
    28     1    26    1
    29     1    27    1
    30     2    28    1
    31     2    29    1
    32     9    30    1
    33     9    31    1
    34    12    32    1
    35    12    33    1
    36    17    34    1
    37    18    35    1
    38    19    36    1
    39    19    37    1
    40    22    38    1
    41    22    39    1
    42    23    40    1
    43    24    41    1
