@<TRIPOS>MOLECULE
NuBBE_1405
 79 82 0 0 0
SMALL
GASTEIGER

@<TRIPOS>ATOM
      1 C          -2.4271   -0.0196    0.9606 C.3     1  LIG1       -0.0590
      2 C          -0.9137   -0.2326    0.6331 C.3     1  LIG1       -0.0255
      3 C          -0.3167   -1.5175    1.2428 C.3     1  LIG1       -0.0253
      4 H           0.6744   -1.6530    0.7891 H       1  LIG1        0.0313
      5 C           0.0577   -1.5045    2.7276 C.3     1  LIG1        0.0285
      6 H           0.6769   -2.4126    2.8506 H       1  LIG1        0.0386
      7 C           1.0079   -0.3052    3.0328 C.3     1  LIG1       -0.0218
      8 H           1.9955   -0.7981    3.0089 H       1  LIG1        0.0316
      9 C           1.1192    0.7116    1.8752 C.3     1  LIG1       -0.0483
     10 C          -0.2055    1.0140    1.1823 C.3     1  LIG1       -0.0468
     11 C           0.9466    0.3590    4.4543 C.3     1  LIG1       -0.0070
     12 C           2.4219    0.7458    4.7890 C.3     1  LIG1       -0.0556
     13 C           0.3317   -0.5656    5.4910 C.2     1  LIG1       -0.0576
     14 C          -0.5700   -1.5160    5.1888 C.2     1  LIG1       -0.0191
     15 C          -0.9829   -1.7276    3.7809 C.2     1  LIG1        0.1597
     16 O          -2.1087   -2.2025    3.5536 O.2     1  LIG1       -0.2924
     17 C           0.4990   -0.1207    6.9202 C.3     1  LIG1       -0.0047
     18 C          -0.2225    1.2258    7.0979 C.3     1  LIG1        0.0590
     19 H          -1.3018    1.0344    7.1346 H       1  LIG1        0.0596
     20 C           0.0476    2.2418    5.9737 C.3     1  LIG1       -0.0258
     21 C           0.0614    1.6341    4.5565 C.3     1  LIG1       -0.0413
     22 O           0.1388    1.8044    8.3501 O.3     1  LIG1       -0.3915
     23 C          -1.1310   -2.6256    0.5963 C.3     1  LIG1       -0.0488
     24 C          -1.3039   -2.1127   -0.8589 C.3     1  LIG1       -0.0492
     25 C          -0.8004   -0.6170   -0.9024 C.3     1  LIG1       -0.0328
     26 H          -1.5112   -0.0108   -1.4769 H       1  LIG1        0.0309
     27 C           0.6019   -0.5373   -1.6414 C.3     1  LIG1       -0.0405
     28 H           1.2745   -1.2575   -1.1591 H       1  LIG1        0.0301
     29 C           0.5755   -0.9705   -3.1497 C.3     1  LIG1       -0.0499
     30 C          -0.1210    0.0221   -4.0900 C.3     1  LIG1       -0.0497
     31 C          -0.2012   -0.3792   -5.5915 C.3     1  LIG1       -0.0389
     32 H          -0.8526   -1.2639   -5.6357 H       1  LIG1        0.0303
     33 C          -0.9233    0.7473   -6.4129 C.3     1  LIG1       -0.0439
     34 C          -1.0353    0.4268   -7.9108 C.3     1  LIG1       -0.0624
     35 C          -2.3354    1.0518   -5.8782 C.3     1  LIG1       -0.0624
     36 C           1.1432   -0.8477   -6.2170 C.3     1  LIG1       -0.0528
     37 C           2.3197    0.1201   -6.2282 C.3     1  LIG1       -0.0650
     38 C           1.2936    0.8301   -1.5732 C.3     1  LIG1       -0.0621
     39 H          -2.6013    0.0459    2.0398 H       1  LIG1        0.0235
     40 H          -3.0843   -0.8049    0.5767 H       1  LIG1        0.0235
     41 H          -2.7804    0.9178    0.5116 H       1  LIG1        0.0235
     42 H           1.8268    0.2808    1.1635 H       1  LIG1        0.0269
     43 H           1.5816    1.6503    2.1942 H       1  LIG1        0.0269
     44 H          -0.0939    1.7788    0.4105 H       1  LIG1        0.0271
     45 H          -0.8433    1.4973    1.9341 H       1  LIG1        0.0271
     46 H           3.0666   -0.1403    4.8206 H       1  LIG1        0.0238
     47 H           2.5412    1.2563    5.7474 H       1  LIG1        0.0238
     48 H           2.8315    1.4256    4.0323 H       1  LIG1        0.0238
     49 H          -1.1198   -2.0745    5.9385 H       1  LIG1        0.0652
     50 H           1.5590   -0.0476    7.1904 H       1  LIG1        0.0335
     51 H           0.0873   -0.8491    7.6297 H       1  LIG1        0.0335
     52 H           0.9945    2.7638    6.1590 H       1  LIG1        0.0290
     53 H          -0.7135    3.0314    6.0199 H       1  LIG1        0.0290
     54 H           0.4007    2.4150    3.8678 H       1  LIG1        0.0274
     55 H          -0.9724    1.3948    4.2720 H       1  LIG1        0.0274
     56 H           1.0823    2.0385    8.3123 H       1  LIG1        0.2098
     57 H          -2.1078   -2.7702    1.0686 H       1  LIG1        0.0268
     58 H          -0.6096   -3.5874    0.6209 H       1  LIG1        0.0268
     59 H          -2.3600   -2.1670   -1.1493 H       1  LIG1        0.0268
     60 H          -0.7565   -2.7685   -1.5392 H       1  LIG1        0.0268
     61 H           0.1207   -1.9582   -3.2631 H       1  LIG1        0.0268
     62 H           1.6190   -1.0833   -3.4695 H       1  LIG1        0.0268
     63 H           0.3480    1.0095   -4.0194 H       1  LIG1        0.0268
     64 H          -1.1405    0.1269   -3.7087 H       1  LIG1        0.0268
     65 H          -0.3417    1.6732   -6.3183 H       1  LIG1        0.0298
     66 H          -1.2587   -0.6309   -8.0866 H       1  LIG1        0.0232
     67 H          -0.1013    0.6723   -8.4267 H       1  LIG1        0.0232
     68 H          -1.8266    1.0146   -8.3907 H       1  LIG1        0.0232
     69 H          -2.9978    0.1850   -5.9779 H       1  LIG1        0.0232
     70 H          -2.7842    1.8863   -6.4288 H       1  LIG1        0.0232
     71 H          -2.3272    1.3589   -4.8294 H       1  LIG1        0.0232
     72 H           0.9667   -1.1595   -7.2535 H       1  LIG1        0.0265
     73 H           1.4684   -1.7612   -5.7049 H       1  LIG1        0.0265
     74 H           2.1037    1.0317   -6.7918 H       1  LIG1        0.0230
     75 H           3.1751   -0.3663   -6.7176 H       1  LIG1        0.0230
     76 H           2.6421    0.3901   -5.2192 H       1  LIG1        0.0230
     77 H           2.0862    0.9148   -2.3247 H       1  LIG1        0.0233
     78 H           1.8077    0.9858   -0.6303 H       1  LIG1        0.0233
     79 H           0.5890    1.6520   -1.7243 H       1  LIG1        0.0233
@<TRIPOS>BOND
     1     2     3    1
     2     3     5    1
     3     5     7    1
     4     7     9    1
     5     9    10    1
     6     2    10    1
     7     7    11    1
     8    11    13    1
     9    13    14    2
    10    14    15    1
    11     5    15    1
    12    13    17    1
    13    17    18    1
    14    18    20    1
    15    20    21    1
    16    11    21    1
    17     3    23    1
    18    23    24    1
    19    24    25    1
    20     2    25    1
    21    27    28    1
    22    27    29    1
    23    29    30    1
    24    30    31    1
    25    31    32    1
    26    31    33    1
    27    33    34    1
    28    33    35    1
    29    31    36    1
    30    36    37    1
    31    27    38    1
    32     1     2    1
    33     3     4    1
    34     5     6    1
    35     7     8    1
    36    11    12    1
    37    15    16    2
    38    18    22    1
    39    18    19    1
    40    25    27    1
    41    25    26    1
    42     1    39    1
    43     1    40    1
    44     1    41    1
    45     9    42    1
    46     9    43    1
    47    10    44    1
    48    10    45    1
    49    12    46    1
    50    12    47    1
    51    12    48    1
    52    14    49    1
    53    17    50    1
    54    17    51    1
    55    20    52    1
    56    20    53    1
    57    21    54    1
    58    21    55    1
    59    22    56    1
    60    23    57    1
    61    23    58    1
    62    24    59    1
    63    24    60    1
    64    29    61    1
    65    29    62    1
    66    30    63    1
    67    30    64    1
    68    33    65    1
    69    34    66    1
    70    34    67    1
    71    34    68    1
    72    35    69    1
    73    35    70    1
    74    35    71    1
    75    36    72    1
    76    36    73    1
    77    37    74    1
    78    37    75    1
    79    37    76    1
    80    38    77    1
    81    38    78    1
    82    38    79    1
