@<TRIPOS>MOLECULE
NuBBE_581
 50 52 0 0 0
SMALL
GASTEIGER

@<TRIPOS>ATOM
      1 O          -0.6113    1.5632    4.9509 O.3     1  LIG1       -0.3891
      2 C          -0.7997    1.1359    3.6005 C.3     1  LIG1        0.0862
      3 H          -1.8836    1.0798    3.4409 H       1  LIG1        0.0621
      4 C          -0.1711   -0.2380    3.4067 C.3     1  LIG1        0.0024
      5 C          -0.2710   -0.6558    1.9374 C.3     1  LIG1        0.0654
      6 H          -1.3256   -0.7236    1.6382 H       1  LIG1        0.0600
      7 O           0.3786    0.3325    1.1243 O.3     1  LIG1       -0.3663
      8 C          -0.2534    1.6132    1.1988 C.3     1  LIG1        0.1057
      9 H          -1.2983    1.5200    0.8751 H       1  LIG1        0.0667
     10 C           0.4815    2.5041    0.2428 C.2     1  LIG1       -0.0525
     11 C          -0.0849    3.1480   -0.7915 C.2     1  LIG1       -0.0560
     12 C           0.6726    4.0151   -1.7037 C.ar    1  LIG1       -0.0252
     13 C           1.7744    4.7605   -1.2620 C.ar    1  LIG1       -0.0546
     14 C           2.4962    5.5606   -2.1468 C.ar    1  LIG1       -0.0612
     15 C           2.1103    5.6419   -3.4816 C.ar    1  LIG1       -0.0617
     16 C           0.9958    4.9335   -3.9281 C.ar    1  LIG1       -0.0612
     17 C           0.2743    4.1291   -3.0415 C.ar    1  LIG1       -0.0546
     18 C          -0.1890    2.1627    2.6384 C.3     1  LIG1        0.1107
     19 H           0.8509    2.3501    2.9365 H       1  LIG1        0.0648
     20 O          -0.8939    3.4024    2.8087 O.3     1  LIG1       -0.3863
     21 C           0.4029   -2.0198    1.6991 C.3     1  LIG1       -0.0081
     22 C           0.3125   -2.4558    0.2567 C.2     1  LIG1       -0.0821
     23 C          -0.2829   -3.5872   -0.1547 C.2     1  LIG1       -0.0475
     24 C          -0.4139   -4.0034   -1.6023 C.3     1  LIG1        0.1250
     25 H          -0.0274   -3.2016   -2.2438 H       1  LIG1        0.0782
     26 O          -1.8183   -4.1188   -1.9134 O.3     1  LIG1       -0.4538
     27 C          -2.5069   -5.2455   -1.6006 C.2     1  LIG1        0.3322
     28 C          -1.7142   -6.4530   -1.2945 C.2     1  LIG1        0.0187
     29 C          -0.3903   -6.4951   -1.4848 C.2     1  LIG1       -0.0735
     30 C           0.3520   -5.2852   -1.9521 C.3     1  LIG1        0.0067
     31 O          -3.7261   -5.2904   -1.5950 O.2     1  LIG1       -0.2456
     32 H          -0.7481    2.5319    4.9470 H       1  LIG1        0.2099
     33 H          -0.6565   -0.9691    4.0632 H       1  LIG1        0.0316
     34 H           0.8805   -0.1899    3.7209 H       1  LIG1        0.0316
     35 H           1.5493    2.5962    0.4296 H       1  LIG1        0.0599
     36 H          -1.1433    3.0276   -1.0078 H       1  LIG1        0.0621
     37 H           2.0868    4.7246   -0.2214 H       1  LIG1        0.0623
     38 H           3.3599    6.1142   -1.7892 H       1  LIG1        0.0618
     39 H           2.6780    6.2591   -4.1722 H       1  LIG1        0.0618
     40 H           0.6930    5.0006   -4.9698 H       1  LIG1        0.0618
     41 H          -0.5877    3.5788   -3.4119 H       1  LIG1        0.0623
     42 H          -1.6980    3.3743    2.2611 H       1  LIG1        0.2100
     43 H          -0.0614   -2.7706    2.3503 H       1  LIG1        0.0332
     44 H           1.4653   -1.9658    1.9657 H       1  LIG1        0.0332
     45 H           0.7610   -1.7821   -0.4734 H       1  LIG1        0.0571
     46 H          -0.7271   -4.2494    0.5849 H       1  LIG1        0.0605
     47 H          -2.2789   -7.3177   -0.9676 H       1  LIG1        0.0686
     48 H           0.1626   -7.4127   -1.3107 H       1  LIG1        0.0575
     49 H           0.4672   -5.3651   -3.0403 H       1  LIG1        0.0346
     50 H           1.3574   -5.2641   -1.5172 H       1  LIG1        0.0346
@<TRIPOS>BOND
     1     2     4    1
     2     4     5    1
     3     5     6    1
     4     5     7    1
     5     7     8    1
     6     8     9    1
     7     8    10    1
     8    10    11    2
     9    11    12    1
    10    12    13   ar
    11    13    14   ar
    12    14    15   ar
    13    15    16   ar
    14    16    17   ar
    15    12    17   ar
    16     8    18    1
    17     2    18    1
    18     5    21    1
    19    21    22    1
    20    22    23    2
    21    23    24    1
    22    24    25    1
    23    24    26    1
    24    26    27    1
    25    27    28    1
    26    28    29    2
    27    29    30    1
    28    24    30    1
    29    27    31    2
    30     2     3    1
    31     2     1    1
    32    18    20    1
    33    18    19    1
    34     1    32    1
    35     4    33    1
    36     4    34    1
    37    10    35    1
    38    11    36    1
    39    13    37    1
    40    14    38    1
    41    15    39    1
    42    16    40    1
    43    17    41    1
    44    20    42    1
    45    21    43    1
    46    21    44    1
    47    22    45    1
    48    23    46    1
    49    28    47    1
    50    29    48    1
    51    30    49    1
    52    30    50    1
