@<TRIPOS>MOLECULE
NuBBE_1840
 47 49 0 0 0
SMALL
GASTEIGER

@<TRIPOS>ATOM
      1 O          -3.8012    2.8579    1.8017 O.3     1  LIG1       -0.5064
      2 C          -2.5543    2.3135    1.9492 C.ar    1  LIG1        0.1238
      3 C          -1.4866    2.8390    1.2174 C.ar    1  LIG1        0.0221
      4 C          -0.2502    2.2599    1.3999 C.ar    1  LIG1        0.1282
      5 C          -0.0421    1.2305    2.3007 C.ar    1  LIG1       -0.0014
      6 C           1.4009    0.8934    2.3120 C.3     1  LIG1        0.0172
      7 C           1.7752    1.4590    0.9295 C.3     1  LIG1        0.1294
      8 H           2.7992    1.8514    0.9500 H       1  LIG1        0.0788
      9 C           1.7042    0.4554   -0.2263 C.ar    1  LIG1        0.0001
     10 C           0.8748    0.6896   -1.3381 C.ar    1  LIG1       -0.0094
     11 C           0.8565   -0.1710   -2.4376 C.ar    1  LIG1        0.1655
     12 O           0.0039    0.0169   -3.5026 O.3     1  LIG1       -0.4913
     13 C          -0.4189    1.3569   -3.7649 C.3     1  LIG1        0.0790
     14 C           1.6979   -1.3031   -2.4339 C.ar    1  LIG1        0.2035
     15 O           1.7772   -2.1655   -3.4952 O.3     1  LIG1       -0.4885
     16 C           2.0636   -1.5692   -4.7514 C.3     1  LIG1        0.0791
     17 C           2.4650   -1.6118   -1.2948 C.ar    1  LIG1        0.1655
     18 O           3.2645   -2.7207   -1.1275 O.3     1  LIG1       -0.4913
     19 C           2.9136   -3.8933   -1.8671 C.3     1  LIG1        0.0790
     20 C           2.4916   -0.7093   -0.2184 C.ar    1  LIG1       -0.0094
     21 O           0.8844    2.5987    0.6995 O.3     1  LIG1       -0.4835
     22 C          -1.0881    0.7100    3.0352 C.ar    1  LIG1       -0.0480
     23 C          -2.3828    1.2303    2.8375 C.ar    1  LIG1       -0.0018
     24 C          -3.5448    0.6189    3.5926 C.3     1  LIG1       -0.0063
     25 C          -3.7606   -0.8319    3.2604 C.2     1  LIG1       -0.0867
     26 C          -3.2494   -1.8648    3.9829 C.2     1  LIG1       -0.1023
     27 H          -3.7533    3.5727    1.1459 H       1  LIG1        0.2921
     28 H          -1.6067    3.6514    0.5125 H       1  LIG1        0.0691
     29 H           1.6175   -0.1666    2.4556 H       1  LIG1        0.0354
     30 H           1.8805    1.4817    3.1045 H       1  LIG1        0.0354
     31 H           0.2272    1.5596   -1.3356 H       1  LIG1        0.0659
     32 H          -0.8319    1.3909   -4.7791 H       1  LIG1        0.0660
     33 H           0.4199    2.0613   -3.7323 H       1  LIG1        0.0660
     34 H          -1.2157    1.6671   -3.0797 H       1  LIG1        0.0660
     35 H           1.4475   -2.0924   -5.4861 H       1  LIG1        0.0660
     36 H           3.1170   -1.7261   -5.0084 H       1  LIG1        0.0660
     37 H           1.8619   -0.4987   -4.8100 H       1  LIG1        0.0660
     38 H           3.2392   -4.7694   -1.2976 H       1  LIG1        0.0660
     39 H           3.4444   -3.9140   -2.8264 H       1  LIG1        0.0660
     40 H           1.8327   -4.0037   -2.0092 H       1  LIG1        0.0660
     41 H           3.1371   -0.9259    0.6320 H       1  LIG1        0.0659
     42 H          -0.9129   -0.1041    3.7312 H       1  LIG1        0.0625
     43 H          -4.4822    1.1458    3.3740 H       1  LIG1        0.0357
     44 H          -3.3745    0.7543    4.6667 H       1  LIG1        0.0357
     45 H          -4.3782   -1.0544    2.4010 H       1  LIG1        0.0570
     46 H          -2.6199   -1.6861    4.8400 H       1  LIG1        0.0532
     47 H          -3.4431   -2.8841    3.6903 H       1  LIG1        0.0532
@<TRIPOS>BOND
     1     1     2    1
     2     2     3   ar
     3     3     4   ar
     4     4     5   ar
     5     5     6    1
     6     6     7    1
     7     9    10   ar
     8    10    11   ar
     9    11    12    1
    10    12    13    1
    11    11    14   ar
    12    14    15    1
    13    15    16    1
    14    14    17   ar
    15    17    18    1
    16    18    19    1
    17    17    20   ar
    18     9    20   ar
    19     7    21    1
    20     4    21    1
    21     5    22   ar
    22    22    23   ar
    23     2    23   ar
    24    23    24    1
    25    24    25    1
    26    25    26    2
    27     7     9    1
    28     7     8    1
    29     1    27    1
    30     3    28    1
    31     6    29    1
    32     6    30    1
    33    10    31    1
    34    13    32    1
    35    13    33    1
    36    13    34    1
    37    16    35    1
    38    16    36    1
    39    16    37    1
    40    19    38    1
    41    19    39    1
    42    19    40    1
    43    20    41    1
    44    22    42    1
    45    24    43    1
    46    24    44    1
    47    25    45    1
    48    26    46    1
    49    26    47    1
