REMARK  Name = NuBBE_1976
REMARK  5 active torsions:
REMARK  status: ('A' for Active; 'I' for Inactive)
REMARK    1  A    between atoms: S_1  and  C_2
REMARK    2  A    between atoms: S_1  and  S_5
REMARK    3  A    between atoms: C_2  and  C_3
REMARK    4  A    between atoms: S_5  and  S_6
REMARK    5  A    between atoms: S_6  and  C_7
REMARK                            x       y       z     vdW  Elec       q    Type
REMARK                         _______ _______ _______ _____ _____    ______ ____
ROOT
ATOM      1  S   LIG A   1      -0.782  -0.134  -0.554  0.00  0.00    -0.078 S 
ENDROOT
BRANCH   1   2
ATOM      2  C   LIG A   1       0.640  -1.147  -0.051  0.00  0.00    +0.108 C 
BRANCH   2   3
ATOM      3  C   LIG A   1       0.241  -1.990   1.116  0.00  0.00    -0.023 C 
ATOM      4  C   LIG A   1      -0.231  -3.244   1.014  0.00  0.00    +0.005 C 
ENDBRANCH   2   3
ENDBRANCH   1   2
BRANCH   1   5
ATOM      5  S   LIG A   1      -0.021   0.959  -2.114  0.00  0.00    -0.024 S 
BRANCH   5   6
ATOM      6  S   LIG A   1       0.941   2.538  -1.222  0.00  0.00    -0.085 S 
ATOM      7  C   LIG A   1      -0.456   3.448  -0.516  0.00  0.00    +0.098 C 
ENDBRANCH   5   6
ENDBRANCH   1   5
TORSDOF 4
