@<TRIPOS>MOLECULE
NuBBE_2359
 51 53 0 0 0
SMALL
GASTEIGER

@<TRIPOS>ATOM
      1 C          -0.7750   -0.3575   -4.8772 C.3     1  LIG1       -0.0585
      2 C          -1.4884    0.1535   -3.6150 C.3     1  LIG1       -0.0178
      3 C          -2.9762    0.3820   -3.9189 C.3     1  LIG1       -0.0585
      4 C          -1.2341   -0.7303   -2.3811 C.ar    1  LIG1        0.0001
      5 C          -1.5803   -2.0922   -2.4157 C.ar    1  LIG1        0.1205
      6 O          -2.1517   -2.6250   -3.5382 O.3     1  LIG1       -0.5065
      7 C          -1.3608   -2.9324   -1.3308 C.ar    1  LIG1       -0.0196
      8 C          -0.8239   -2.4220   -0.1553 C.ar    1  LIG1       -0.0543
      9 C          -0.4630   -1.0671   -0.0353 C.ar    1  LIG1       -0.0375
     10 C          -0.6338   -0.2276   -1.1756 C.ar    1  LIG1       -0.0368
     11 C          -0.1898    1.2106   -1.0758 C.3     1  LIG1       -0.0267
     12 C           0.9345    1.3863   -0.0709 C.3     1  LIG1       -0.0444
     13 C           0.5045    0.9593    1.3409 C.3     1  LIG1       -0.0158
     14 H          -0.3919    1.5543    1.5731 H       1  LIG1        0.0320
     15 C           0.0239   -0.5442    1.3541 C.3     1  LIG1       -0.0029
     16 C          -1.2172   -0.6606    2.2891 C.3     1  LIG1       -0.0552
     17 C           1.1653   -1.4392    1.9071 C.3     1  LIG1       -0.0433
     18 C           1.6753   -1.0535    3.2969 C.3     1  LIG1       -0.0512
     19 C           1.5490    0.4244    3.6376 C.3     1  LIG1       -0.0372
     20 C           1.6113    1.3532    2.4101 C.3     1  LIG1        0.0684
     21 C           1.3785    2.7797    2.9380 C.2     1  LIG1        0.3110
     22 O           0.7966    3.6147    2.0554 O.3     1  LIG1       -0.4802
     23 O           1.7123    3.2080    4.0269 O.2     1  LIG1       -0.2504
     24 C           3.0569    1.3330    1.8622 C.3     1  LIG1       -0.0491
     25 H          -0.8656    0.3730   -5.6891 H       1  LIG1        0.0235
     26 H          -1.2015   -1.2914   -5.2558 H       1  LIG1        0.0235
     27 H           0.2897   -0.5264   -4.6890 H       1  LIG1        0.0235
     28 H          -1.0849    1.1524   -3.4388 H       1  LIG1        0.0345
     29 H          -3.4743   -0.5228   -4.2809 H       1  LIG1        0.0235
     30 H          -3.0835    1.1416   -4.7042 H       1  LIG1        0.0235
     31 H          -3.5167    0.7412   -3.0375 H       1  LIG1        0.0235
     32 H          -2.1548   -3.5922   -3.4593 H       1  LIG1        0.2921
     33 H          -1.6279   -3.9836   -1.3703 H       1  LIG1        0.0654
     34 H          -0.7190   -3.1056    0.6832 H       1  LIG1        0.0622
     35 H          -1.0482    1.8415   -0.8180 H       1  LIG1        0.0313
     36 H           0.2209    1.5583   -2.0277 H       1  LIG1        0.0313
     37 H           1.2335    2.4400   -0.0827 H       1  LIG1        0.0272
     38 H           1.8040    0.8039   -0.4002 H       1  LIG1        0.0272
     39 H          -2.0856   -0.1510    1.8538 H       1  LIG1        0.0238
     40 H          -1.0563   -0.2199    3.2743 H       1  LIG1        0.0238
     41 H          -1.5044   -1.7052    2.4582 H       1  LIG1        0.0238
     42 H           2.0039   -1.4257    1.1994 H       1  LIG1        0.0274
     43 H           0.8680   -2.4926    1.9668 H       1  LIG1        0.0274
     44 H           2.7262   -1.3597    3.3786 H       1  LIG1        0.0266
     45 H           1.1422   -1.6316    4.0624 H       1  LIG1        0.0266
     46 H           2.3373    0.6795    4.3605 H       1  LIG1        0.0276
     47 H           0.6187    0.6012    4.1906 H       1  LIG1        0.0276
     48 H           0.7332    4.4652    2.5388 H       1  LIG1        0.2951
     49 H           3.3041    0.3829    1.3799 H       1  LIG1        0.0240
     50 H           3.7867    1.4839    2.6671 H       1  LIG1        0.0240
     51 H           3.2324    2.1358    1.1382 H       1  LIG1        0.0240
@<TRIPOS>BOND
     1     1     2    1
     2     2     3    1
     3     2     4    1
     4     4     5   ar
     5     5     6    1
     6     5     7   ar
     7     7     8   ar
     8     8     9   ar
     9     9    10   ar
    10     4    10   ar
    11    10    11    1
    12    11    12    1
    13    12    13    1
    14    13    14    1
    15    13    15    1
    16     9    15    1
    17    15    16    1
    18    15    17    1
    19    17    18    1
    20    18    19    1
    21    19    20    1
    22    13    20    1
    23    20    21    1
    24    21    22    1
    25    21    23    2
    26    20    24    1
    27     1    25    1
    28     1    26    1
    29     1    27    1
    30     2    28    1
    31     3    29    1
    32     3    30    1
    33     3    31    1
    34     6    32    1
    35     7    33    1
    36     8    34    1
    37    11    35    1
    38    11    36    1
    39    12    37    1
    40    12    38    1
    41    16    39    1
    42    16    40    1
    43    16    41    1
    44    17    42    1
    45    17    43    1
    46    18    44    1
    47    18    45    1
    48    19    46    1
    49    19    47    1
    50    22    48    1
    51    24    49    1
    52    24    50    1
    53    24    51    1
