REMARK  Name = NuBBE_491
REMARK  11 active torsions:
REMARK  status: ('A' for Active; 'I' for Inactive)
REMARK    1  A    between atoms: O_1  and  C_2
REMARK    2  A    between atoms: C_6  and  C_35
REMARK    3  A    between atoms: C_17  and  C_34
REMARK    4  A    between atoms: C_21  and  C_23
REMARK    5  A    between atoms: C_23  and  C_25
REMARK    6  A    between atoms: C_23  and  C_33
REMARK    7  A    between atoms: C_26  and  C_27
REMARK    8  A    between atoms: C_27  and  C_29
REMARK    9  A    between atoms: C_27  and  C_32
REMARK   10  A    between atoms: C_29  and  C_30
REMARK   11  A    between atoms: C_29  and  C_31
REMARK                            x       y       z     vdW  Elec       q    Type
REMARK                         _______ _______ _______ _____ _____    ______ ____
ROOT
ATOM      1  C   LIG A   1       5.488  -0.366   3.877  0.00  0.00    +0.118 C 
ATOM      2  C   LIG A   1       5.039  -1.825   3.763  0.00  0.00    +0.032 C 
ATOM      3  C   LIG A   1       3.631  -1.981   3.175  0.00  0.00    +0.012 C 
ATOM      4  C   LIG A   1       3.452  -1.250   1.819  0.00  0.00    +0.010 C 
ATOM      5  C   LIG A   1       3.883   0.261   1.979  0.00  0.00    +0.131 C 
ATOM      6  O   LIG A   1       3.885   0.850   0.657  0.00  0.00    -0.223 OA
ATOM      7  O   LIG A   1       2.586   0.570  -0.026  0.00  0.00    -0.223 OA
ATOM      8  C   LIG A   1       5.281   0.432   2.589  0.00  0.00    +0.074 C 
ATOM      9  C   LIG A   1       2.848   1.085   2.720  0.00  0.00    +0.010 C 
ATOM     10  C   LIG A   1       1.653   1.085   2.139  0.00  0.00    +0.010 C 
ATOM     11  C   LIG A   1       1.555   0.183   0.918  0.00  0.00    +0.129 C 
ATOM     12  C   LIG A   1       1.912  -1.254   1.399  0.00  0.00    +0.037 C 
ATOM     13  C   LIG A   1       1.448  -2.356   0.424  0.00  0.00    +0.008 C 
ATOM     14  C   LIG A   1       1.021  -1.825  -0.946  0.00  0.00    +0.008 C 
ATOM     15  C   LIG A   1      -0.117  -0.765  -0.884  0.00  0.00    -0.023 C 
ATOM     16  C   LIG A   1       0.160   0.278   0.255  0.00  0.00    +0.034 C 
ATOM     17  C   LIG A   1      -0.092   1.635  -0.405  0.00  0.00    +0.007 C 
ATOM     18  C   LIG A   1       0.347   1.461  -1.848  0.00  0.00    +0.005 C 
ATOM     19  C   LIG A   1      -0.143   0.060  -2.250  0.00  0.00    +0.002 C 
ATOM     20  C   LIG A   1      -1.428  -1.505  -0.538  0.00  0.00    +0.012 C 
ATOM     21  C   LIG A   1       4.350  -1.943   0.758  0.00  0.00    +0.015 C 
ENDROOT
BRANCH   1  22
ATOM     22  O   LIG A   1       4.834   0.272   4.973  0.00  0.00    -0.392 OA
ATOM     23  H   LIG A   1       3.906  -0.014   5.004  0.00  0.00    +0.210 HD
ENDBRANCH   1  22
BRANCH  19  24
ATOM     24  C   LIG A   1      -1.430   0.101  -3.144  0.00  0.00    +0.012 C 
ATOM     25  C   LIG A   1      -1.145   0.690  -4.548  0.00  0.00    +0.012 C 
BRANCH  24  26
ATOM     26  C   LIG A   1      -2.586   0.890  -2.585  0.00  0.00    -0.027 C 
ATOM     27  C   LIG A   1      -3.866   0.487  -2.629  0.00  0.00    -0.027 C 
BRANCH  27  28
ATOM     28  C   LIG A   1      -5.050   1.301  -2.144  0.00  0.00    +0.011 C 
ATOM     29  C   LIG A   1      -4.838   2.801  -2.414  0.00  0.00    +0.012 C 
BRANCH  28  30
ATOM     30  C   LIG A   1      -5.373   0.997  -0.654  0.00  0.00    -0.011 C 
ATOM     31  C   LIG A   1      -6.581   1.794  -0.151  0.00  0.00    +0.008 C 
ATOM     32  C   LIG A   1      -5.635  -0.497  -0.413  0.00  0.00    +0.008 C 
ENDBRANCH  28  30
ENDBRANCH  27  28
ENDBRANCH  24  26
ENDBRANCH  19  24
TORSDOF 5
