@<TRIPOS>MOLECULE
NuBBE_1977
 16 16 0 0 0
SMALL
GASTEIGER

@<TRIPOS>ATOM
      1 C          -1.4071    0.4231    0.3603 C.2     1  LIG1       -0.0772
      2 C          -2.5072    0.4510    1.1262 C.2     1  LIG1       -0.1016
      3 C          -0.0120    0.1654    0.8781 C.3     1  LIG1        0.0370
      4 C           0.6873   -1.0213    0.1789 C.3     1  LIG1       -0.0178
      5 C           1.4478   -0.7902   -1.1070 C.2     1  LIG1       -0.0756
      6 C           1.6967    0.3667   -1.7394 C.2     1  LIG1       -0.0217
      7 S           1.1195    1.9232   -1.2664 S.3     1  LIG1       -0.0646
      8 S           1.0216    1.6622    0.7680 S.3     1  LIG1       -0.0809
      9 H          -1.5226    0.5788   -0.7107 H       1  LIG1        0.0578
     10 H          -2.4635    0.3017    2.2006 H       1  LIG1        0.0532
     11 H          -3.4826    0.6383    0.6868 H       1  LIG1        0.0532
     12 H          -0.0805   -0.0807    1.9454 H       1  LIG1        0.0466
     13 H          -0.0474   -1.8174   -0.0009 H       1  LIG1        0.0321
     14 H           1.4112   -1.4468    0.8885 H       1  LIG1        0.0321
     15 H           1.8666   -1.6945   -1.5471 H       1  LIG1        0.0578
     16 H           2.2721    0.3403   -2.6612 H       1  LIG1        0.0695
@<TRIPOS>BOND
     1     1     2    2
     2     1     3    1
     3     3     4    1
     4     4     5    1
     5     5     6    2
     6     6     7    1
     7     7     8    1
     8     3     8    1
     9     1     9    1
    10     2    10    1
    11     2    11    1
    12     3    12    1
    13     4    13    1
    14     4    14    1
    15     5    15    1
    16     6    16    1
