REMARK  Name = NuBBE_521
REMARK  17 active torsions:
REMARK  status: ('A' for Active; 'I' for Inactive)
REMARK    1  A    between atoms: C_4  and  C_6
REMARK    2  A    between atoms: C_8  and  C_9
REMARK    3  A    between atoms: C_9  and  C_10
REMARK    4  A    between atoms: C_10  and  C_12
REMARK    5  A    between atoms: C_10  and  C_13
REMARK    6  A    between atoms: C_13  and  O_15
REMARK    7  A    between atoms: C_13  and  C_28
REMARK    8  A    between atoms: O_15  and  C_16
REMARK    9  A    between atoms: C_16  and  C_17
REMARK   10  A    between atoms: C_17  and  O_19
REMARK   11  A    between atoms: C_17  and  C_21
REMARK   12  A    between atoms: O_19  and  C_20
REMARK   13  A    between atoms: C_37  and  C_38
REMARK   14  A    between atoms: C_39  and  C_40
REMARK   15  A    between atoms: C_40  and  C_42
REMARK   16  A    between atoms: C_40  and  C_43
REMARK   17  A    between atoms: C_43  and  C_44
REMARK                            x       y       z     vdW  Elec       q    Type
REMARK                         _______ _______ _______ _____ _____    ______ ____
ROOT
ATOM      1 CL   LIG A   1      -3.250   3.073   0.150  0.00  0.00    -0.079 Cl
ATOM      2  C   LIG A   1      -1.780   2.552   0.906  0.00  0.00    +0.096 C 
ATOM      3  C   LIG A   1      -0.739   3.635   1.138  0.00  0.00    +0.222 C 
ATOM      4  C   LIG A   1       0.572   3.257   1.876  0.00  0.00    +0.200 C 
ATOM      5  O   LIG A   1       1.720   3.924   1.354  0.00  0.00    -0.442 OA
ATOM      6  C   LIG A   1       0.463   3.624   3.356  0.00  0.00    +0.070 C 
ATOM      7  C   LIG A   1       0.867   1.832   1.617  0.00  0.00    +0.031 C 
ATOM      8  C   LIG A   1       2.012   1.669   0.944  0.00  0.00    +0.110 C 
ATOM      9  C   LIG A   1       2.613   3.000   0.907  0.00  0.00    +0.344 C 
ATOM     10  O   LIG A   1       3.758   3.260   0.560  0.00  0.00    -0.245 OA
ATOM     11  O   LIG A   1      -0.946   4.793   0.769  0.00  0.00    -0.286 OA
ATOM     12  C   LIG A   1      -1.548   1.269   1.260  0.00  0.00    +0.011 C 
ATOM     13  C   LIG A   1      -0.233   0.927   1.815  0.00  0.00    +0.027 C 
ATOM     14  C   LIG A   1      -0.137  -0.235   2.480  0.00  0.00    +0.204 C 
ATOM     15  O   LIG A   1      -1.160  -1.160   2.557  0.00  0.00    -0.463 OA
ATOM     16  C   LIG A   1      -2.260  -0.992   1.713  0.00  0.00    +0.128 C 
ATOM     17  C   LIG A   1      -2.493   0.170   1.073  0.00  0.00    +0.056 C 
ENDROOT
BRANCH   8  18
ATOM     18  C   LIG A   1       2.485   0.416   0.304  0.00  0.00    +0.177 C 
ATOM     19  O   LIG A   1       1.893  -0.633   0.556  0.00  0.00    -0.291 OA
BRANCH  18  20
ATOM     20  C   LIG A   1       3.742   0.384  -0.568  0.00  0.00    +0.098 C 
ATOM     21  C   LIG A   1       4.830  -0.186   0.341  0.00  0.00    +0.020 C 
BRANCH  20  22
ATOM     22  C   LIG A   1       3.553  -0.478  -1.846  0.00  0.00    +0.184 C 
ATOM     23  C   LIG A   1       4.842  -0.660  -2.659  0.00  0.00    +0.052 C 
BRANCH  22  24
ATOM     24  O   LIG A   1       2.616   0.186  -2.728  0.00  0.00    -0.459 OA
BRANCH  24  25
ATOM     25  C   LIG A   1       1.312  -0.190  -2.561  0.00  0.00    +0.341 C 
ATOM     26  O   LIG A   1       0.957  -1.073  -1.804  0.00  0.00    -0.247 OA
BRANCH  25  27
ATOM     27  C   LIG A   1       0.353   0.584  -3.476  0.00  0.00    +0.256 C 
BRANCH  27  28
ATOM     28  C   LIG A   1       0.554   2.092  -3.361  0.00  0.00    -0.008 A 
ATOM     29  C   LIG A   1      -0.145   2.850  -2.410  0.00  0.00    +0.007 A 
ATOM     30  C   LIG A   1      -0.008   4.239  -2.357  0.00  0.00    +0.000 A 
ATOM     31  C   LIG A   1       0.868   4.888  -3.220  0.00  0.00    +0.000 A 
ATOM     32  C   LIG A   1       1.612   4.147  -4.133  0.00  0.00    +0.000 A 
ATOM     33  C   LIG A   1       1.454   2.760  -4.207  0.00  0.00    +0.007 A 
ENDBRANCH  27  28
BRANCH  27  34
ATOM     34  O   LIG A   1      -1.027   0.289  -3.198  0.00  0.00    -0.364 OA
ATOM     35  C   LIG A   1      -1.397  -1.065  -3.444  0.00  0.00    +0.195 C 
ENDBRANCH  27  34
ENDBRANCH  25  27
ENDBRANCH  24  25
ENDBRANCH  22  24
ENDBRANCH  20  22
ENDBRANCH  18  20
ENDBRANCH   8  18
BRANCH  16  36
ATOM     36  C   LIG A   1      -3.097  -2.163   1.558  0.00  0.00    +0.042 C 
ATOM     37  C   LIG A   1      -2.867  -3.339   2.166  0.00  0.00    -0.020 C 
BRANCH  37  38
ATOM     38  C   LIG A   1      -3.715  -4.570   1.977  0.00  0.00    +0.008 C 
ATOM     39  C   LIG A   1      -3.021  -5.487   0.966  0.00  0.00    +0.012 C 
BRANCH  38  40
ATOM     40  C   LIG A   1      -3.943  -5.298   3.316  0.00  0.00    +0.004 C 
ATOM     41  C   LIG A   1      -4.676  -4.443   4.345  0.00  0.00    +0.004 C 
ENDBRANCH  38  40
ENDBRANCH  37  38
ENDBRANCH  16  36
TORSDOF 11
