REMARK  Name = NuBBE_1548
REMARK  10 active torsions:
REMARK  status: ('A' for Active; 'I' for Inactive)
REMARK    1  A    between atoms: C_1  and  C_2
REMARK    2  A    between atoms: C_12  and  O_14
REMARK    3  A    between atoms: O_14  and  C_15
REMARK    4  A    between atoms: C_15  and  C_16
REMARK    5  A    between atoms: C_18  and  O_20
REMARK    6  A    between atoms: O_20  and  C_21
REMARK    7  A    between atoms: C_21  and  C_22
REMARK    8  A    between atoms: C_27  and  C_28
REMARK    9  A    between atoms: C_29  and  C_31
REMARK   10  A    between atoms: C_31  and  C_32
REMARK                            x       y       z     vdW  Elec       q    Type
REMARK                         _______ _______ _______ _____ _____    ______ ____
ROOT
ATOM      1  C   LIG A   1      -3.355  -1.804   0.336  0.00  0.00    +0.012 C 
ATOM      2  C   LIG A   1      -1.923  -1.186   0.151  0.00  0.00    -0.023 C 
ATOM      3  C   LIG A   1      -2.060   0.320   0.680  0.00  0.00    -0.001 C 
ATOM      4  C   LIG A   1      -0.990   0.850   1.668  0.00  0.00    -0.003 C 
ATOM      5  C   LIG A   1      -0.537  -0.163   2.741  0.00  0.00    +0.004 C 
ATOM      6  C   LIG A   1      -1.024  -1.588   2.523  0.00  0.00    +0.004 C 
ATOM      7  C   LIG A   1      -0.945  -2.010   1.054  0.00  0.00    -0.001 C 
ATOM      8  C   LIG A   1       0.530  -2.047   0.603  0.00  0.00    +0.052 C 
ATOM      9  C   LIG A   1       0.759  -1.800  -0.882  0.00  0.00    +0.217 C 
ATOM     10  C   LIG A   1      -0.418  -2.319  -1.707  0.00  0.00    +0.217 C 
ATOM     11  C   LIG A   1      -1.616  -1.402  -1.382  0.00  0.00    +0.055 C 
ATOM     12  C   LIG A   1       0.195   1.621   1.021  0.00  0.00    +0.006 C 
ATOM     13  C   LIG A   1      -0.224   2.605  -0.126  0.00  0.00    -0.019 C 
ATOM     14  C   LIG A   1       0.243   2.094  -1.501  0.00  0.00    +0.012 C 
ATOM     15  C   LIG A   1       0.441   3.989   0.201  0.00  0.00    +0.061 C 
ATOM     16  C   LIG A   1       0.620   3.872   1.689  0.00  0.00    +0.137 C 
ATOM     17  C   LIG A   1       0.903   2.464   2.103  0.00  0.00    +0.079 C 
ATOM     18  O   LIG A   1       0.629   4.823   2.461  0.00  0.00    -0.297 OA
ATOM     19  C   LIG A   1      -1.770   2.753  -0.151  0.00  0.00    +0.008 C 
ATOM     20  C   LIG A   1      -2.511   1.415  -0.317  0.00  0.00    +0.005 C 
ENDROOT
BRANCH  15  21
ATOM     21  C   LIG A   1       1.820   4.242  -0.441  0.00  0.00    +0.008 C 
ATOM     22  C   LIG A   1       2.421   5.598  -0.090  0.00  0.00    +0.004 C 
ENDBRANCH  15  21
BRANCH   9  23
ATOM     23  O   LIG A   1       2.006  -2.395  -1.272  0.00  0.00    -0.458 OA
BRANCH  23  24
ATOM     24  C   LIG A   1       3.114  -1.665  -0.958  0.00  0.00    +0.304 C 
ATOM     25  C   LIG A   1       4.355  -2.421  -1.311  0.00  0.00    +0.136 C 
ATOM     26  O   LIG A   1       3.113  -0.567  -0.418  0.00  0.00    -0.251 OA
ENDBRANCH  23  24
ENDBRANCH   9  23
BRANCH  10  27
ATOM     27  O   LIG A   1      -0.786  -3.676  -1.377  0.00  0.00    -0.458 OA
BRANCH  27  28
ATOM     28  C   LIG A   1      -0.091  -4.675  -1.979  0.00  0.00    +0.304 C 
ATOM     29  C   LIG A   1      -0.621  -6.012  -1.556  0.00  0.00    +0.136 C 
ATOM     30  O   LIG A   1       0.821  -4.531  -2.785  0.00  0.00    -0.251 OA
ENDBRANCH  27  28
ENDBRANCH  10  27
TORSDOF 5
