@<TRIPOS>MOLECULE
NuBBE_1411
 50 54 0 0 0
SMALL
GASTEIGER

@<TRIPOS>ATOM
      1 C          -4.8921    2.6200    2.9402 C.3     1  LIG1       -0.0215
      2 C          -3.4607    2.1541    3.2301 C.3     1  LIG1        0.1235
      3 O          -2.6124    3.2924    2.9594 O.3     1  LIG1       -0.4815
      4 C          -3.3162    1.8250    4.7209 C.3     1  LIG1       -0.0215
      5 C          -3.1652    0.9137    2.4167 C.2     1  LIG1       -0.0408
      6 C          -2.0661    0.7752    1.6706 C.2     1  LIG1       -0.0478
      7 C          -1.1255    1.8816    1.6433 C.ar    1  LIG1        0.0589
      8 C          -1.4448    3.0899    2.2757 C.ar    1  LIG1        0.1324
      9 C          -0.5658    4.1900    2.2242 C.ar    1  LIG1       -0.0184
     10 C           0.6545    4.0960    1.5522 C.ar    1  LIG1       -0.0441
     11 C           0.9456    2.8885    0.9498 C.ar    1  LIG1        0.0646
     12 C           0.0950    1.8009    0.9909 C.ar    1  LIG1        0.1440
     13 O           0.5727    0.6702    0.3759 O.3     1  LIG1       -0.4649
     14 C           1.8632    1.0298   -0.1897 C.3     1  LIG1        0.2670
     15 C           1.7712    0.7999   -1.6758 C.2     1  LIG1        0.2212
     16 C           1.9246   -0.6081   -2.0985 C.ar    1  LIG1        0.0674
     17 C           1.5969   -1.0024   -3.3965 C.ar    1  LIG1       -0.0021
     18 C           1.6208   -2.3583   -3.7514 C.ar    1  LIG1        0.1624
     19 O           1.2689   -2.5787   -5.0578 O.3     1  LIG1       -0.4914
     20 C           0.6374   -3.8182   -5.3545 C.3     1  LIG1        0.0790
     21 C           1.9996   -3.3222   -2.7995 C.ar    1  LIG1        0.1650
     22 O           2.0635   -4.6364   -3.1803 O.3     1  LIG1       -0.4913
     23 C           1.8034   -5.5965   -2.1597 C.3     1  LIG1        0.0790
     24 C           2.3711   -2.9046   -1.5133 C.ar    1  LIG1        0.0261
     25 C           2.3357   -1.5546   -1.1634 C.ar    1  LIG1        0.1350
     26 O           2.6925   -1.2643    0.1258 O.3     1  LIG1       -0.4862
     27 C           2.9545    0.1266    0.3647 C.3     1  LIG1        0.1440
     28 O           1.5028    1.6736   -2.4936 O.2     1  LIG1       -0.2870
     29 C           2.1152    2.4530    0.2309 C.2     1  LIG1        0.2211
     30 O           3.1265    3.1176    0.0886 O.2     1  LIG1       -0.2870
     31 H          -5.6314    1.8441    3.1678 H       1  LIG1        0.0271
     32 H          -5.0042    2.9045    1.8870 H       1  LIG1        0.0271
     33 H          -5.1385    3.5119    3.5283 H       1  LIG1        0.0271
     34 H          -3.5326    2.7044    5.3383 H       1  LIG1        0.0271
     35 H          -2.2875    1.5276    4.9584 H       1  LIG1        0.0271
     36 H          -3.9858    1.0139    5.0278 H       1  LIG1        0.0271
     37 H          -3.8773    0.0939    2.4670 H       1  LIG1        0.0611
     38 H          -1.8607   -0.1242    1.1011 H       1  LIG1        0.0624
     39 H          -0.8427    5.1190    2.7180 H       1  LIG1        0.0654
     40 H           1.3471    4.9300    1.5099 H       1  LIG1        0.0627
     41 H           1.2865   -0.2622   -4.1320 H       1  LIG1        0.0663
     42 H           0.1117   -3.7005   -6.3078 H       1  LIG1        0.0660
     43 H          -0.1093   -4.0904   -4.6007 H       1  LIG1        0.0660
     44 H           1.3793   -4.6094   -5.4925 H       1  LIG1        0.0660
     45 H           1.5808   -6.5498   -2.6485 H       1  LIG1        0.0660
     46 H           0.9316   -5.3209   -1.5556 H       1  LIG1        0.0660
     47 H           2.6873   -5.7425   -1.5314 H       1  LIG1        0.0660
     48 H           2.7130   -3.6150   -0.7670 H       1  LIG1        0.0692
     49 H           3.9422    0.3734   -0.0473 H       1  LIG1        0.0747
     50 H           3.0236    0.2390    1.4533 H       1  LIG1        0.0747
@<TRIPOS>BOND
     1     1     2    1
     2     2     3    1
     3     2     4    1
     4     2     5    1
     5     5     6    2
     6     6     7    1
     7     7     8   ar
     8     3     8    1
     9     8     9   ar
    10     9    10   ar
    11    10    11   ar
    12    11    12   ar
    13     7    12   ar
    14    12    13    1
    15    13    14    1
    16    14    15    1
    17    15    16    1
    18    16    17   ar
    19    17    18   ar
    20    18    19    1
    21    19    20    1
    22    18    21   ar
    23    21    22    1
    24    22    23    1
    25    21    24   ar
    26    24    25   ar
    27    16    25   ar
    28    25    26    1
    29    26    27    1
    30    15    28    2
    31    27    14    1
    32    14    29    1
    33    11    29    1
    34    29    30    2
    35     1    31    1
    36     1    32    1
    37     1    33    1
    38     4    34    1
    39     4    35    1
    40     4    36    1
    41     5    37    1
    42     6    38    1
    43     9    39    1
    44    10    40    1
    45    17    41    1
    46    20    42    1
    47    20    43    1
    48    20    44    1
    49    23    45    1
    50    23    46    1
    51    23    47    1
    52    24    48    1
    53    27    49    1
    54    27    50    1
