@<TRIPOS>MOLECULE
NuBBE_95
 72 76 0 0 0
SMALL
GASTEIGER

@<TRIPOS>ATOM
      1 C          -2.9856   -0.1946    1.1877 C.2     1  LIG1       -0.1022
      2 C          -2.3234    0.3451    0.1530 C.2     1  LIG1       -0.0816
      3 C          -0.8307    0.6650    0.1410 C.3     1  LIG1        0.0467
      4 C          -0.5190    2.1197    0.5894 C.3     1  LIG1        0.2102
      5 H           0.5760    2.2194    0.5768 H       1  LIG1        0.1062
      6 O          -1.0829    3.0700   -0.3179 O.2     1  LIG1       -0.4699
      7 C          -0.9010    2.8109   -1.6415 C.2     1  LIG1        0.0981
      8 C          -0.4642    1.6638   -2.1803 C.2     1  LIG1        0.0746
      9 C          -0.1477    0.4740   -1.2763 C.3     1  LIG1        0.0075
     10 C          -0.3281   -0.9460   -1.8676 C.3     1  LIG1       -0.0241
     11 C           0.0389   -2.0768   -0.8768 C.3     1  LIG1        0.0489
     12 C          -0.1406   -3.4245   -1.4811 C.ar    1  LIG1        0.0374
     13 C           0.8596   -4.2292   -1.9824 C.ar    1  LIG1       -0.0164
     14 C           2.2832   -3.7883   -1.9778 C.3     1  LIG1       -0.0128
     15 C           2.4398   -2.3727   -1.3607 C.3     1  LIG1        0.0005
     16 N           1.4214   -2.0058   -0.3548 N.3     1  LIG1       -0.3078
     17 C           0.2755   -5.4837   -2.3039 C.ar    1  LIG1        0.0032
     18 C           0.7763   -6.7062   -2.7894 C.ar    1  LIG1       -0.0523
     19 C          -0.0864   -7.8026   -2.9026 C.ar    1  LIG1       -0.0611
     20 C          -1.4286   -7.6935   -2.5441 C.ar    1  LIG1       -0.0598
     21 C          -1.9548   -6.4855   -2.0791 C.ar    1  LIG1       -0.0378
     22 C          -1.0802   -5.3990   -1.9714 C.ar    1  LIG1        0.0470
     23 N          -1.3156   -4.1184   -1.5215 N.ar    1  LIG1       -0.3565
     24 H          -0.6337   -2.0253   -0.0146 H       1  LIG1        0.0525
     25 C          -0.2471    1.6494   -3.6589 C.2     1  LIG1        0.3381
     26 O           0.0015    2.9274   -4.0716 O.3     1  LIG1       -0.4646
     27 C           0.3709    3.0964   -5.4388 C.3     1  LIG1        0.0820
     28 O          -0.2227    0.6644   -4.3575 O.2     1  LIG1       -0.2452
     29 O          -0.9396    2.3972    1.9386 O.3     1  LIG1       -0.3093
     30 C          -0.6003    3.7492    2.2888 C.3     1  LIG1        0.1918
     31 H          -1.0126    4.4150    1.5221 H       1  LIG1        0.0939
     32 O           0.8170    3.9651    2.2693 O.3     1  LIG1       -0.3404
     33 C           1.5584    3.4678    3.3904 C.3     1  LIG1        0.1130
     34 H           2.5303    3.9696    3.3009 H       1  LIG1        0.0647
     35 C           0.9655    3.9153    4.7400 C.3     1  LIG1        0.1119
     36 H           1.4921    3.4475    5.5777 H       1  LIG1        0.0647
     37 C          -0.5399    3.6303    4.8320 C.3     1  LIG1        0.1141
     38 H          -0.9260    4.1240    5.7337 H       1  LIG1        0.0648
     39 O          -0.7865    2.2329    4.9705 O.3     1  LIG1       -0.3864
     40 O           1.1485    5.3455    4.8657 O.3     1  LIG1       -0.3865
     41 C           1.8615    1.9677    3.2939 C.3     1  LIG1        0.0730
     42 O           2.6272    1.5410    4.4159 O.3     1  LIG1       -0.3924
     43 C          -1.2524    4.2235    3.6094 C.3     1  LIG1        0.1342
     44 H          -2.3101    3.9392    3.6199 H       1  LIG1        0.0671
     45 O          -1.2150    5.6649    3.6827 O.3     1  LIG1       -0.3841
     46 H          -4.0563   -0.3748    1.1260 H       1  LIG1        0.0532
     47 H          -2.5021   -0.4356    2.1304 H       1  LIG1        0.0532
     48 H          -2.8945    0.5929   -0.7399 H       1  LIG1        0.0571
     49 H          -0.3458   -0.0061    0.8616 H       1  LIG1        0.0410
     50 H          -1.1618    3.7016   -2.2036 H       1  LIG1        0.1029
     51 H           0.9354    0.5771   -1.1104 H       1  LIG1        0.0360
     52 H           0.3034   -1.0522   -2.7601 H       1  LIG1        0.0290
     53 H          -1.3573   -1.0803   -2.2259 H       1  LIG1        0.0290
     54 H           2.6832   -3.7859   -2.9981 H       1  LIG1        0.0326
     55 H           2.8712   -4.5025   -1.3894 H       1  LIG1        0.0326
     56 H           2.4503   -1.6213   -2.1593 H       1  LIG1        0.0427
     57 H           3.4268   -2.3131   -0.8860 H       1  LIG1        0.0427
     58 H           1.6251   -1.0882    0.0223 H       1  LIG1        0.1226
     59 H           1.8248   -6.8044   -3.0516 H       1  LIG1        0.0624
     60 H           0.3011   -8.7527   -3.2608 H       1  LIG1        0.0618
     61 H          -2.0774   -8.5626   -2.6202 H       1  LIG1        0.0618
     62 H          -2.9975   -6.4044   -1.7914 H       1  LIG1        0.0638
     63 H          -2.2089   -3.7818   -1.1912 H       1  LIG1        0.1656
     64 H           1.4193    2.8155   -5.5634 H       1  LIG1        0.0661
     65 H           0.2687    4.1611   -5.6756 H       1  LIG1        0.0661
     66 H          -0.2752    2.5284   -6.1121 H       1  LIG1        0.0661
     67 H          -1.7528    2.1115    5.0046 H       1  LIG1        0.2100
     68 H           2.1061    5.5154    4.7886 H       1  LIG1        0.2100
     69 H           0.9616    1.3546    3.2155 H       1  LIG1        0.0584
     70 H           2.4582    1.7776    2.3938 H       1  LIG1        0.0584
     71 H           2.5397    0.5727    4.4700 H       1  LIG1        0.2095
     72 H          -0.3143    5.9086    3.9973 H       1  LIG1        0.2101
@<TRIPOS>BOND
     1     1     2    2
     2     2     3    1
     3     3     4    1
     4     4     6    1
     5     6     7    1
     6     7     8    2
     7     8     9    1
     8     3     9    1
     9     9    10    1
    10    10    11    1
    11    11    12    1
    12    12    13   ar
    13    13    14    1
    14    14    15    1
    15    15    16    1
    16    13    17   ar
    17    17    18   ar
    18    18    19   ar
    19    19    20   ar
    20    20    21   ar
    21    21    22   ar
    22    17    22   ar
    23    22    23   ar
    24    12    23   ar
    25    16    11    1
    26    11    24    1
    27     8    25    1
    28    25    26    1
    29    26    27    1
    30    25    28    2
    31    29    30    1
    32    30    31    1
    33    30    32    1
    34    32    33    1
    35    33    35    1
    36    35    36    1
    37    35    37    1
    38    35    40    1
    39    41    42    1
    40    30    43    1
    41    37    43    1
    42     4    29    1
    43     4     5    1
    44    33    41    1
    45    33    34    1
    46    37    39    1
    47    37    38    1
    48    43    45    1
    49    43    44    1
    50     1    46    1
    51     1    47    1
    52     2    48    1
    53     3    49    1
    54     7    50    1
    55     9    51    1
    56    10    52    1
    57    10    53    1
    58    14    54    1
    59    14    55    1
    60    15    56    1
    61    15    57    1
    62    16    58    1
    63    18    59    1
    64    19    60    1
    65    20    61    1
    66    21    62    1
    67    23    63    1
    68    27    64    1
    69    27    65    1
    70    27    66    1
    71    39    67    1
    72    40    68    1
    73    41    69    1
    74    41    70    1
    75    42    71    1
    76    45    72    1
