REMARK  Name = NuBBE_1413
REMARK  6 active torsions:
REMARK  status: ('A' for Active; 'I' for Inactive)
REMARK    1  A    between atoms: C_1  and  C_2
REMARK    2  A    between atoms: C_2  and  C_3
REMARK    3  A    between atoms: C_25  and  O_26
REMARK    4  A    between atoms: O_26  and  C_27
REMARK    5  A    between atoms: C_28  and  O_29
REMARK    6  A    between atoms: O_29  and  C_30
REMARK                            x       y       z     vdW  Elec       q    Type
REMARK                         _______ _______ _______ _____ _____    ______ ____
ROOT
ATOM      1  C   LIG A   1      -6.209   2.072  -1.062  0.00  0.00    +0.060 C 
ATOM      2  C   LIG A   1      -5.013   2.848  -1.628  0.00  0.00    +0.123 C 
ATOM      3  C   LIG A   1      -5.509   4.111  -2.341  0.00  0.00    +0.060 C 
ATOM      4  C   LIG A   1      -4.268   1.980  -2.613  0.00  0.00    +0.020 C 
ATOM      5  C   LIG A   1      -3.053   1.480  -2.372  0.00  0.00    +0.015 C 
ATOM      6  C   LIG A   1      -2.420   1.782  -1.091  0.00  0.00    +0.059 A 
ATOM      7  C   LIG A   1      -1.197   1.199  -0.708  0.00  0.00    +0.142 A 
ATOM      8  C   LIG A   1      -0.613   1.550   0.510  0.00  0.00    +0.061 A 
ATOM      9  C   LIG A   1      -1.246   2.458   1.365  0.00  0.00    +0.019 A 
ATOM     10  C   LIG A   1      -2.464   3.024   0.994  0.00  0.00    +0.047 A 
ATOM     11  C   LIG A   1      -3.050   2.684  -0.226  0.00  0.00    +0.132 A 
ATOM     12  O   LIG A   1      -4.235   3.307  -0.503  0.00  0.00    -0.481 OA
ATOM     13  O   LIG A   1      -0.621   0.313  -1.580  0.00  0.00    -0.483 OA
ATOM     14  C   LIG A   1       0.349  -0.574  -1.025  0.00  0.00    +0.226 C 
ATOM     15  C   LIG A   1      -0.289  -1.744  -0.274  0.00  0.00    +0.274 C 
ATOM     16  O   LIG A   1       0.664  -2.744   0.092  0.00  0.00    -0.488 OA
ATOM     17  C   LIG A   1       1.869  -2.279   0.547  0.00  0.00    +0.128 A 
ATOM     18  C   LIG A   1       2.277  -0.947   0.467  0.00  0.00    +0.012 A 
ATOM     19  C   LIG A   1       1.387   0.109  -0.145  0.00  0.00    +0.138 C 
ATOM     20  C   LIG A   1       0.698   0.981   0.887  0.00  0.00    +0.178 C 
ATOM     21  O   LIG A   1       1.200   1.291   1.963  0.00  0.00    -0.291 OA
ATOM     22  C   LIG A   1       3.545  -0.605   0.958  0.00  0.00    +0.057 A 
ATOM     23  C   LIG A   1       4.417  -1.575   1.475  0.00  0.00    +0.162 A 
ATOM     24  C   LIG A   1       4.004  -2.914   1.535  0.00  0.00    +0.165 A 
ATOM     25  C   LIG A   1       2.722  -3.250   1.078  0.00  0.00    +0.095 A 
ENDROOT
BRANCH  23  26
ATOM     26  O   LIG A   1       5.613  -1.051   1.893  0.00  0.00    -0.491 OA
ATOM     27  C   LIG A   1       6.744  -1.911   1.851  0.00  0.00    +0.277 C 
ENDBRANCH  23  26
BRANCH  24  28
ATOM     28  O   LIG A   1       4.841  -3.837   2.105  0.00  0.00    -0.491 OA
ATOM     29  C   LIG A   1       4.730  -5.170   1.616  0.00  0.00    +0.277 C 
ENDBRANCH  24  28
TORSDOF 2
