@<TRIPOS>MOLECULE
NuBBE_1615
 28 30 0 0 0
SMALL
GASTEIGER

@<TRIPOS>ATOM
      1 O          -4.0318   -0.1618    0.0592 O.2     1  LIG1       -0.2411
      2 C          -2.8245   -0.3888    0.0749 C.ar    1  LIG1        0.3795
      3 O          -1.9243    0.6731    0.0558 O.2     1  LIG1       -0.4189
      4 C          -0.5267    0.4924    0.0857 C.ar    1  LIG1        0.1502
      5 C           0.3205    1.6124    0.0678 C.ar    1  LIG1        0.0667
      6 C           1.6970    1.3969    0.0931 C.ar    1  LIG1        0.1797
      7 C           2.2748    0.1194    0.1353 C.ar    1  LIG1        0.1635
      8 C           1.3924   -0.9731    0.1803 C.ar    1  LIG1       -0.0055
      9 C           0.0062   -0.7960    0.1425 C.ar    1  LIG1        0.0254
     10 C          -0.9077   -1.9234    0.1520 C.ar    1  LIG1       -0.0020
     11 C          -2.2386   -1.7717    0.1131 C.ar    1  LIG1        0.2054
     12 O          -2.9967   -2.9401    0.1137 O.3     1  LIG1       -0.4886
     13 C          -4.4100   -2.8271    0.0135 C.3     1  LIG1        0.0791
     14 O           3.6199   -0.1981    0.1943 O.3     1  LIG1       -0.4914
     15 C           4.4875    0.7624   -0.3989 C.3     1  LIG1        0.0790
     16 O           2.3441    2.6002    0.0808 O.2     1  LIG1       -0.4591
     17 C           1.3973    3.5723    0.0443 C.ar    1  LIG1        0.0934
     18 C           0.1389    3.0206    0.0313 C.ar    1  LIG1       -0.0124
     19 H           1.8164   -1.9748    0.2337 H       1  LIG1        0.0662
     20 H          -0.4833   -2.9246    0.1804 H       1  LIG1        0.0663
     21 H          -4.8227   -3.8401   -0.0168 H       1  LIG1        0.0660
     22 H          -4.7030   -2.3271   -0.9150 H       1  LIG1        0.0660
     23 H          -4.8261   -2.3308    0.8954 H       1  LIG1        0.0660
     24 H           5.4802    0.3077   -0.4754 H       1  LIG1        0.0660
     25 H           4.5860    1.6503    0.2317 H       1  LIG1        0.0660
     26 H           4.1627    1.0230   -1.4122 H       1  LIG1        0.0660
     27 H           1.7694    4.5874    0.0336 H       1  LIG1        0.1030
     28 H          -0.7978    3.5597    0.0060 H       1  LIG1        0.0656
@<TRIPOS>BOND
     1     1     2    2
     2     2     3   ar
     3     3     4   ar
     4     4     5   ar
     5     5     6   ar
     6     6     7   ar
     7     7     8   ar
     8     8     9   ar
     9     4     9   ar
    10     9    10   ar
    11    10    11   ar
    12     2    11   ar
    13    11    12    1
    14    12    13    1
    15     7    14    1
    16    14    15    1
    17     6    16   ar
    18    16    17   ar
    19    17    18   ar
    20     5    18   ar
    21     8    19    1
    22    10    20    1
    23    13    21    1
    24    13    22    1
    25    13    23    1
    26    15    24    1
    27    15    25    1
    28    15    26    1
    29    17    27    1
    30    18    28    1
