@<TRIPOS>MOLECULE
NuBBE_1870
 46 48 0 0 0
SMALL
GASTEIGER

@<TRIPOS>ATOM
      1 C          -1.6532   -0.0155   -3.6024 C.3     1  LIG1        0.0791
      2 O          -1.5139   -0.4190   -2.2407 O.3     1  LIG1       -0.4883
      3 C          -0.9306    0.4982   -1.3772 C.ar    1  LIG1        0.2107
      4 C          -0.2374    0.0775   -0.2928 C.ar    1  LIG1        0.1810
      5 C          -0.0071   -1.3519   -0.0327 C.ar    1  LIG1        0.0282
      6 C           1.1017   -1.9778   -0.6007 C.ar    1  LIG1       -0.0055
      7 C           1.3592   -3.3265   -0.3452 C.ar    1  LIG1        0.1629
      8 O           2.5001   -3.8616   -0.8803 O.3     1  LIG1       -0.5032
      9 C           0.5091   -4.0946    0.4701 C.ar    1  LIG1        0.2033
     10 O           0.7606   -5.3983    0.8090 O.3     1  LIG1       -0.4885
     11 C           1.3648   -6.2460   -0.1584 C.3     1  LIG1        0.0791
     12 C          -0.6070   -3.4594    1.0576 C.ar    1  LIG1        0.1658
     13 O          -1.5451   -4.0043    1.9041 O.3     1  LIG1       -0.4913
     14 C          -1.4391   -5.3829    2.2351 C.3     1  LIG1        0.0790
     15 C          -0.8539   -2.0961    0.7962 C.ar    1  LIG1       -0.0053
     16 O           0.3773    0.8962    0.6402 O.2     1  LIG1       -0.4507
     17 C           0.2126    2.2509    0.5352 C.ar    1  LIG1        0.1468
     18 C          -0.4881    2.8359   -0.5116 C.ar    1  LIG1        0.1128
     19 C          -0.6383    4.2171   -0.5611 C.ar    1  LIG1        0.1767
     20 O          -1.3307    4.8717   -1.5570 O.3     1  LIG1       -0.5027
     21 C          -0.0911    5.0235    0.4352 C.ar    1  LIG1        0.2018
     22 O          -0.3248    6.3683    0.3288 O.3     1  LIG1       -0.5009
     23 C           0.6315    4.4575    1.4885 C.ar    1  LIG1        0.1685
     24 O           1.2121    5.1188    2.5372 O.3     1  LIG1       -0.4912
     25 C           1.5619    6.4815    2.3097 C.3     1  LIG1        0.0790
     26 C           0.7668    3.0603    1.5334 C.ar    1  LIG1        0.0270
     27 C          -1.0561    1.9670   -1.5461 C.ar    1  LIG1        0.2382
     28 O          -1.6223    2.5076   -2.5070 O.2     1  LIG1       -0.2830
     29 H          -1.9850   -0.8879   -4.1738 H       1  LIG1        0.0660
     30 H          -0.6952    0.3164   -4.0157 H       1  LIG1        0.0660
     31 H          -2.4278    0.7460   -3.7241 H       1  LIG1        0.0660
     32 H           1.7758   -1.4001   -1.2264 H       1  LIG1        0.0662
     33 H           2.9713   -3.1870   -1.3934 H       1  LIG1        0.2923
     34 H           1.3784   -7.2579    0.2597 H       1  LIG1        0.0660
     35 H           2.4109   -5.9943   -0.3364 H       1  LIG1        0.0660
     36 H           0.7852   -6.2720   -1.0869 H       1  LIG1        0.0660
     37 H          -2.2557   -5.6360    2.9184 H       1  LIG1        0.0660
     38 H          -0.5078   -5.5923    2.7710 H       1  LIG1        0.0660
     39 H          -1.5573   -6.0105    1.3452 H       1  LIG1        0.0660
     40 H          -1.7157   -1.6170    1.2588 H       1  LIG1        0.0662
     41 H          -1.6465    4.1911   -2.1948 H       1  LIG1        0.2923
     42 H          -0.8783    6.4648   -0.4741 H       1  LIG1        0.2924
     43 H           2.1228    6.8336    3.1806 H       1  LIG1        0.0660
     44 H           0.6801    7.1235    2.2359 H       1  LIG1        0.0660
     45 H           2.2112    6.5785    1.4325 H       1  LIG1        0.0660
     46 H           1.3143    2.6027    2.3567 H       1  LIG1        0.0692
@<TRIPOS>BOND
     1     1     2    1
     2     2     3    1
     3     3     4   ar
     4     4     5    1
     5     5     6   ar
     6     6     7   ar
     7     7     8    1
     8     7     9   ar
     9     9    10    1
    10    10    11    1
    11     9    12   ar
    12    12    13    1
    13    13    14    1
    14    12    15   ar
    15     5    15   ar
    16     4    16   ar
    17    16    17   ar
    18    17    18   ar
    19    18    19   ar
    20    19    20    1
    21    19    21   ar
    22    21    22    1
    23    21    23   ar
    24    23    24    1
    25    24    25    1
    26    23    26   ar
    27    17    26   ar
    28    18    27   ar
    29     3    27   ar
    30    27    28    2
    31     1    29    1
    32     1    30    1
    33     1    31    1
    34     6    32    1
    35     8    33    1
    36    11    34    1
    37    11    35    1
    38    11    36    1
    39    14    37    1
    40    14    38    1
    41    14    39    1
    42    15    40    1
    43    20    41    1
    44    22    42    1
    45    25    43    1
    46    25    44    1
    47    25    45    1
    48    26    46    1
