REMARK  Name = NuBBE_1820
REMARK  24 active torsions:
REMARK  status: ('A' for Active; 'I' for Inactive)
REMARK    1  A    between atoms: C_2  and  C_3
REMARK    2  A    between atoms: C_2  and  C_51
REMARK    3  A    between atoms: C_4  and  C_50
REMARK    4  A    between atoms: C_8  and  O_40
REMARK    5  A    between atoms: C_10  and  O_11
REMARK    6  A    between atoms: O_11  and  C_12
REMARK    7  A    between atoms: C_14  and  O_36
REMARK    8  A    between atoms: C_16  and  O_32
REMARK    9  A    between atoms: C_18  and  O_28
REMARK   10  A    between atoms: C_20  and  C_23
REMARK   11  A    between atoms: C_23  and  O_24
REMARK   12  A    between atoms: O_24  and  C_25
REMARK   13  A    between atoms: C_25  and  C_26
REMARK   14  A    between atoms: O_28  and  C_29
REMARK   15  A    between atoms: C_29  and  C_30
REMARK   16  A    between atoms: O_32  and  C_33
REMARK   17  A    between atoms: C_33  and  C_34
REMARK   18  A    between atoms: O_36  and  C_37
REMARK   19  A    between atoms: C_37  and  C_38
REMARK   20  A    between atoms: O_40  and  C_41
REMARK   21  A    between atoms: C_41  and  C_42
REMARK   22  A    between atoms: C_45  and  O_46
REMARK   23  A    between atoms: O_46  and  C_47
REMARK   24  A    between atoms: C_47  and  C_48
REMARK                            x       y       z     vdW  Elec       q    Type
REMARK                         _______ _______ _______ _____ _____    ______ ____
ROOT
ATOM      1  O   LIG A   1      -1.066  -0.565   0.627  0.00  0.00    -0.459 OA
ENDROOT
BRANCH   1   9
ATOM      2  C   LIG A   1       1.100  -0.028   4.403  0.00  0.00    +0.063 A 
ATOM      3  C   LIG A   1       2.329  -0.686   4.478  0.00  0.00    -0.036 A 
ATOM      4  C   LIG A   1       2.626  -1.657   3.514  0.00  0.00    +0.013 A 
ATOM      5  C   LIG A   1       1.750  -1.964   2.462  0.00  0.00    -0.007 A 
ATOM      6  C   LIG A   1       2.104  -2.997   1.585  0.00  0.00    +0.055 A 
ATOM      7  C   LIG A   1       1.275  -3.338   0.526  0.00  0.00    +0.136 A 
ATOM      8  C   LIG A   1       0.157  -2.578   0.239  0.00  0.00    +0.092 A 
ATOM      9  C   LIG A   1      -0.143  -1.479   1.046  0.00  0.00    +0.139 A 
ATOM     10  C   LIG A   1       0.547  -1.240   2.284  0.00  0.00    +0.067 A 
ATOM     11  C   LIG A   1       0.194  -0.346   3.357  0.00  0.00    +0.153 A 
ATOM     12  C   LIG A   1       3.314  -0.448   5.587  0.00  0.00    +0.044 C 
BRANCH   2  14
ATOM     13  O   LIG A   1      -0.201   0.614   6.246  0.00  0.00    -0.292 OA
ATOM     14  C   LIG A   1       0.723   0.900   5.509  0.00  0.00    +0.164 C 
ATOM     15  C   LIG A   1       1.570   2.122   5.778  0.00  0.00    +0.091 C 
ENDBRANCH   2  14
BRANCH   7  16
ATOM     16  O   LIG A   1       1.755  -4.313  -0.358  0.00  0.00    -0.426 OA
BRANCH  16  17
ATOM     17  C   LIG A   1       0.846  -5.200  -0.916  0.00  0.00    +0.309 C 
ATOM     18  C   LIG A   1       1.439  -5.747  -2.175  0.00  0.00    +0.136 C 
ATOM     19  O   LIG A   1      -0.285  -5.444  -0.532  0.00  0.00    -0.251 OA
ENDBRANCH  16  17
ENDBRANCH   7  16
BRANCH  11  20
ATOM     20  O   LIG A   1      -1.103   0.197   3.457  0.00  0.00    -0.425 OA
BRANCH  20  21
ATOM     21  C   LIG A   1      -1.918  -0.650   4.158  0.00  0.00    +0.309 C 
ATOM     22  C   LIG A   1      -2.871   0.117   5.056  0.00  0.00    +0.136 C 
ATOM     23  O   LIG A   1      -1.938  -1.898   4.101  0.00  0.00    -0.251 OA
ENDBRANCH  20  21
ENDBRANCH  11  20
ENDBRANCH   1   9
BRANCH   1  24
ATOM     24  C   LIG A   1      -1.024  -0.080  -0.750  0.00  0.00    +0.353 C 
ATOM     25  C   LIG A   1      -0.795   1.432  -0.663  0.00  0.00    +0.288 C 
ATOM     26  C   LIG A   1      -0.880   2.129  -2.030  0.00  0.00    +0.266 C 
ATOM     27  C   LIG A   1      -0.652   1.264  -3.284  0.00  0.00    +0.253 C 
ATOM     28  C   LIG A   1      -0.286  -0.224  -3.025  0.00  0.00    +0.204 C 
ATOM     29  O   LIG A   1       0.016  -0.531  -1.641  0.00  0.00    -0.328 OA
BRANCH  27  30
ATOM     30  O   LIG A   1      -1.885   1.360  -4.058  0.00  0.00    -0.455 OA
BRANCH  30  31
ATOM     31  C   LIG A   1      -1.935   2.412  -4.934  0.00  0.00    +0.304 C 
ATOM     32  C   LIG A   1      -3.215   3.186  -4.781  0.00  0.00    +0.136 C 
ATOM     33  O   LIG A   1      -1.023   2.738  -5.682  0.00  0.00    -0.251 OA
ENDBRANCH  30  31
ENDBRANCH  27  30
BRANCH  26  34
ATOM     34  O   LIG A   1       0.183   3.121  -2.078  0.00  0.00    -0.454 OA
BRANCH  34  35
ATOM     35  C   LIG A   1      -0.052   4.347  -1.536  0.00  0.00    +0.304 C 
ATOM     36  C   LIG A   1       1.231   5.121  -1.538  0.00  0.00    +0.136 C 
ATOM     37  O   LIG A   1      -1.130   4.752  -1.135  0.00  0.00    -0.251 OA
ENDBRANCH  34  35
ENDBRANCH  26  34
BRANCH  25  38
ATOM     38  O   LIG A   1      -1.605   2.149   0.300  0.00  0.00    -0.451 OA
BRANCH  38  39
ATOM     39  C   LIG A   1      -2.939   1.928   0.317  0.00  0.00    +0.304 C 
ATOM     40  C   LIG A   1      -3.645   2.985   1.083  0.00  0.00    +0.136 C 
ATOM     41  O   LIG A   1      -3.517   1.005  -0.269  0.00  0.00    -0.251 OA
ENDBRANCH  38  39
ENDBRANCH  25  38
BRANCH  28  42
ATOM     42  C   LIG A   1       0.972  -0.555  -3.857  0.00  0.00    +0.267 C 
BRANCH  42  43
ATOM     43  O   LIG A   1       1.297  -1.957  -3.850  0.00  0.00    -0.462 OA
BRANCH  43  44
ATOM     44  C   LIG A   1       1.184  -2.589  -5.042  0.00  0.00    +0.304 C 
ATOM     45  C   LIG A   1       1.976  -3.856  -5.036  0.00  0.00    +0.136 C 
ATOM     46  O   LIG A   1       0.549  -2.184  -5.999  0.00  0.00    -0.251 OA
ENDBRANCH  43  44
ENDBRANCH  42  43
ENDBRANCH  28  42
ENDBRANCH   1  24
TORSDOF 16
