REMARK  Name = NuBBE_1615
REMARK  4 active torsions:
REMARK  status: ('A' for Active; 'I' for Inactive)
REMARK    1  A    between atoms: C_7  and  O_14
REMARK    2  A    between atoms: C_11  and  O_12
REMARK    3  A    between atoms: O_12  and  C_13
REMARK    4  A    between atoms: O_14  and  C_15
REMARK                            x       y       z     vdW  Elec       q    Type
REMARK                         _______ _______ _______ _____ _____    ______ ____
ROOT
ATOM      1  O   LIG A   1      -4.032  -0.162   0.059  0.00  0.00    -0.241 OA
ATOM      2  C   LIG A   1      -2.825  -0.389   0.075  0.00  0.00    +0.380 A 
ATOM      3  O   LIG A   1      -1.924   0.673   0.056  0.00  0.00    -0.419 OA
ATOM      4  C   LIG A   1      -0.527   0.492   0.086  0.00  0.00    +0.150 A 
ATOM      5  C   LIG A   1       0.321   1.612   0.068  0.00  0.00    +0.067 A 
ATOM      6  C   LIG A   1       1.697   1.397   0.093  0.00  0.00    +0.180 A 
ATOM      7  C   LIG A   1       2.275   0.119   0.135  0.00  0.00    +0.164 A 
ATOM      8  C   LIG A   1       1.392  -0.973   0.180  0.00  0.00    +0.061 A 
ATOM      9  C   LIG A   1       0.006  -0.796   0.142  0.00  0.00    +0.025 A 
ATOM     10  C   LIG A   1      -0.908  -1.923   0.152  0.00  0.00    +0.064 A 
ATOM     11  C   LIG A   1      -2.239  -1.772   0.113  0.00  0.00    +0.205 A 
ATOM     12  O   LIG A   1       2.344   2.600   0.081  0.00  0.00    -0.459 OA
ATOM     13  C   LIG A   1       1.397   3.572   0.044  0.00  0.00    +0.196 A 
ATOM     14  C   LIG A   1       0.139   3.021   0.031  0.00  0.00    +0.053 A 
ENDROOT
BRANCH  11  15
ATOM     15  O   LIG A   1      -2.997  -2.940   0.114  0.00  0.00    -0.489 OA
ATOM     16  C   LIG A   1      -4.410  -2.827   0.013  0.00  0.00    +0.277 C 
ENDBRANCH  11  15
BRANCH   7  17
ATOM     17  O   LIG A   1       3.620  -0.198   0.194  0.00  0.00    -0.491 OA
ATOM     18  C   LIG A   1       4.487   0.762  -0.399  0.00  0.00    +0.277 C 
ENDBRANCH   7  17
TORSDOF 2
