@<TRIPOS>MOLECULE
NuBBE_1096
 64 69 0 0 0
SMALL
GASTEIGER

@<TRIPOS>ATOM
      1 C          -0.0541    0.4098    2.0815 C.3     1  LIG1       -0.0542
      2 C           0.5913    0.0078    0.7332 C.3     1  LIG1        0.0301
      3 C           0.7512   -1.5831    0.6140 C.3     1  LIG1        0.1240
      4 C          -0.4545   -2.4553    0.3055 C.3     1  LIG1        0.0419
      5 C          -0.0523   -3.6942   -0.5588 C.3     1  LIG1       -0.0531
      6 C          -0.9554   -3.0141    1.7231 C.3     1  LIG1        0.1391
      7 H          -0.6709   -4.0741    1.7965 H       1  LIG1        0.0793
      8 O          -0.2808   -2.4078    2.8852 O.3     1  LIG1       -0.4539
      9 C           1.0845   -2.2358    2.8942 C.2     1  LIG1        0.3398
     10 O           1.7171   -1.9015    3.8832 O.2     1  LIG1       -0.2478
     11 C           1.7085   -2.5573    1.6076 C.3     1  LIG1        0.1857
     12 H           1.8177   -3.6288    1.5159 H       1  LIG1        0.0743
     13 O           2.0785   -1.9270    0.4079 O.3     1  LIG1       -0.3516
     14 C          -2.4418   -2.9988    1.9311 C.ar    1  LIG1        0.0310
     15 C          -3.3874   -3.9628    1.4670 C.ar    1  LIG1       -0.0172
     16 C          -4.6226   -3.5425    1.8997 C.ar    1  LIG1        0.0921
     17 O          -4.5070   -2.3954    2.6126 O.2     1  LIG1       -0.4706
     18 C          -3.1885   -2.0797    2.6426 C.ar    1  LIG1        0.0984
     19 C          -1.5025   -1.7352   -0.5854 C.3     1  LIG1       -0.0409
     20 C          -1.6669   -0.2371   -0.3900 C.3     1  LIG1       -0.0480
     21 C          -0.2890    0.4555   -0.4957 C.3     1  LIG1       -0.0214
     22 H           0.1932    0.0009   -1.3730 H       1  LIG1        0.0316
     23 C          -0.3561    1.9973   -0.8452 C.3     1  LIG1       -0.0064
     24 C          -1.2855    2.7922    0.1134 C.3     1  LIG1       -0.0555
     25 C           1.0603    2.6872   -0.8303 C.3     1  LIG1       -0.0174
     26 H           0.8577    3.7562   -0.6472 H       1  LIG1        0.0319
     27 C           1.8849    2.2388    0.3929 C.3     1  LIG1       -0.0217
     28 C           1.9769    0.7265    0.6037 C.3     1  LIG1        0.0639
     29 H           2.5209    0.2964   -0.2374 H       1  LIG1        0.0600
     30 O           2.8076    0.4954    1.7446 O.3     1  LIG1       -0.3911
     31 C           1.8600    2.7068   -2.1899 C.3     1  LIG1        0.0311
     32 C           2.9982    3.7570   -2.1129 C.3     1  LIG1       -0.0525
     33 C           2.4920    1.3788   -2.6283 C.3     1  LIG1       -0.0525
     34 C           0.9350    3.1397   -3.3317 C.2     1  LIG1        0.1617
     35 O           1.3222    3.7601   -4.3209 O.2     1  LIG1       -0.2921
     36 C          -0.4711    2.7019   -3.3036 C.2     1  LIG1       -0.0221
     37 C          -1.0211    2.1722   -2.2080 C.2     1  LIG1       -0.0742
     38 H          -1.0071   -0.0860    2.2610 H       1  LIG1        0.0237
     39 H          -0.2349    1.4780    2.1632 H       1  LIG1        0.0237
     40 H           0.5843    0.1797    2.9358 H       1  LIG1        0.0237
     41 H           0.6152   -4.3878   -0.0405 H       1  LIG1        0.0237
     42 H           0.4669   -3.3828   -1.4732 H       1  LIG1        0.0237
     43 H          -0.9387   -4.2707   -0.8493 H       1  LIG1        0.0237
     44 H          -3.1929   -4.8521    0.8834 H       1  LIG1        0.0653
     45 H          -5.6271   -3.9292    1.7957 H       1  LIG1        0.1029
     46 H          -2.9396   -1.1899    3.2050 H       1  LIG1        0.1033
     47 H          -2.4815   -2.2220   -0.5363 H       1  LIG1        0.0273
     48 H          -1.2050   -1.8543   -1.6388 H       1  LIG1        0.0273
     49 H          -2.1757   -0.0236    0.5523 H       1  LIG1        0.0269
     50 H          -2.3479    0.1092   -1.1726 H       1  LIG1        0.0269
     51 H          -0.8200    3.0136    1.0741 H       1  LIG1        0.0238
     52 H          -2.2328    2.2776    0.3026 H       1  LIG1        0.0238
     53 H          -1.5425    3.7723   -0.3119 H       1  LIG1        0.0238
     54 H           1.4608    2.6991    1.2945 H       1  LIG1        0.0293
     55 H           2.8987    2.6512    0.3591 H       1  LIG1        0.0293
     56 H           2.4915    1.0232    2.4967 H       1  LIG1        0.2098
     57 H           2.6071    4.7455   -1.8457 H       1  LIG1        0.0239
     58 H           3.5117    3.8657   -3.0760 H       1  LIG1        0.0239
     59 H           3.7650    3.4838   -1.3824 H       1  LIG1        0.0239
     60 H           3.3347    1.0992   -1.9899 H       1  LIG1        0.0239
     61 H           2.8919    1.4551   -3.6478 H       1  LIG1        0.0239
     62 H           1.7721    0.5587   -2.6470 H       1  LIG1        0.0239
     63 H          -1.0327    2.8414   -4.2209 H       1  LIG1        0.0649
     64 H          -2.0718    1.8952   -2.2881 H       1  LIG1        0.0579
@<TRIPOS>BOND
     1     2     3    1
     2     3     4    1
     3     4     6    1
     4     6     8    1
     5     8     9    1
     6     9    11    1
     7     3    11    1
     8    11    13    1
     9     3    13    1
    10    14    15   ar
    11    15    16   ar
    12    16    17   ar
    13    17    18   ar
    14    14    18   ar
    15     4    19    1
    16    19    20    1
    17    20    21    1
    18     2    21    1
    19    21    23    1
    20    23    25    1
    21    25    27    1
    22    27    28    1
    23     2    28    1
    24    25    31    1
    25    31    34    1
    26    34    36    1
    27    36    37    2
    28    23    37    1
    29     1     2    1
    30     4     5    1
    31     6     7    1
    32     6    14    1
    33     9    10    2
    34    11    12    1
    35    21    22    1
    36    23    24    1
    37    25    26    1
    38    28    29    1
    39    28    30    1
    40    31    32    1
    41    31    33    1
    42    34    35    2
    43     1    38    1
    44     1    39    1
    45     1    40    1
    46     5    41    1
    47     5    42    1
    48     5    43    1
    49    15    44    1
    50    16    45    1
    51    18    46    1
    52    19    47    1
    53    19    48    1
    54    20    49    1
    55    20    50    1
    56    24    51    1
    57    24    52    1
    58    24    53    1
    59    27    54    1
    60    27    55    1
    61    30    56    1
    62    32    57    1
    63    32    58    1
    64    32    59    1
    65    33    60    1
    66    33    61    1
    67    33    62    1
    68    36    63    1
    69    37    64    1
