@<TRIPOS>MOLECULE
NuBBE_1445
 48 50 0 0 0
SMALL
GASTEIGER

@<TRIPOS>ATOM
      1 C          -1.9732   -4.3600   -3.6201 C.3     1  LIG1        0.0788
      2 O          -1.1775   -5.0876   -2.6868 O.3     1  LIG1       -0.4949
      3 C          -0.5690   -4.3414   -1.7149 C.ar    1  LIG1        0.1271
      4 C          -0.6528   -2.9599   -1.6058 C.ar    1  LIG1        0.0233
      5 C           0.0014   -2.3022   -0.5706 C.ar    1  LIG1        0.1465
      6 C           0.7404   -3.0091    0.3781 C.ar    1  LIG1        0.1094
      7 C           1.3805   -2.2198    1.4405 C.ar    1  LIG1        0.2379
      8 C           1.1889   -0.7483    1.4080 C.ar    1  LIG1        0.2082
      9 O           1.7930   -0.0393    2.4322 O.3     1  LIG1       -0.5007
     10 C           0.4589   -0.1953    0.4156 C.ar    1  LIG1        0.1808
     11 O          -0.1385   -0.9414   -0.5791 O.2     1  LIG1       -0.4507
     12 C           0.1828    1.2550    0.2759 C.ar    1  LIG1        0.0282
     13 C          -0.0113    1.8562   -0.9766 C.ar    1  LIG1       -0.0053
     14 C          -0.3150    3.2248   -1.0917 C.ar    1  LIG1        0.1658
     15 O          -0.5057    3.6384   -2.3917 O.3     1  LIG1       -0.4913
     16 C          -0.0717    4.9553   -2.7249 C.3     1  LIG1        0.0790
     17 C          -0.4965    4.0061    0.0693 C.ar    1  LIG1        0.2035
     18 C          -0.2872    3.4146    1.3315 C.ar    1  LIG1        0.1658
     19 O          -0.4148    4.1917    2.4539 O.3     1  LIG1       -0.4913
     20 C          -0.1921    3.5960    3.7264 C.3     1  LIG1        0.0790
     21 C           0.0368    2.0574    1.4081 C.ar    1  LIG1       -0.0053
     22 O          -0.8829    5.3044   -0.1311 O.3     1  LIG1       -0.4885
     23 C          -1.5390    6.0014    0.9157 C.3     1  LIG1        0.0791
     24 O           2.0673   -2.6793    2.3608 O.2     1  LIG1       -0.2830
     25 C           0.8571   -4.4031    0.2633 C.ar    1  LIG1        0.1380
     26 O           1.5867   -5.0687    1.2114 O.3     1  LIG1       -0.4942
     27 C           2.2011   -6.2855    0.8032 C.3     1  LIG1        0.0788
     28 C           0.1878   -5.0581   -0.7809 C.ar    1  LIG1        0.0227
     29 H          -2.4117   -5.0711   -4.3244 H       1  LIG1        0.0660
     30 H          -1.3583   -3.6568   -4.1933 H       1  LIG1        0.0660
     31 H          -2.7948   -3.8405   -3.1137 H       1  LIG1        0.0660
     32 H          -1.2173   -2.3559   -2.3087 H       1  LIG1        0.0691
     33 H           2.2249   -0.7299    2.9847 H       1  LIG1        0.2924
     34 H           0.0724    1.2657   -1.8874 H       1  LIG1        0.0662
     35 H          -0.2115    5.0868   -3.8031 H       1  LIG1        0.0660
     36 H           0.9917    5.0933   -2.5033 H       1  LIG1        0.0660
     37 H          -0.6797    5.7351   -2.2636 H       1  LIG1        0.0660
     38 H          -0.5506    4.2954    4.4859 H       1  LIG1        0.0660
     39 H           0.8783    3.4315    3.8864 H       1  LIG1        0.0660
     40 H          -0.7627    2.6712    3.8618 H       1  LIG1        0.0660
     41 H           0.1657    1.5899    2.3754 H       1  LIG1        0.0662
     42 H          -2.0664    6.8486    0.4678 H       1  LIG1        0.0660
     43 H          -0.8032    6.4116    1.6136 H       1  LIG1        0.0660
     44 H          -2.2903    5.3855    1.4210 H       1  LIG1        0.0660
     45 H           2.8966   -6.5908    1.5912 H       1  LIG1        0.0660
     46 H           2.7770   -6.1518   -0.1191 H       1  LIG1        0.0660
     47 H           1.4589   -7.0815    0.6931 H       1  LIG1        0.0660
     48 H           0.2259   -6.1386   -0.8838 H       1  LIG1        0.0691
@<TRIPOS>BOND
     1     1     2    1
     2     2     3    1
     3     3     4   ar
     4     4     5   ar
     5     5     6   ar
     6     6     7   ar
     7     7     8   ar
     8     8     9    1
     9     8    10   ar
    10    10    11   ar
    11     5    11   ar
    12    10    12    1
    13    12    13   ar
    14    13    14   ar
    15    14    15    1
    16    15    16    1
    17    14    17   ar
    18    17    18   ar
    19    18    19    1
    20    19    20    1
    21    18    21   ar
    22    12    21   ar
    23    17    22    1
    24    22    23    1
    25     7    24    2
    26     6    25   ar
    27    25    26    1
    28    26    27    1
    29    25    28   ar
    30     3    28   ar
    31     1    29    1
    32     1    30    1
    33     1    31    1
    34     4    32    1
    35     9    33    1
    36    13    34    1
    37    16    35    1
    38    16    36    1
    39    16    37    1
    40    20    38    1
    41    20    39    1
    42    20    40    1
    43    21    41    1
    44    23    42    1
    45    23    43    1
    46    23    44    1
    47    27    45    1
    48    27    46    1
    49    27    47    1
    50    28    48    1
