@<TRIPOS>MOLECULE
NuBBE_973
 44 45 0 0 0
SMALL
GASTEIGER

@<TRIPOS>ATOM
      1 O          -3.5736   -1.3971    0.2126 O.2     1  LIG1       -0.2702
      2 C          -3.9379   -0.2558   -0.0192 C.2     1  LIG1        0.2441
      3 N          -3.0750    0.8056   -0.2232 N.am    1  LIG1       -0.3110
      4 C          -1.6356    0.6388   -0.1932 C.3     1  LIG1        0.0159
      5 C          -1.0736    0.8299    1.2162 C.3     1  LIG1       -0.0120
      6 C           0.4250    0.6692    1.2486 C.ar    1  LIG1       -0.0457
      7 C           1.2736    1.7689    1.0723 C.ar    1  LIG1       -0.0551
      8 C           2.6604    1.5928    1.0436 C.ar    1  LIG1       -0.0197
      9 C           3.2141    0.3174    1.1632 C.ar    1  LIG1        0.1205
     10 O           4.5767    0.2498    1.0691 O.3     1  LIG1       -0.4915
     11 C           5.1196   -0.9525    0.5071 C.3     1  LIG1        0.0962
     12 C           5.9265   -0.5819   -0.7286 C.3     1  LIG1        0.0397
     13 C           6.5499   -1.7957   -1.3827 C.2     1  LIG1        0.1335
     14 C           7.3517   -1.5444   -2.6336 C.3     1  LIG1       -0.0059
     15 O           6.4335   -2.9308   -0.9224 O.2     1  LIG1       -0.2976
     16 C           2.3752   -0.7717    1.3936 C.ar    1  LIG1       -0.0197
     17 C           0.9893   -0.5992    1.4246 C.ar    1  LIG1       -0.0551
     18 H          -3.4395    1.7476   -0.2186 H       1  LIG1        0.1490
     19 C          -5.3867    0.0864   -0.0823 C.ar    1  LIG1        0.0367
     20 C          -6.3062   -0.6586    0.6667 C.ar    1  LIG1       -0.0496
     21 C          -7.6679   -0.3509    0.6001 C.ar    1  LIG1       -0.0610
     22 C          -8.1106    0.6932   -0.2139 C.ar    1  LIG1       -0.0617
     23 C          -7.1977    1.4329   -0.9632 C.ar    1  LIG1       -0.0610
     24 C          -5.8395    1.1266   -0.9033 C.ar    1  LIG1       -0.0496
     25 H          -1.2183    1.3805   -0.8842 H       1  LIG1        0.0465
     26 H          -1.3870   -0.3546   -0.5830 H       1  LIG1        0.0465
     27 H          -1.5374    0.1139    1.9063 H       1  LIG1        0.0328
     28 H          -1.3444    1.8230    1.5972 H       1  LIG1        0.0328
     29 H           0.8646    2.7688    0.9485 H       1  LIG1        0.0621
     30 H           3.3104    2.4533    0.9062 H       1  LIG1        0.0654
     31 H           4.3626   -1.6869    0.2171 H       1  LIG1        0.0701
     32 H           5.7602   -1.4153    1.2665 H       1  LIG1        0.0701
     33 H           6.7178    0.1278   -0.4669 H       1  LIG1        0.0375
     34 H           5.2687   -0.0947   -1.4574 H       1  LIG1        0.0375
     35 H           8.2474   -0.9704   -2.3848 H       1  LIG1        0.0306
     36 H           6.7437   -0.9995   -3.3600 H       1  LIG1        0.0306
     37 H           7.6508   -2.4985   -3.0770 H       1  LIG1        0.0306
     38 H           2.7691   -1.7702    1.5543 H       1  LIG1        0.0654
     39 H           0.3519   -1.4675    1.5829 H       1  LIG1        0.0621
     40 H          -5.9670   -1.4706    1.3070 H       1  LIG1        0.0625
     41 H          -8.3849   -0.9246    1.1827 H       1  LIG1        0.0618
     42 H          -9.1705    0.9290   -0.2684 H       1  LIG1        0.0618
     43 H          -7.5411    2.2434   -1.6005 H       1  LIG1        0.0618
     44 H          -5.1482    1.6928   -1.5204 H       1  LIG1        0.0625
@<TRIPOS>BOND
     1     1     2    2
     2     2     3   am
     3     3     4    1
     4     4     5    1
     5     5     6    1
     6     6     7   ar
     7     7     8   ar
     8     8     9   ar
     9     9    10    1
    10    10    11    1
    11    11    12    1
    12    12    13    1
    13    13    14    1
    14    13    15    2
    15     9    16   ar
    16    16    17   ar
    17     6    17   ar
    18     3    18    1
    19     2    19    1
    20    19    20   ar
    21    20    21   ar
    22    21    22   ar
    23    22    23   ar
    24    23    24   ar
    25    19    24   ar
    26     4    25    1
    27     4    26    1
    28     5    27    1
    29     5    28    1
    30     7    29    1
    31     8    30    1
    32    11    31    1
    33    11    32    1
    34    12    33    1
    35    12    34    1
    36    14    35    1
    37    14    36    1
    38    14    37    1
    39    16    38    1
    40    17    39    1
    41    20    40    1
    42    21    41    1
    43    22    42    1
    44    23    43    1
    45    24    44    1
