REMARK  Name = NuBBE_1849
REMARK  6 active torsions:
REMARK  status: ('A' for Active; 'I' for Inactive)
REMARK    1  A    between atoms: C_2  and  C_3
REMARK    2  A    between atoms: C_3  and  C_4
REMARK    3  A    between atoms: C_7  and  C_9
REMARK    4  A    between atoms: C_18  and  C_20
REMARK    5  A    between atoms: C_23  and  O_24
REMARK    6  A    between atoms: O_24  and  C_25
REMARK                            x       y       z     vdW  Elec       q    Type
REMARK                         _______ _______ _______ _____ _____    ______ ____
ROOT
ATOM      1  C   LIG A   1       1.439  -0.455  -0.594  0.00  0.00    +0.059 C 
ATOM      2  C   LIG A   1       0.517   0.426  -1.389  0.00  0.00    +0.113 C 
ATOM      3  O   LIG A   1      -0.814   0.045  -1.298  0.00  0.00    -0.487 OA
ATOM      4  C   LIG A   1      -0.899  -0.805  -0.123  0.00  0.00    +0.207 C 
ATOM      5  C   LIG A   1       0.475  -0.704   0.582  0.00  0.00    +0.049 C 
ATOM      6  C   LIG A   1       0.830  -1.889   1.475  0.00  0.00    +0.013 C 
ATOM      7  C   LIG A   1       0.867   1.596  -1.931  0.00  0.00    +0.096 C 
ATOM      8  C   LIG A   1       2.234   2.132  -1.714  0.00  0.00    +0.223 C 
ATOM      9  C   LIG A   1       3.069   1.473  -0.636  0.00  0.00    +0.164 C 
ATOM     10  C   LIG A   1       2.679   0.283  -0.149  0.00  0.00    +0.038 C 
ATOM     11  O   LIG A   1       2.605   3.100  -2.355  0.00  0.00    -0.284 OA
ENDROOT
BRANCH   4  12
ATOM     12  C   LIG A   1      -2.095  -0.357   0.703  0.00  0.00    -0.003 A 
ATOM     13  C   LIG A   1      -3.149  -1.253   0.965  0.00  0.00    +0.056 A 
ATOM     14  C   LIG A   1      -4.237  -0.803   1.689  0.00  0.00    +0.167 A 
ATOM     15  C   LIG A   1      -4.320   0.487   2.154  0.00  0.00    +0.166 A 
ATOM     16  O   LIG A   1      -5.473   0.720   2.838  0.00  0.00    -0.453 OA
ATOM     17  C   LIG A   1      -6.104  -0.575   2.757  0.00  0.00    +0.466 C 
ATOM     18  O   LIG A   1      -5.328  -1.545   2.023  0.00  0.00    -0.453 OA
ATOM     19  C   LIG A   1      -3.317   1.400   1.920  0.00  0.00    +0.050 A 
ATOM     20  C   LIG A   1      -2.201   0.972   1.187  0.00  0.00    +0.011 A 
ENDBRANCH   4  12
BRANCH   9  21
ATOM     21  O   LIG A   1       4.250   2.024  -0.159  0.00  0.00    -0.492 OA
ATOM     22  C   LIG A   1       4.282   3.446  -0.084  0.00  0.00    +0.277 C 
ENDBRANCH   9  21
BRANCH   1  23
ATOM     23  C   LIG A   1       1.830  -1.755  -1.374  0.00  0.00    +0.045 C 
BRANCH  23  25
ATOM     24  C   LIG A   1       2.117  -1.986  -3.877  0.00  0.00    +0.004 C 
ATOM     25  C   LIG A   1       2.558  -1.558  -2.686  0.00  0.00    -0.033 C 
ENDBRANCH  23  25
ENDBRANCH   1  23
TORSDOF 4
