@<TRIPOS>MOLECULE
NuBBE_1069
 24 26 0 0 0
SMALL
GASTEIGER

@<TRIPOS>ATOM
      1 O          -4.5140    1.0585    0.4619 O.2     1  LIG1       -0.2452
      2 C          -3.3032    1.1762    0.3142 C.ar    1  LIG1        0.3373
      3 O          -2.4429    0.0913    0.2723 O.2     1  LIG1       -0.4183
      4 C          -1.0413    0.2422    0.0995 C.ar    1  LIG1        0.1841
      5 C          -0.2666   -0.9319    0.0736 C.ar    1  LIG1        0.2061
      6 O          -0.9455   -2.1288    0.2168 O.3     1  LIG1       -0.4884
      7 C          -0.1541   -3.3081    0.2455 C.3     1  LIG1        0.0791
      8 C           1.1106   -0.7320   -0.1027 C.ar    1  LIG1        0.1799
      9 C           1.7005    0.5260   -0.2408 C.ar    1  LIG1        0.0246
     10 C           3.0944    0.2964   -0.3958 C.ar    1  LIG1       -0.0160
     11 C           3.2711   -1.0648   -0.3456 C.ar    1  LIG1        0.0933
     12 O           2.0822   -1.6922   -0.1695 O.2     1  LIG1       -0.4591
     13 C           0.8862    1.6747   -0.2050 C.ar    1  LIG1       -0.0401
     14 C          -0.4956    1.5216   -0.0337 C.ar    1  LIG1        0.0221
     15 C          -1.3770    2.6793    0.0081 C.ar    1  LIG1       -0.0442
     16 C          -2.6918    2.5077    0.1715 C.ar    1  LIG1        0.0236
     17 H          -0.8292   -4.1564    0.3959 H       1  LIG1        0.0660
     18 H           0.5476   -3.2956    1.0856 H       1  LIG1        0.0660
     19 H           0.3583   -3.4633   -0.7092 H       1  LIG1        0.0660
     20 H           3.8729    1.0342   -0.5286 H       1  LIG1        0.0655
     21 H           4.1348   -1.7115   -0.4160 H       1  LIG1        0.1030
     22 H           1.3337    2.6588   -0.3110 H       1  LIG1        0.0632
     23 H          -0.9533    3.6725   -0.0944 H       1  LIG1        0.0627
     24 H          -3.3778    3.3452    0.2074 H       1  LIG1        0.0689
@<TRIPOS>BOND
     1     1     2    2
     2     2     3   ar
     3     3     4   ar
     4     4     5   ar
     5     5     6    1
     6     6     7    1
     7     5     8   ar
     8     8     9   ar
     9     9    10   ar
    10    10    11   ar
    11    11    12   ar
    12     8    12   ar
    13     9    13   ar
    14    13    14   ar
    15     4    14   ar
    16    14    15   ar
    17    15    16   ar
    18     2    16   ar
    19     7    17    1
    20     7    18    1
    21     7    19    1
    22    10    20    1
    23    11    21    1
    24    13    22    1
    25    15    23    1
    26    16    24    1
