REMARK  Name = NuBBE_1839
REMARK  12 active torsions:
REMARK  status: ('A' for Active; 'I' for Inactive)
REMARK    1  A    between atoms: C_1  and  O_2
REMARK    2  A    between atoms: O_2  and  C_3
REMARK    3  A    between atoms: C_6  and  C_8
REMARK    4  A    between atoms: C_10  and  O_11
REMARK    5  A    between atoms: O_11  and  C_12
REMARK    6  A    between atoms: C_13  and  O_14
REMARK    7  A    between atoms: O_14  and  C_15
REMARK    8  A    between atoms: C_16  and  O_17
REMARK    9  A    between atoms: O_17  and  C_18
REMARK   10  A    between atoms: C_20  and  C_22
REMARK   11  A    between atoms: C_25  and  C_26
REMARK   12  A    between atoms: C_26  and  C_27
REMARK                            x       y       z     vdW  Elec       q    Type
REMARK                         _______ _______ _______ _____ _____    ______ ____
ROOT
ATOM      1  C   LIG A   1      -2.273   0.076  -1.088  0.00  0.00    +0.151 C 
ATOM      2  C   LIG A   1      -2.213   0.356   0.386  0.00  0.00    +0.138 C 
ATOM      3  O   LIG A   1      -1.347  -0.484   1.072  0.00  0.00    -0.485 OA
ATOM      4  C   LIG A   1      -0.642  -1.202   0.029  0.00  0.00    +0.210 C 
ATOM      5  C   LIG A   1      -0.810  -0.354  -1.250  0.00  0.00    +0.074 C 
ATOM      6  C   LIG A   1      -0.424  -1.115  -2.513  0.00  0.00    +0.015 C 
ATOM      7  C   LIG A   1      -2.781   1.417   0.972  0.00  0.00    +0.095 C 
ATOM      8  C   LIG A   1      -3.472   2.418   0.132  0.00  0.00    +0.185 C 
ATOM      9  C   LIG A   1      -3.258   2.364  -1.351  0.00  0.00    +0.002 C 
ATOM     10  C   LIG A   1      -2.683   1.272  -1.899  0.00  0.00    +0.023 C 
ATOM     11  O   LIG A   1      -4.160   3.295   0.666  0.00  0.00    -0.287 OA
ENDROOT
BRANCH   4  12
ATOM     12  C   LIG A   1       0.767  -1.488   0.508  0.00  0.00    +0.000 A 
ATOM     13  C   LIG A   1       1.017  -2.683   1.197  0.00  0.00    +0.057 A 
ATOM     14  C   LIG A   1       2.302  -3.013   1.651  0.00  0.00    +0.166 A 
ATOM     15  C   LIG A   1       3.379  -2.140   1.418  0.00  0.00    +0.203 A 
ATOM     16  C   LIG A   1       3.141  -0.933   0.736  0.00  0.00    +0.166 A 
ATOM     17  C   LIG A   1       1.844  -0.615   0.300  0.00  0.00    +0.057 A 
BRANCH  14  18
ATOM     18  O   LIG A   1       2.360  -4.240   2.262  0.00  0.00    -0.491 OA
ATOM     19  C   LIG A   1       3.349  -4.409   3.269  0.00  0.00    +0.277 C 
ENDBRANCH  14  18
BRANCH  15  20
ATOM     20  O   LIG A   1       4.631  -2.571   1.786  0.00  0.00    -0.488 OA
ATOM     21  C   LIG A   1       5.522  -1.587   2.305  0.00  0.00    +0.277 C 
ENDBRANCH  15  20
BRANCH  16  22
ATOM     22  O   LIG A   1       4.227  -0.161   0.412  0.00  0.00    -0.491 OA
ATOM     23  C   LIG A   1       4.014   1.241   0.331  0.00  0.00    +0.277 C 
ENDBRANCH  16  22
ENDBRANCH   4  12
BRANCH   1  25
ATOM     24  C   LIG A   1      -4.492  -0.887  -0.912  0.00  0.00    +0.195 C 
ATOM     25  O   LIG A   1      -3.147  -1.026  -1.378  0.00  0.00    -0.364 OA
ENDBRANCH   1  25
BRANCH   9  26
ATOM     26  C   LIG A   1      -3.752   3.538  -2.150  0.00  0.00    +0.065 C 
BRANCH  26  27
ATOM     27  C   LIG A   1      -2.695   4.599  -2.280  0.00  0.00    -0.030 C 
ATOM     28  C   LIG A   1      -2.559   5.620  -1.423  0.00  0.00    +0.004 C 
ENDBRANCH  26  27
ENDBRANCH   9  26
TORSDOF 7
