REMARK  Name = NuBBE_833
REMARK  10 active torsions:
REMARK  status: ('A' for Active; 'I' for Inactive)
REMARK    1  A    between atoms: C_3  and  C_4
REMARK    2  A    between atoms: C_3  and  O_5
REMARK    3  A    between atoms: C_6  and  O_8
REMARK    4  A    between atoms: C_12  and  C_13
REMARK    5  A    between atoms: C_16  and  C_17
REMARK    6  A    between atoms: C_17  and  C_18
REMARK    7  A    between atoms: C_20  and  C_21
REMARK    8  A    between atoms: C_20  and  O_22
REMARK    9  A    between atoms: C_23  and  O_25
REMARK   10  A    between atoms: C_31  and  C_32
REMARK                            x       y       z     vdW  Elec       q    Type
REMARK                         _______ _______ _______ _____ _____    ______ ____
ROOT
ATOM      1  C   LIG A   1       0.714  -1.582   0.243  0.00  0.00    +0.078 C 
ENDROOT
BRANCH   1  14
ATOM      2  O   LIG A   1       0.857  -0.651  -2.352  0.00  0.00    -0.289 OA
ATOM      3  C   LIG A   1       1.429   0.083  -1.536  0.00  0.00    +0.194 C 
ATOM      4  C   LIG A   1       2.215   1.304  -2.027  0.00  0.00    +0.155 C 
ATOM      5  C   LIG A   1       1.550   1.883  -3.281  0.00  0.00    +0.053 C 
ATOM      6  C   LIG A   1       2.287   2.353  -0.913  0.00  0.00    +0.187 C 
ATOM      7  C   LIG A   1       2.731   1.754   0.385  0.00  0.00    +0.026 C 
ATOM      8  C   LIG A   1       3.517   2.426   1.244  0.00  0.00    +0.202 C 
ATOM      9  O   LIG A   1       3.860   1.976   2.499  0.00  0.00    -0.468 OA
ATOM     10  C   LIG A   1       3.298   0.785   2.946  0.00  0.00    +0.102 C 
ATOM     11  C   LIG A   1       3.631   0.466   4.369  0.00  0.00    +0.086 C 
ATOM     12  C   LIG A   1       2.513   0.017   2.162  0.00  0.00    +0.050 C 
ATOM     13  C   LIG A   1       2.223   0.434   0.781  0.00  0.00    -0.006 C 
ATOM     14  C   LIG A   1       1.484  -0.311  -0.080  0.00  0.00    +0.010 C 
BRANCH   4  15
ATOM     15  O   LIG A   1       3.540   0.892  -2.398  0.00  0.00    -0.378 OA
ATOM     16  H   LIG A   1       3.439   0.173  -3.051  0.00  0.00    +0.211 HD
ENDBRANCH   4  15
BRANCH   6  17
ATOM     17  O   LIG A   1       1.015   2.964  -0.675  0.00  0.00    -0.384 OA
ATOM     18  H   LIG A   1       0.940   3.729  -1.270  0.00  0.00    +0.210 HD
ENDBRANCH   6  17
ENDBRANCH   1  14
BRANCH   1  19
ATOM     19  C   LIG A   1      -0.775  -1.545  -0.106  0.00  0.00    +0.010 C 
ATOM     20  C   LIG A   1      -1.218  -2.600  -1.088  0.00  0.00    +0.194 C 
ATOM     21  C   LIG A   1      -2.591  -2.474  -1.761  0.00  0.00    +0.155 C 
ATOM     22  C   LIG A   1      -3.037  -3.826  -2.350  0.00  0.00    +0.053 C 
ATOM     23  C   LIG A   1      -3.611  -1.984  -0.722  0.00  0.00    +0.187 C 
ATOM     24  O   LIG A   1      -0.449  -3.521  -1.389  0.00  0.00    -0.289 OA
ATOM     25  C   LIG A   1      -1.700  -0.677   0.380  0.00  0.00    -0.006 C 
ATOM     26  C   LIG A   1      -3.118  -0.780   0.019  0.00  0.00    +0.026 C 
ATOM     27  C   LIG A   1      -3.942   0.217   0.396  0.00  0.00    +0.202 C 
ATOM     28  O   LIG A   1      -3.554   1.300   1.157  0.00  0.00    -0.468 OA
ATOM     29  C   LIG A   1      -2.265   1.302   1.679  0.00  0.00    +0.102 C 
ATOM     30  C   LIG A   1      -2.002   2.383   2.675  0.00  0.00    +0.086 C 
ATOM     31  C   LIG A   1      -1.351   0.375   1.334  0.00  0.00    +0.050 C 
BRANCH  21  32
ATOM     32  O   LIG A   1      -2.545  -1.550  -2.860  0.00  0.00    -0.378 OA
ATOM     33  H   LIG A   1      -1.781  -1.808  -3.411  0.00  0.00    +0.211 HD
ENDBRANCH  21  32
BRANCH  23  34
ATOM     34  O   LIG A   1      -3.896  -2.989   0.259  0.00  0.00    -0.384 OA
ATOM     35  H   LIG A   1      -4.568  -3.582  -0.117  0.00  0.00    +0.210 HD
ENDBRANCH  23  34
ENDBRANCH   1  19
TORSDOF 6
