REMARK  Name = NuBBE_2389
REMARK  10 active torsions:
REMARK  status: ('A' for Active; 'I' for Inactive)
REMARK    1  A    between atoms: C_1  and  C_2
REMARK    2  A    between atoms: C_5  and  C_6
REMARK    3  A    between atoms: C_5  and  C_8
REMARK    4  A    between atoms: C_6  and  O_7
REMARK    5  A    between atoms: C_16  and  C_18
REMARK    6  A    between atoms: C_18  and  C_19
REMARK    7  A    between atoms: C_19  and  C_20
REMARK    8  A    between atoms: C_20  and  C_25
REMARK    9  A    between atoms: C_21  and  C_22
REMARK   10  A    between atoms: C_22  and  O_24
REMARK                            x       y       z     vdW  Elec       q    Type
REMARK                         _______ _______ _______ _____ _____    ______ ____
ROOT
ATOM      1  C   LIG A   1      -1.505  -0.887  -1.702  0.00  0.00    +0.012 C 
ATOM      2  C   LIG A   1      -0.585  -0.701  -0.471  0.00  0.00    -0.022 C 
ATOM      3  C   LIG A   1      -1.357  -0.261   0.847  0.00  0.00    +0.004 C 
ATOM      4  C   LIG A   1      -2.303  -1.332   1.508  0.00  0.00    -0.006 C 
ATOM      5  C   LIG A   1      -2.710  -0.864   2.934  0.00  0.00    +0.014 C 
ATOM      6  C   LIG A   1      -1.496  -2.643   1.694  0.00  0.00    +0.009 C 
ATOM      7  C   LIG A   1      -0.797  -3.121   0.428  0.00  0.00    +0.001 C 
ATOM      8  C   LIG A   1       0.122  -2.054  -0.173  0.00  0.00    +0.007 C 
ATOM      9  C   LIG A   1      -1.998   1.137   0.702  0.00  0.00    +0.009 C 
ATOM     10  C   LIG A   1      -0.954   2.191   0.335  0.00  0.00    +0.031 C 
ATOM     11  C   LIG A   1      -0.228   1.786  -0.922  0.00  0.00    -0.073 C 
ATOM     12  C   LIG A   1      -0.298   2.569  -2.012  0.00  0.00    +0.008 C 
ATOM     13  C   LIG A   1       0.490   0.437  -0.799  0.00  0.00    +0.021 C 
ENDROOT
BRANCH   4  14
ATOM     14  C   LIG A   1      -3.615  -1.587   0.726  0.00  0.00    +0.162 C 
BRANCH  14  15
ATOM     15  O   LIG A   1      -4.452  -2.510   1.422  0.00  0.00    -0.395 OA
ATOM     16  H   LIG A   1      -5.244  -2.647   0.875  0.00  0.00    +0.209 HD
ENDBRANCH  14  15
ENDBRANCH   4  14
BRANCH  13  17
ATOM     17  C   LIG A   1       1.468   0.104  -1.963  0.00  0.00    +0.013 C 
BRANCH  17  18
ATOM     18  C   LIG A   1       2.645   1.087  -2.143  0.00  0.00    +0.031 C 
BRANCH  18  19
ATOM     19  C   LIG A   1       3.549   1.216  -0.939  0.00  0.00    -0.066 C 
ATOM     20  C   LIG A   1       3.679   2.397  -0.307  0.00  0.00    +0.090 C 
ATOM     21  C   LIG A   1       4.257  -0.045  -0.526  0.00  0.00    +0.039 C 
BRANCH  20  22
ATOM     22  C   LIG A   1       4.495   2.642   0.905  0.00  0.00    +0.330 C 
ATOM     23  O   LIG A   1       5.124   1.799   1.512  0.00  0.00    -0.246 OA
BRANCH  22  24
ATOM     24  O   LIG A   1       4.449   3.924   1.300  0.00  0.00    -0.477 OA
ATOM     25  H   LIG A   1       3.896   4.516   0.750  0.00  0.00    +0.295 HD
ENDBRANCH  22  24
ENDBRANCH  20  22
ENDBRANCH  18  19
ENDBRANCH  17  18
ENDBRANCH  13  17
TORSDOF 7
