@<TRIPOS>MOLECULE
NuBBE_1070
 47 51 0 0 0
SMALL
GASTEIGER

@<TRIPOS>ATOM
      1 C          -4.3355    2.0448    5.1390 C.3     1  LIG1        0.0790
      2 O          -3.8393    2.2091    3.8134 O.3     1  LIG1       -0.4914
      3 C          -3.2171    1.1164    3.2607 C.ar    1  LIG1        0.1635
      4 C          -2.2172    1.4406    2.3277 C.ar    1  LIG1        0.0099
      5 C          -1.4933    0.4427    1.6712 C.ar    1  LIG1        0.0823
      6 N          -0.5160    0.8023    0.7323 N.ar    1  LIG1       -0.2271
      7 C           0.0862   -0.1523    0.0989 C.ar    1  LIG1        0.1607
      8 N          -0.1342   -1.5088    0.3031 N.ar    1  LIG1       -0.2908
      9 C          -1.0169   -1.9390    1.2778 C.ar    1  LIG1        0.2622
     10 O          -1.1646   -3.1079    1.6097 O.2     1  LIG1       -0.2669
     11 C           0.7463   -2.5148   -0.3196 C.3     1  LIG1        0.0322
     12 C           1.1946   -2.1704   -1.7510 C.3     1  LIG1       -0.0068
     13 C           1.5670   -0.7341   -1.8225 C.ar    1  LIG1       -0.0096
     14 C           1.0285    0.1728   -0.9328 C.ar    1  LIG1        0.0867
     15 N           1.5054    1.4119   -1.2545 N.ar    1  LIG1       -0.3515
     16 C           2.3340    1.3248   -2.3506 C.ar    1  LIG1        0.0475
     17 C           2.3888   -0.0186   -2.7308 C.ar    1  LIG1        0.0070
     18 C           3.1601   -0.3712   -3.8548 C.ar    1  LIG1       -0.0105
     19 C           3.8506    0.6209   -4.5644 C.ar    1  LIG1        0.1208
     20 C           3.7800    1.9517   -4.1510 C.ar    1  LIG1       -0.0180
     21 C           3.0208    2.3286   -3.0370 C.ar    1  LIG1       -0.0343
     22 O           4.5517    0.1594   -5.6478 O.3     1  LIG1       -0.4951
     23 C           5.2665    1.1306   -6.4019 C.3     1  LIG1        0.0788
     24 C          -1.7889   -0.8849    1.9576 C.ar    1  LIG1        0.0686
     25 C          -2.7938   -1.2304    2.8640 C.ar    1  LIG1       -0.0019
     26 C          -3.5159   -0.2328    3.5201 C.ar    1  LIG1        0.1623
     27 O          -4.5701   -0.5328    4.3387 O.3     1  LIG1       -0.4914
     28 C          -4.4624   -1.7381    5.0875 C.3     1  LIG1        0.0790
     29 H          -3.5827    1.5939    5.7956 H       1  LIG1        0.0660
     30 H          -5.2707    1.4785    5.1489 H       1  LIG1        0.0660
     31 H          -4.5747    3.0355    5.5362 H       1  LIG1        0.0660
     32 H          -1.9998    2.4848    2.1141 H       1  LIG1        0.0677
     33 H           0.2607   -3.4971   -0.3160 H       1  LIG1        0.0496
     34 H           1.6273   -2.5895    0.3320 H       1  LIG1        0.0496
     35 H           0.3649   -2.3531   -2.4446 H       1  LIG1        0.0331
     36 H           2.0278   -2.8166   -2.0463 H       1  LIG1        0.0331
     37 H           1.2518    2.2632   -0.7709 H       1  LIG1        0.1660
     38 H           3.2145   -1.4059   -4.1803 H       1  LIG1        0.0661
     39 H           4.3054    2.7392   -4.6813 H       1  LIG1        0.0655
     40 H           2.9648    3.3676   -2.7291 H       1  LIG1        0.0639
     41 H           5.7214    0.6246   -7.2583 H       1  LIG1        0.0660
     42 H           6.0720    1.5704   -5.8043 H       1  LIG1        0.0660
     43 H           4.5967    1.9037   -6.7935 H       1  LIG1        0.0660
     44 H          -3.0154   -2.2818    3.0137 H       1  LIG1        0.0663
     45 H          -5.2432   -1.7196    5.8533 H       1  LIG1        0.0660
     46 H          -3.4941   -1.8075    5.5950 H       1  LIG1        0.0660
     47 H          -4.6421   -2.6109    4.4533 H       1  LIG1        0.0660
@<TRIPOS>BOND
     1     1     2    1
     2     2     3    1
     3     3     4   ar
     4     4     5   ar
     5     5     6   ar
     6     6     7   ar
     7     7     8   ar
     8     8     9   ar
     9     9    10    2
    10     8    11    1
    11    11    12    1
    12    12    13    1
    13    13    14   ar
    14     7    14    1
    15    14    15   ar
    16    15    16   ar
    17    16    17   ar
    18    13    17   ar
    19    17    18   ar
    20    18    19   ar
    21    19    20   ar
    22    20    21   ar
    23    16    21   ar
    24    19    22    1
    25    22    23    1
    26     5    24   ar
    27     9    24   ar
    28    24    25   ar
    29    25    26   ar
    30     3    26   ar
    31    26    27    1
    32    27    28    1
    33     1    29    1
    34     1    30    1
    35     1    31    1
    36     4    32    1
    37    11    33    1
    38    11    34    1
    39    12    35    1
    40    12    36    1
    41    15    37    1
    42    18    38    1
    43    20    39    1
    44    21    40    1
    45    23    41    1
    46    23    42    1
    47    23    43    1
    48    25    44    1
    49    28    45    1
    50    28    46    1
    51    28    47    1
