REMARK  Name = NuBBE_830
REMARK  5 active torsions:
REMARK  status: ('A' for Active; 'I' for Inactive)
REMARK    1  A    between atoms: C_13  and  C_14
REMARK    2  A    between atoms: C_13  and  C_15
REMARK    3  A    between atoms: C_15  and  O_16
REMARK    4  A    between atoms: O_16  and  C_17
REMARK    5  A    between atoms: C_26  and  C_28
REMARK                            x       y       z     vdW  Elec       q    Type
REMARK                         _______ _______ _______ _____ _____    ______ ____
ROOT
ATOM      1  O   LIG A   1       1.018   3.190  -1.687  0.00  0.00    -0.250 OA
ATOM      2  C   LIG A   1       1.125   2.611  -0.615  0.00  0.00    +0.315 C 
ATOM      3  C   LIG A   1       1.743   1.260  -0.484  0.00  0.00    +0.155 C 
ATOM      4  C   LIG A   1       1.744   0.308  -1.646  0.00  0.00    +0.192 C 
ATOM      5  O   LIG A   1       2.224  -0.893  -1.002  0.00  0.00    -0.460 OA
ATOM      6  C   LIG A   1       1.867  -0.845   0.328  0.00  0.00    +0.315 C 
ATOM      7  O   LIG A   1       2.149  -1.688   1.161  0.00  0.00    -0.250 OA
ATOM      8  C   LIG A   1       0.363   0.049  -2.252  0.00  0.00    +0.050 C 
ATOM      9  C   LIG A   1      -0.712  -0.430  -1.240  0.00  0.00    +0.013 C 
ATOM     10  C   LIG A   1      -1.126  -1.952  -1.403  0.00  0.00    +0.068 C 
ATOM     11  C   LIG A   1       0.056  -2.934  -1.519  0.00  0.00    +0.023 C 
ATOM     12  C   LIG A   1      -2.031  -2.384  -0.228  0.00  0.00    +0.018 C 
ATOM     13  C   LIG A   1      -1.423  -2.071   1.128  0.00  0.00    +0.001 C 
ATOM     14  C   LIG A   1      -1.267  -0.574   1.302  0.00  0.00    +0.005 C 
ATOM     15  C   LIG A   1      -0.451   0.127   0.203  0.00  0.00    +0.011 C 
ATOM     16  C   LIG A   1       1.052   0.399   0.554  0.00  0.00    +0.091 C 
ATOM     17  C   LIG A   1       1.317   1.113   1.873  0.00  0.00    +0.069 C 
ATOM     18  C   LIG A   1       0.701   2.522   1.841  0.00  0.00    +0.211 C 
ATOM     19  O   LIG A   1       0.812   3.210   0.560  0.00  0.00    -0.456 OA
ENDROOT
BRANCH  18  20
ATOM     20  C   LIG A   1       1.252   3.380   2.938  0.00  0.00    +0.030 A 
ATOM     21  C   LIG A   1       0.751   3.516   4.218  0.00  0.00    +0.202 A 
ATOM     22  O   LIG A   1       1.507   4.377   4.945  0.00  0.00    -0.471 OA
ATOM     23  C   LIG A   1       2.506   4.806   4.135  0.00  0.00    +0.195 A 
ATOM     24  C   LIG A   1       2.400   4.224   2.894  0.00  0.00    +0.048 A 
ENDBRANCH  18  20
BRANCH  10  25
ATOM     25  C   LIG A   1      -1.978  -2.106  -2.689  0.00  0.00    +0.313 C 
ATOM     26  O   LIG A   1      -2.294  -1.184  -3.430  0.00  0.00    -0.250 OA
BRANCH  25  27
ATOM     27  O   LIG A   1      -2.362  -3.401  -2.871  0.00  0.00    -0.468 OA
ATOM     28  C   LIG A   1      -3.190  -3.654  -4.010  0.00  0.00    +0.280 C 
ENDBRANCH  25  27
ENDBRANCH  10  25
TORSDOF 3
