@<TRIPOS>MOLECULE
NuBBE_1965
 40 42 0 0 0
SMALL
GASTEIGER

@<TRIPOS>ATOM
      1 O          -1.8556   -0.2232    0.5118 O.2     1  LIG1       -0.2863
      2 C          -0.6722   -0.2644    0.2007 C.ar    1  LIG1        0.2040
      3 C           0.1112    0.9654    0.0010 C.ar    1  LIG1        0.1070
      4 C          -0.4983    2.2209   -0.0817 C.ar    1  LIG1        0.1494
      5 O          -1.9066    2.2737   -0.0197 O.3     1  LIG1       -0.4251
      6 C          -2.6568    3.3286    0.5017 C.2     1  LIG1        0.3092
      7 C          -4.0669    2.8341    0.6475 C.3     1  LIG1        0.0336
      8 O          -2.2644    4.4409    0.7972 O.2     1  LIG1       -0.2507
      9 C           0.2621    3.3643   -0.2759 C.ar    1  LIG1        0.0234
     10 C           1.6516    3.2735   -0.3445 C.ar    1  LIG1        0.1271
     11 O           2.4656    4.3668   -0.4975 O.3     1  LIG1       -0.4949
     12 C           1.9122    5.5819    0.0201 C.3     1  LIG1        0.0788
     13 C           2.2686    2.0174   -0.2814 C.ar    1  LIG1        0.0233
     14 C           1.4953    0.8606   -0.1068 C.ar    1  LIG1        0.1463
     15 O           2.1662   -0.3370   -0.0345 O.2     1  LIG1       -0.4542
     16 C           1.4274   -1.4998   -0.0494 C.ar    1  LIG1        0.1430
     17 C           2.1562   -2.6862   -0.1594 C.ar    1  LIG1        0.0231
     18 C           1.5035   -3.9196   -0.2116 C.ar    1  LIG1        0.1239
     19 O           2.3261   -5.0071   -0.3210 O.3     1  LIG1       -0.4950
     20 C           1.6973   -6.2840   -0.3550 C.3     1  LIG1        0.0788
     21 C           0.1093   -3.9602   -0.1606 C.ar    1  LIG1       -0.0161
     22 C          -0.6462   -2.7813   -0.0430 C.ar    1  LIG1       -0.0326
     23 C          -2.1473   -2.8955   -0.0133 C.3     1  LIG1       -0.0388
     24 C           0.0332   -1.5478    0.0328 C.ar    1  LIG1        0.0678
     25 H          -4.5023    2.6622   -0.3389 H       1  LIG1        0.0342
     26 H          -4.6606    3.5707    1.1900 H       1  LIG1        0.0342
     27 H          -4.0597    1.9047    1.2279 H       1  LIG1        0.0342
     28 H          -0.2411    4.3156   -0.3836 H       1  LIG1        0.0691
     29 H           2.6641    6.3707   -0.0590 H       1  LIG1        0.0660
     30 H           1.6497    5.4625    1.0779 H       1  LIG1        0.0660
     31 H           1.0445    5.9147   -0.5605 H       1  LIG1        0.0660
     32 H           3.3514    1.9404   -0.3575 H       1  LIG1        0.0691
     33 H           3.2418   -2.6522   -0.2100 H       1  LIG1        0.0691
     34 H           2.4816   -7.0448   -0.4054 H       1  LIG1        0.0660
     35 H           1.0716   -6.3894   -1.2480 H       1  LIG1        0.0660
     36 H           1.1174   -6.4649    0.5566 H       1  LIG1        0.0660
     37 H          -0.4224   -4.9057   -0.2146 H       1  LIG1        0.0657
     38 H          -2.4749   -3.9232   -0.2054 H       1  LIG1        0.0278
     39 H          -2.5959   -2.2740   -0.7953 H       1  LIG1        0.0278
     40 H          -2.5369   -2.6094    0.9684 H       1  LIG1        0.0278
@<TRIPOS>BOND
     1     1     2    2
     2     2     3   ar
     3     3     4   ar
     4     4     5    1
     5     5     6    1
     6     6     7    1
     7     6     8    2
     8     4     9   ar
     9     9    10   ar
    10    10    11    1
    11    11    12    1
    12    10    13   ar
    13    13    14   ar
    14     3    14   ar
    15    14    15   ar
    16    15    16   ar
    17    16    17   ar
    18    17    18   ar
    19    18    19    1
    20    19    20    1
    21    18    21   ar
    22    21    22   ar
    23    22    23    1
    24    22    24   ar
    25     2    24   ar
    26    16    24   ar
    27     7    25    1
    28     7    26    1
    29     7    27    1
    30     9    28    1
    31    12    29    1
    32    12    30    1
    33    12    31    1
    34    13    32    1
    35    17    33    1
    36    20    34    1
    37    20    35    1
    38    20    36    1
    39    21    37    1
    40    23    38    1
    41    23    39    1
    42    23    40    1
