REMARK  Name = NuBBE_219
REMARK  7 active torsions:
REMARK  status: ('A' for Active; 'I' for Inactive)
REMARK    1  A    between atoms: O_1  and  C_2
REMARK    2  A    between atoms: C_6  and  C_8
REMARK    3  A    between atoms: C_8  and  C_10
REMARK    4  A    between atoms: C_8  and  C_12
REMARK    5  A    between atoms: C_10  and  O_11
REMARK    6  A    between atoms: C_15  and  C_17
REMARK    7  A    between atoms: C_19  and  C_20
REMARK                            x       y       z     vdW  Elec       q    Type
REMARK                         _______ _______ _______ _____ _____    ______ ____
ROOT
ATOM      1  C   LIG A   1       1.931   2.160   1.308  0.00  0.00    +0.120 A 
ATOM      2  C   LIG A   1       0.761   2.429   0.594  0.00  0.00    +0.049 A 
ATOM      3  C   LIG A   1      -0.135   1.395   0.263  0.00  0.00    -0.038 A 
ATOM      4  C   LIG A   1       0.178   0.083   0.658  0.00  0.00    -0.040 A 
ATOM      5  C   LIG A   1      -0.735  -1.085   0.314  0.00  0.00    +0.024 C 
ATOM      6  C   LIG A   1      -2.184  -0.571   0.420  0.00  0.00    +0.009 C 
ATOM      7  C   LIG A   1      -2.440   0.563  -0.566  0.00  0.00    +0.008 C 
ATOM      8  C   LIG A   1      -1.453   1.740  -0.414  0.00  0.00    +0.016 C 
ATOM      9  C   LIG A   1      -1.242   2.402  -1.781  0.00  0.00    +0.012 C 
ATOM     10  C   LIG A   1       1.349  -0.163   1.403  0.00  0.00    +0.011 A 
ATOM     11  C   LIG A   1       2.231   0.871   1.737  0.00  0.00    -0.009 A 
ATOM     12  C   LIG A   1       3.469   0.584   2.534  0.00  0.00    +0.048 C 
ENDROOT
BRANCH   1  13
ATOM     13  O   LIG A   1       2.800   3.172   1.612  0.00  0.00    -0.506 OA
ATOM     14  H   LIG A   1       2.481   3.988   1.196  0.00  0.00    +0.292 HD
ENDBRANCH   1  13
BRANCH   5  15
ATOM     15  C   LIG A   1      -0.383  -1.718  -1.073  0.00  0.00    +0.019 C 
ATOM     16  C   LIG A   1       1.072  -2.213  -1.135  0.00  0.00    +0.010 C 
BRANCH  15  17
ATOM     17  C   LIG A   1      -1.314  -2.886  -1.438  0.00  0.00    +0.159 C 
BRANCH  17  18
ATOM     18  O   LIG A   1      -1.259  -3.899  -0.444  0.00  0.00    -0.395 OA
ATOM     19  H   LIG A   1      -1.792  -4.647  -0.765  0.00  0.00    +0.209 HD
ENDBRANCH  17  18
ENDBRANCH  15  17
ENDBRANCH   5  15
TORSDOF 4
