@<TRIPOS>MOLECULE
NuBBE_962
 83 87 0 0 0
SMALL
GASTEIGER

@<TRIPOS>ATOM
      1 C          -3.4450   -3.6537   -4.4325 C.3     1  LIG1        0.0817
      2 O          -3.0561   -2.9273   -3.2441 O.3     1  LIG1       -0.4679
      3 C          -1.8446   -2.2927   -3.2569 C.2     1  LIG1        0.3071
      4 C          -1.6708   -1.5083   -1.9566 C.3     1  LIG1        0.0492
      5 C          -0.3887   -0.6147   -1.7429 C.3     1  LIG1       -0.0108
      6 H          -0.2352   -0.1943   -2.7515 H       1  LIG1        0.0321
      7 C           1.0135   -1.3449   -1.4881 C.3     1  LIG1        0.0369
      8 C           1.3408   -2.0464   -0.1247 C.3     1  LIG1       -0.0072
      9 H           2.4057   -2.3394   -0.2170 H       1  LIG1        0.0355
     10 C           1.4236   -1.1131    1.0649 C.2     1  LIG1       -0.0644
     11 C           2.1468    0.2097    0.8340 C.3     1  LIG1       -0.0192
     12 C           1.9524    0.8545   -0.5513 C.3     1  LIG1        0.0484
     13 H           2.8003    1.5366   -0.6764 H       1  LIG1        0.0406
     14 C           2.0942   -0.2474   -1.5618 C.2     1  LIG1        0.1459
     15 O           3.0741   -0.2917   -2.3048 O.2     1  LIG1       -0.2964
     16 C           0.6523    1.6260   -0.8813 C.3     1  LIG1        0.0744
     17 H           0.5272    2.4493   -0.1666 H       1  LIG1        0.0608
     18 C          -0.6525    0.7304   -0.8720 C.3     1  LIG1       -0.0037
     19 C          -1.8386    1.5111   -1.5269 C.3     1  LIG1       -0.0571
     20 C          -1.1704    0.5942    0.5734 C.3     1  LIG1       -0.0571
     21 O           0.7122    2.2305   -2.1976 O.3     1  LIG1       -0.3675
     22 C           1.7559    3.1493   -2.4701 C.3     1  LIG1        0.1103
     23 C           1.9006    4.4535   -1.6661 C.2     1  LIG1        0.1841
     24 C           1.0092    5.6390   -1.9580 C.2     1  LIG1       -0.0099
     25 C           1.6402    6.9609   -1.6080 C.3     1  LIG1       -0.0366
     26 C          -0.2215    5.4754   -2.4809 C.2     1  LIG1       -0.0808
     27 C          -1.1730    6.5573   -2.8999 C.3     1  LIG1       -0.0462
     28 O           2.8023    4.5690   -0.8311 O.2     1  LIG1       -0.2899
     29 C           1.0202   -1.5160    2.2907 C.2     1  LIG1       -0.0497
     30 C           1.7289   -1.0316    3.5271 C.3     1  LIG1        0.0670
     31 C           2.1913   -2.2386    4.3434 C.2     1  LIG1        0.3118
     32 O           1.2679   -3.2075    4.5818 O.3     1  LIG1       -0.4554
     33 C          -0.0585   -3.0353    4.0453 C.3     1  LIG1        0.1399
     34 H          -0.5292   -4.0276    4.1069 H       1  LIG1        0.0795
     35 C          -0.9025   -2.1218    4.9453 C.ar    1  LIG1        0.0312
     36 C          -2.2758   -2.1693    5.1337 C.ar    1  LIG1        0.0984
     37 O          -2.7004   -1.1939    5.9787 O.2     1  LIG1       -0.4706
     38 C          -1.6027   -0.5182    6.3857 C.ar    1  LIG1        0.0921
     39 C          -0.4795   -1.0663    5.8193 C.ar    1  LIG1       -0.0172
     40 O           3.3325   -2.3391    4.7826 O.2     1  LIG1       -0.2505
     41 C           0.0336   -2.6623    2.5144 C.3     1  LIG1        0.0310
     42 C          -1.3840   -2.3052    2.0297 C.3     1  LIG1       -0.0521
     43 C           0.5585   -3.8224    1.6275 C.3     1  LIG1       -0.0396
     44 C           0.6630   -3.4150    0.1360 C.3     1  LIG1       -0.0447
     45 C           1.3374   -2.3325   -2.6306 C.3     1  LIG1       -0.0520
     46 O          -1.0484   -2.3316   -4.2099 O.2     1  LIG1       -0.2509
     47 H          -3.6948   -4.6798   -4.1460 H       1  LIG1        0.0661
     48 H          -2.6742   -3.6855   -5.2092 H       1  LIG1        0.0661
     49 H          -4.3447   -3.1891   -4.8481 H       1  LIG1        0.0661
     50 H          -1.8267   -2.1923   -1.1221 H       1  LIG1        0.0381
     51 H          -2.5415   -0.8450   -1.9821 H       1  LIG1        0.0381
     52 H           3.2196    0.0151    0.9701 H       1  LIG1        0.0318
     53 H           1.8615    0.9463    1.5969 H       1  LIG1        0.0318
     54 H          -1.8219    1.4613   -2.6176 H       1  LIG1        0.0236
     55 H          -1.8350    2.5626   -1.2203 H       1  LIG1        0.0236
     56 H          -2.8067    1.1061   -1.1972 H       1  LIG1        0.0236
     57 H          -0.4437    0.2807    1.3043 H       1  LIG1        0.0236
     58 H          -2.0439   -0.0593    0.6293 H       1  LIG1        0.0236
     59 H          -1.4970    1.5728    0.9557 H       1  LIG1        0.0236
     60 H           1.6617    3.4387   -3.5249 H       1  LIG1        0.0643
     61 H           2.7266    2.6411   -2.4368 H       1  LIG1        0.0643
     62 H           2.0235    6.9552   -0.5819 H       1  LIG1        0.0279
     63 H           0.9511    7.8065   -1.6701 H       1  LIG1        0.0279
     64 H           2.4760    7.1616   -2.2868 H       1  LIG1        0.0279
     65 H          -0.6076    4.4721   -2.6537 H       1  LIG1        0.0573
     66 H          -0.7301    7.5558   -2.8995 H       1  LIG1        0.0272
     67 H          -2.0537    6.5712   -2.2504 H       1  LIG1        0.0272
     68 H          -1.5093    6.3610   -3.9234 H       1  LIG1        0.0272
     69 H           1.1062   -0.3458    4.0910 H       1  LIG1        0.0423
     70 H           2.6384   -0.4695    3.2909 H       1  LIG1        0.0423
     71 H          -3.0659   -2.7947    4.7416 H       1  LIG1        0.1033
     72 H          -1.7658    0.3010    7.0732 H       1  LIG1        0.1029
     73 H           0.5199   -0.7080    6.0191 H       1  LIG1        0.0653
     74 H          -2.0963   -3.1015    2.2696 H       1  LIG1        0.0239
     75 H          -1.4312   -2.1668    0.9525 H       1  LIG1        0.0239
     76 H          -1.7408   -1.3739    2.4771 H       1  LIG1        0.0239
     77 H          -0.1114   -4.6889    1.7007 H       1  LIG1        0.0275
     78 H           1.5420   -4.1638    1.9777 H       1  LIG1        0.0275
     79 H          -0.3296   -3.4370   -0.3140 H       1  LIG1        0.0272
     80 H           1.2255   -4.1983   -0.3905 H       1  LIG1        0.0272
     81 H           0.6849   -3.2080   -2.6190 H       1  LIG1        0.0239
     82 H           2.3675   -2.7048   -2.5650 H       1  LIG1        0.0239
     83 H           1.2602   -1.8354   -3.6041 H       1  LIG1        0.0239
@<TRIPOS>BOND
     1     1     2    1
     2     2     3    1
     3     3     4    1
     4     5     7    1
     5     7     8    1
     6     8    10    1
     7    10    11    1
     8    11    12    1
     9    12    14    1
    10    12    16    1
    11    16    18    1
    12     5    18    1
    13    21    22    1
    14    22    23    1
    15    23    24    1
    16    24    25    1
    17    24    26    2
    18    26    27    1
    19    23    28    2
    20    10    29    2
    21    29    30    1
    22    30    31    1
    23    31    32    1
    24    32    33    1
    25    35    36   ar
    26    36    37   ar
    27    37    38   ar
    28    38    39   ar
    29    35    39   ar
    30    29    41    1
    31    33    41    1
    32    41    43    1
    33    43    44    1
    34     8    44    1
    35    14     7    1
    36     3    46    2
    37     4     5    1
    38     5     6    1
    39     7    45    1
    40     8     9    1
    41    12    13    1
    42    14    15    2
    43    16    17    1
    44    16    21    1
    45    18    19    1
    46    18    20    1
    47    31    40    2
    48    33    34    1
    49    33    35    1
    50    41    42    1
    51     1    47    1
    52     1    48    1
    53     1    49    1
    54     4    50    1
    55     4    51    1
    56    11    52    1
    57    11    53    1
    58    19    54    1
    59    19    55    1
    60    19    56    1
    61    20    57    1
    62    20    58    1
    63    20    59    1
    64    22    60    1
    65    22    61    1
    66    25    62    1
    67    25    63    1
    68    25    64    1
    69    26    65    1
    70    27    66    1
    71    27    67    1
    72    27    68    1
    73    30    69    1
    74    30    70    1
    75    36    71    1
    76    38    72    1
    77    39    73    1
    78    42    74    1
    79    42    75    1
    80    42    76    1
    81    43    77    1
    82    43    78    1
    83    44    79    1
    84    44    80    1
    85    45    81    1
    86    45    82    1
    87    45    83    1
