REMARK  Name = NuBBE_2078
REMARK  2 active torsions:
REMARK  status: ('A' for Active; 'I' for Inactive)
REMARK    1  A    between atoms: C_3  and  C_5
REMARK    2  A    between atoms: C_23  and  O_25
REMARK                            x       y       z     vdW  Elec       q    Type
REMARK                         _______ _______ _______ _____ _____    ______ ____
ROOT
ATOM      1  O   LIG A   1       1.089  -2.010   3.291  0.00  0.00    -0.251 OA
ATOM      2  C   LIG A   1       1.168  -1.480   2.195  0.00  0.00    +0.311 C 
ATOM      3  C   LIG A   1       1.225   0.030   1.870  0.00  0.00    +0.102 C 
ATOM      4  C   LIG A   1       0.816   1.254   2.729  0.00  0.00    +0.020 C 
ATOM      5  O   LIG A   1       1.072  -2.195   1.023  0.00  0.00    -0.461 OA
ATOM      6  C   LIG A   1       0.974  -1.255  -0.021  0.00  0.00    +0.181 C 
ATOM      7  C   LIG A   1       0.390   0.001   0.598  0.00  0.00    +0.053 C 
ATOM      8  C   LIG A   1      -1.251   0.235   0.496  0.00  0.00    +0.015 C 
ATOM      9  C   LIG A   1      -1.373  -0.513   2.015  0.00  0.00    +0.022 C 
ATOM     10  C   LIG A   1      -2.539  -0.260   2.967  0.00  0.00    +0.121 C 
ATOM     11  C   LIG A   1      -3.655  -0.956   2.365  0.00  0.00    +0.307 C 
ATOM     12  O   LIG A   1      -3.759  -0.617   1.051  0.00  0.00    -0.464 OA
ATOM     13  C   LIG A   1      -2.572  -0.723   0.140  0.00  0.00    +0.239 C 
ATOM     14  O   LIG A   1      -4.468  -1.685   2.978  0.00  0.00    -0.251 OA
ATOM     15  C   LIG A   1      -0.711   0.522  -1.288  0.00  0.00    +0.005 C 
ATOM     16  C   LIG A   1      -0.154   1.971  -1.712  0.00  0.00    +0.004 C 
ATOM     17  C   LIG A   1       1.367   2.214  -2.001  0.00  0.00    +0.003 C 
ATOM     18  C   LIG A   1       2.068   1.247  -2.936  0.00  0.00    +0.031 C 
ATOM     19  C   LIG A   1       1.713  -0.176  -2.611  0.00  0.00    +0.118 C 
ATOM     20  C   LIG A   1       0.214  -0.514  -2.151  0.00  0.00    +0.025 C 
ATOM     21  C   LIG A   1       0.316  -1.755  -1.293  0.00  0.00    +0.051 C 
ENDROOT
BRANCH  19  22
ATOM     22  O   LIG A   1       2.095  -1.024  -3.724  0.00  0.00    -0.392 OA
ATOM     23  H   LIG A   1       3.085  -0.997  -3.765  0.00  0.00    +0.210 HD
ENDBRANCH  19  22
TORSDOF 1
