@<TRIPOS>MOLECULE
NuBBE_1365
 79 85 0 0 0
SMALL
GASTEIGER

@<TRIPOS>ATOM
      1 O           0.1632   -3.8035   -1.2851 O.3     1  LIG1       -0.3845
      2 C           1.1025   -2.8164   -0.9179 C.3     1  LIG1        0.1143
      3 C           0.3896   -1.1082   -0.3496 C.3     1  LIG1        0.1092
      4 C           1.5837    0.2682    0.2082 C.3     1  LIG1        0.0052
      5 H           1.9824    0.7606   -0.6898 H       1  LIG1        0.0338
      6 C           3.1149   -0.3239    1.1593 C.3     1  LIG1       -0.0460
      7 C           3.8270   -2.0602    0.9706 C.3     1  LIG1       -0.0408
      8 C           2.5367   -3.2831    0.3040 C.3     1  LIG1        0.0412
      9 C           1.6535   -2.6877    1.2268 C.3     1  LIG1        0.1390
     10 H           1.9930   -2.2132    2.1489 H       1  LIG1        0.0793
     11 C           0.3737   -3.5375    1.4988 C.ar    1  LIG1        0.0310
     12 C           0.0085   -4.8101    1.0579 C.ar    1  LIG1        0.0984
     13 O          -1.2050   -5.2040    1.5051 O.2     1  LIG1       -0.4706
     14 C          -1.6283   -4.2445    2.3499 C.ar    1  LIG1        0.0921
     15 C          -0.6701   -3.2621    2.4605 C.ar    1  LIG1       -0.0172
     16 O           2.3041   -1.6224   -0.1283 O.3     1  LIG1       -0.4557
     17 C           2.7744   -1.6681   -1.4735 C.2     1  LIG1        0.3106
     18 C           1.8894   -2.5786   -2.1770 C.3     1  LIG1        0.0771
     19 O           3.6716   -1.0134   -1.9332 O.2     1  LIG1       -0.2507
     20 C           3.0554   -4.6910    0.4068 C.3     1  LIG1       -0.0531
     21 C           0.6051    1.2603    1.0629 C.3     1  LIG1        0.0711
     22 C          -0.5893    0.3545    0.9658 C.3     1  LIG1        0.2148
     23 C          -1.1327    0.5989   -0.5292 C.3     1  LIG1        0.2091
     24 O          -0.1951    1.3129   -1.4445 O.3     1  LIG1       -0.1674
     25 O          -0.8630    1.4743   -2.7500 O.3     1  LIG1       -0.2966
     26 C           0.0228    2.1262   -3.5695 C.2     1  LIG1        0.3400
     27 C          -0.7125    2.7314   -4.7274 C.3     1  LIG1        0.0363
     28 O           1.2133    2.2934   -3.3480 O.2     1  LIG1       -0.2479
     29 C          -2.2785    1.5766   -0.3845 C.3     1  LIG1        0.1464
     30 H          -2.7442    1.7593   -1.3583 H       1  LIG1        0.0772
     31 O          -3.3908    1.2850    0.4808 O.3     1  LIG1       -0.4577
     32 C          -4.1206    0.1682    0.2742 C.2     1  LIG1        0.3043
     33 C          -5.5728    0.5222    0.2945 C.3     1  LIG1        0.0332
     34 O          -3.6826   -0.9285   -0.0255 O.2     1  LIG1       -0.2512
     35 C          -1.5781    2.9394    0.1237 C.3     1  LIG1        0.0094
     36 C          -1.6712    3.9845   -1.0166 C.3     1  LIG1       -0.0561
     37 C          -2.4107    3.6064    1.2724 C.3     1  LIG1       -0.0561
     38 C          -0.0314    2.7293    0.6953 C.3     1  LIG1       -0.0082
     39 H          -0.2257    3.1558    1.6898 H       1  LIG1        0.0321
     40 C           1.0671    3.6670    0.2365 C.3     1  LIG1        0.0492
     41 C           2.2958    3.5769    1.1262 C.2     1  LIG1        0.3074
     42 O           2.3609    2.5962    2.0731 O.3     1  LIG1       -0.4639
     43 C           1.2792    1.6566    2.3689 C.3     1  LIG1        0.1037
     44 O           3.2156    4.3820    0.9937 O.2     1  LIG1       -0.2508
     45 C          -0.9109   -0.7727   -1.1111 C.3     1  LIG1        0.0214
     46 O          -1.4375    0.5357    2.0638 O.3     1  LIG1       -0.3616
     47 O          -0.1983   -1.0206    0.9783 O.3     1  LIG1       -0.3356
     48 H          -0.5042   -3.4139   -1.8753 H       1  LIG1        0.2103
     49 H           2.9260   -0.2803    2.2282 H       1  LIG1        0.0269
     50 H           3.9272    0.3686    0.9098 H       1  LIG1        0.0269
     51 H           4.1434   -2.3900    1.9700 H       1  LIG1        0.0273
     52 H           4.6816   -2.0286    0.2857 H       1  LIG1        0.0273
     53 H           0.4360   -5.5161    0.3621 H       1  LIG1        0.1033
     54 H          -2.5976   -4.4226    2.7951 H       1  LIG1        0.1029
     55 H          -0.7488   -2.4147    3.1223 H       1  LIG1        0.0653
     56 H           2.4009   -3.4733   -2.5352 H       1  LIG1        0.0407
     57 H           1.3161   -2.0852   -2.9607 H       1  LIG1        0.0407
     58 H           3.2670   -4.9541    1.4501 H       1  LIG1        0.0237
     59 H           3.9920   -4.7789   -0.1512 H       1  LIG1        0.0237
     60 H           2.3892   -5.4422   -0.0123 H       1  LIG1        0.0237
     61 H          -1.1817    3.6647   -4.4030 H       1  LIG1        0.0343
     62 H          -1.4722    2.0427   -5.1046 H       1  LIG1        0.0343
     63 H          -0.0091    2.9434   -5.5367 H       1  LIG1        0.0343
     64 H          -5.7830    1.1216   -0.5968 H       1  LIG1        0.0342
     65 H          -5.8233    1.0828    1.1973 H       1  LIG1        0.0342
     66 H          -6.1747   -0.3885    0.2601 H       1  LIG1        0.0342
     67 H          -1.0003    3.7704   -1.8431 H       1  LIG1        0.0236
     68 H          -1.4395    4.9967   -0.6707 H       1  LIG1        0.0236
     69 H          -2.6937    4.0185   -1.4181 H       1  LIG1        0.0236
     70 H          -2.4062    3.0061    2.1878 H       1  LIG1        0.0236
     71 H          -3.4527    3.7743    0.9774 H       1  LIG1        0.0236
     72 H          -1.9923    4.5886    1.5316 H       1  LIG1        0.0236
     73 H           0.7068    4.7024    0.3093 H       1  LIG1        0.0381
     74 H           1.3572    3.4741   -0.7986 H       1  LIG1        0.0381
     75 H           0.6159    2.1515    3.0885 H       1  LIG1        0.0705
     76 H           1.6713    0.8298    2.9525 H       1  LIG1        0.0705
     77 H          -0.7458   -0.8175   -2.1907 H       1  LIG1        0.0326
     78 H          -1.6833   -1.4974   -0.8551 H       1  LIG1        0.0326
     79 H          -1.3563   -0.3049    2.5466 H       1  LIG1        0.2129
@<TRIPOS>BOND
     1     2     3    1
     2     3     4    1
     3     4     6    1
     4     6     7    1
     5     7     8    1
     6     8     9    1
     7    11    12   ar
     8    12    13   ar
     9    13    14   ar
    10    14    15   ar
    11    11    15   ar
    12     9    16    1
    13    16    17    1
    14    17    18    1
    15     2    18    1
    16     2     8    1
    17     4    21    1
    18    21    22    1
    19    22    23    1
    20    24    25    1
    21    25    26    1
    22    26    27    1
    23    26    28    2
    24    23    29    1
    25    31    32    1
    26    32    33    1
    27    32    34    2
    28    29    35    1
    29    35    38    1
    30    21    38    1
    31    38    40    1
    32    40    41    1
    33    41    42    1
    34    42    43    1
    35    21    43    1
    36    23    45    1
    37     3    45    1
    38    22    47    1
    39     3    47    1
    40     1     2    1
    41     4     5    1
    42     8    20    1
    43     9    10    1
    44     9    11    1
    45    17    19    2
    46    22    46    1
    47    23    24    1
    48    29    30    1
    49    29    31    1
    50    35    36    1
    51    35    37    1
    52    38    39    1
    53    41    44    2
    54     1    48    1
    55     6    49    1
    56     6    50    1
    57     7    51    1
    58     7    52    1
    59    12    53    1
    60    14    54    1
    61    15    55    1
    62    18    56    1
    63    18    57    1
    64    20    58    1
    65    20    59    1
    66    20    60    1
    67    27    61    1
    68    27    62    1
    69    27    63    1
    70    33    64    1
    71    33    65    1
    72    33    66    1
    73    36    67    1
    74    36    68    1
    75    36    69    1
    76    37    70    1
    77    37    71    1
    78    37    72    1
    79    40    73    1
    80    40    74    1
    81    43    75    1
    82    43    76    1
    83    45    77    1
    84    45    78    1
    85    46    79    1
