@<TRIPOS>MOLECULE
NuBBE_1996
 35 37 0 0 0
SMALL
GASTEIGER

@<TRIPOS>ATOM
      1 O          -4.1646   -1.3165   -1.3479 O.3     1  LIG1       -0.5063
      2 C          -2.8005   -1.2345   -1.3895 C.ar    1  LIG1        0.1267
      3 C          -2.0394   -2.3922   -1.5414 C.ar    1  LIG1        0.0225
      4 C          -0.6469   -2.3016   -1.5808 C.ar    1  LIG1        0.1343
      5 O           0.0786   -3.4438   -1.7651 O.3     1  LIG1       -0.5058
      6 C          -0.0128   -1.0597   -1.4495 C.ar    1  LIG1        0.1009
      7 C           1.4617   -0.8941   -1.5391 C.2     1  LIG1        0.1740
      8 C           1.9492    0.5223   -1.6358 C.3     1  LIG1        0.0520
      9 C           1.1296    1.3861   -0.6899 C.3     1  LIG1        0.1322
     10 H           1.4396    2.4263   -0.8569 H       1  LIG1        0.0789
     11 C           1.3318    1.1529    0.8084 C.ar    1  LIG1       -0.0067
     12 C           2.6145    0.9229    1.3386 C.ar    1  LIG1       -0.0516
     13 C           2.8098    0.7481    2.7128 C.ar    1  LIG1       -0.0198
     14 C           1.7223    0.8143    3.5734 C.ar    1  LIG1        0.1169
     15 O           1.8677    0.6510    4.9186 O.3     1  LIG1       -0.5068
     16 C           0.4490    1.0612    3.0828 C.ar    1  LIG1       -0.0198
     17 C           0.2564    1.2405    1.7105 C.ar    1  LIG1       -0.0516
     18 O          -0.2526    1.3484   -1.0876 O.3     1  LIG1       -0.4826
     19 O           2.2505   -1.8295   -1.6041 O.2     1  LIG1       -0.2917
     20 C          -0.7908    0.0952   -1.2710 C.ar    1  LIG1        0.1417
     21 C          -2.1974    0.0233   -1.2748 C.ar    1  LIG1        0.0335
     22 C          -3.0327    1.2609   -1.0812 C.3     1  LIG1       -0.0327
     23 H          -4.4395   -2.2438   -1.4333 H       1  LIG1        0.2921
     24 H          -2.5270   -3.3564   -1.6393 H       1  LIG1        0.0691
     25 H          -0.4982   -4.2229   -1.7724 H       1  LIG1        0.2922
     26 H           1.8119    0.8426   -2.6759 H       1  LIG1        0.0385
     27 H           3.0192    0.5568   -1.4134 H       1  LIG1        0.0385
     28 H           3.4894    0.8825    0.6942 H       1  LIG1        0.0623
     29 H           3.8131    0.5679    3.0861 H       1  LIG1        0.0654
     30 H           2.8026    0.4690    5.1079 H       1  LIG1        0.2921
     31 H          -0.3944    1.1202    3.7649 H       1  LIG1        0.0654
     32 H          -0.7508    1.4517    1.3581 H       1  LIG1        0.0623
     33 H          -2.5733    2.1296   -1.5641 H       1  LIG1        0.0280
     34 H          -3.1504    1.4675   -0.0130 H       1  LIG1        0.0280
     35 H          -4.0254    1.1537   -1.5303 H       1  LIG1        0.0280
@<TRIPOS>BOND
     1     1     2    1
     2     2     3   ar
     3     3     4   ar
     4     4     5    1
     5     4     6   ar
     6     6     7    1
     7     7     8    1
     8     8     9    1
     9    11    12   ar
    10    12    13   ar
    11    13    14   ar
    12    14    15    1
    13    14    16   ar
    14    16    17   ar
    15    11    17   ar
    16     9    18    1
    17     7    19    2
    18     6    20   ar
    19    18    20    1
    20    20    21   ar
    21     2    21   ar
    22    21    22    1
    23     9    11    1
    24     9    10    1
    25     1    23    1
    26     3    24    1
    27     5    25    1
    28     8    26    1
    29     8    27    1
    30    12    28    1
    31    13    29    1
    32    15    30    1
    33    16    31    1
    34    17    32    1
    35    22    33    1
    36    22    34    1
    37    22    35    1
