REMARK  Name = NuBBE_1152
REMARK  11 active torsions:
REMARK  status: ('A' for Active; 'I' for Inactive)
REMARK    1  A    between atoms: C_2  and  C_3
REMARK    2  A    between atoms: C_2  and  O_17
REMARK    3  A    between atoms: C_3  and  C_4
REMARK    4  A    between atoms: C_4  and  C_5
REMARK    5  A    between atoms: C_5  and  C_6
REMARK    6  A    between atoms: C_6  and  C_7
REMARK    7  A    between atoms: C_7  and  C_8
REMARK    8  A    between atoms: C_8  and  C_9
REMARK    9  A    between atoms: C_9  and  C_10
REMARK   10  A    between atoms: C_10  and  C_11
REMARK   11  A    between atoms: O_17  and  C_18
REMARK                            x       y       z     vdW  Elec       q    Type
REMARK                         _______ _______ _______ _____ _____    ______ ____
ROOT
ATOM      1  C   LIG A   1       0.402   0.046  -0.142  0.00  0.00    +0.000 C 
ENDROOT
BRANCH   1   2
ATOM      2  C   LIG A   1      -0.425   0.970  -1.041  0.00  0.00    +0.000 C 
BRANCH   2   3
ATOM      3  C   LIG A   1       0.468   1.864  -1.912  0.00  0.00    +0.000 C 
BRANCH   3   4
ATOM      4  C   LIG A   1      -0.371   2.787  -2.796  0.00  0.00    +0.011 C 
BRANCH   4   5
ATOM      5  C   LIG A   1       0.481   3.704  -3.679  0.00  0.00    +0.120 C 
BRANCH   5   7
ATOM      6  O   LIG A   1       0.021   5.005  -5.668  0.00  0.00    -0.251 OA
ATOM      7  C   LIG A   1      -0.354   4.599  -4.576  0.00  0.00    +0.307 C 
BRANCH   7   8
ATOM      8  O   LIG A   1      -1.532   4.930  -3.972  0.00  0.00    -0.468 OA
ATOM      9  C   LIG A   1      -2.386   5.777  -4.735  0.00  0.00    +0.280 C 
ENDBRANCH   7   8
ENDBRANCH   5   7
ENDBRANCH   4   5
ENDBRANCH   3   4
ENDBRANCH   2   3
ENDBRANCH   1   2
BRANCH   1  10
ATOM     10  C   LIG A   1      -0.486  -0.861   0.717  0.00  0.00    +0.000 C 
BRANCH  10  11
ATOM     11  C   LIG A   1       0.354  -1.777   1.612  0.00  0.00    +0.005 C 
BRANCH  11  12
ATOM     12  C   LIG A   1      -0.527  -2.678   2.488  0.00  0.00    +0.035 C 
BRANCH  12  13
ATOM     13  C   LIG A   1       0.274  -3.597   3.381  0.00  0.00    -0.047 A 
ATOM     14  C   LIG A   1       0.151  -4.989   3.271  0.00  0.00    +0.003 A 
ATOM     15  C   LIG A   1       0.890  -5.836   4.101  0.00  0.00    +0.000 A 
ATOM     16  C   LIG A   1       1.754  -5.301   5.054  0.00  0.00    +0.000 A 
ATOM     17  C   LIG A   1       1.877  -3.920   5.182  0.00  0.00    +0.000 A 
ATOM     18  C   LIG A   1       1.138  -3.073   4.353  0.00  0.00    +0.003 A 
ENDBRANCH  12  13
ENDBRANCH  11  12
ENDBRANCH  10  11
ENDBRANCH   1  10
TORSDOF 10
