REMARK  Name = NuBBE_75
REMARK  8 active torsions:
REMARK  status: ('A' for Active; 'I' for Inactive)
REMARK    1  A    between atoms: C_1  and  C_2
REMARK    2  A    between atoms: C_4  and  C_5
REMARK    3  A    between atoms: C_4  and  C_10
REMARK    4  A    between atoms: C_14  and  C_34
REMARK    5  A    between atoms: C_21  and  C_33
REMARK    6  A    between atoms: C_24  and  C_32
REMARK    7  A    between atoms: C_27  and  C_28
REMARK    8  A    between atoms: C_27  and  C_31
REMARK                            x       y       z     vdW  Elec       q    Type
REMARK                         _______ _______ _______ _____ _____    ______ ____
ROOT
ATOM      1  C   LIG A   1       1.271   2.450   0.942  0.00  0.00    +0.012 C 
ATOM      2  C   LIG A   1       1.895   1.986  -0.406  0.00  0.00    -0.025 C 
ATOM      3  C   LIG A   1       1.511   2.619  -1.822  0.00  0.00    +0.008 C 
ATOM      4  C   LIG A   1       1.521   4.172  -1.892  0.00  0.00    +0.027 C 
ATOM      5  C   LIG A   1       1.219   4.729  -3.305  0.00  0.00    +0.019 C 
ATOM      6  C   LIG A   1       3.015   4.479  -1.617  0.00  0.00    +0.139 C 
ATOM      7  C   LIG A   1       3.568   3.959  -0.302  0.00  0.00    +0.075 C 
ATOM      8  C   LIG A   1       3.412   2.426  -0.252  0.00  0.00    +0.015 C 
ATOM      9  O   LIG A   1       3.756   4.936  -2.448  0.00  0.00    -0.297 OA
ATOM     10  C   LIG A   1       0.490   4.832  -0.963  0.00  0.00    +0.019 C 
ATOM     11  C   LIG A   1       0.338   1.992  -2.542  0.00  0.00    +0.005 C 
ATOM     12  C   LIG A   1       0.561   0.455  -2.694  0.00  0.00    +0.008 C 
ATOM     13  C   LIG A   1       0.307  -0.203  -1.291  0.00  0.00    -0.023 C 
ATOM     14  C   LIG A   1       1.691   0.406  -0.484  0.00  0.00    +0.002 C 
ATOM     15  C   LIG A   1       2.322  -0.332   0.784  0.00  0.00    +0.005 C 
ATOM     16  C   LIG A   1       2.184  -1.884   0.845  0.00  0.00    +0.009 C 
ATOM     17  C   LIG A   1       0.681  -2.168   0.662  0.00  0.00    +0.022 C 
ATOM     18  C   LIG A   1       0.383  -1.810  -1.071  0.00  0.00    -0.020 C 
ATOM     19  C   LIG A   1      -0.864  -2.591  -1.529  0.00  0.00    +0.008 C 
ATOM     20  C   LIG A   1      -1.493  -3.163  -0.326  0.00  0.00    +0.011 C 
ATOM     21  C   LIG A   1      -1.802  -2.120   0.806  0.00  0.00    -0.011 C 
ATOM     22  C   LIG A   1      -0.668  -2.568   1.679  0.00  0.00    -0.063 C 
ATOM     23  C   LIG A   1      -1.124  -2.877   2.942  0.00  0.00    -0.021 C 
ATOM     24  C   LIG A   1      -2.744  -3.086   3.268  0.00  0.00    -0.017 C 
ATOM     25  C   LIG A   1      -3.626  -1.854   3.736  0.00  0.00    +0.015 C 
ATOM     26  C   LIG A   1      -3.406  -3.530   1.938  0.00  0.00    +0.011 C 
ATOM     27  C   LIG A   1      -3.284  -2.366   0.999  0.00  0.00    +0.012 C 
ATOM     28  C   LIG A   1      -3.012  -4.221   4.278  0.00  0.00    +0.015 C 
ATOM     29  C   LIG A   1      -1.627  -0.566   1.222  0.00  0.00    +0.016 C 
ATOM     30  C   LIG A   1       1.445  -2.342  -2.077  0.00  0.00    +0.012 C 
ATOM     31  C   LIG A   1      -1.266   0.184  -1.328  0.00  0.00    +0.012 C 
ENDROOT
TORSDOF 0
