@<TRIPOS>MOLECULE
NuBBE_38
 74 78 0 0 0
SMALL
GASTEIGER

@<TRIPOS>ATOM
      1 C          -5.2411    2.4475   -0.4984 C.3     1  LIG1        0.0788
      2 O          -3.8709    2.1737   -0.8024 O.3     1  LIG1       -0.4945
      3 C          -2.9621    2.4511    0.1918 C.ar    1  LIG1        0.1328
      4 C          -3.2724    3.3786    1.2002 C.ar    1  LIG1        0.0228
      5 C          -2.3706    3.6664    2.2202 C.ar    1  LIG1        0.1347
      6 O          -2.7199    4.5812    3.1676 O.3     1  LIG1       -0.5058
      7 C          -1.1238    3.0601    2.2213 C.ar    1  LIG1        0.1058
      8 C          -0.1815    3.3262    3.3312 C.ar    1  LIG1        0.1966
      9 C           1.2090    2.9513    3.0735 C.ar    1  LIG1        0.0288
     10 C           1.5146    2.1974    2.0200 C.ar    1  LIG1        0.1392
     11 O           0.5679    1.7324    1.0892 O.2     1  LIG1       -0.4540
     12 C          -0.7448    2.2010    1.1695 C.ar    1  LIG1        0.1520
     13 C          -1.6866    1.8274    0.1500 C.ar    1  LIG1        0.0684
     14 C          -1.3057    0.7623   -0.9114 C.3     1  LIG1        0.1197
     15 H          -0.2661    0.9957   -1.1440 H       1  LIG1        0.0676
     16 O          -1.9353    0.9369   -2.2057 O.3     1  LIG1       -0.3609
     17 C          -2.3425   -0.2861   -2.8417 C.3     1  LIG1        0.1108
     18 H          -1.4793   -0.9433   -2.9852 H       1  LIG1        0.0646
     19 C          -3.3975   -0.9840   -1.9658 C.3     1  LIG1        0.1118
     20 H          -4.2567   -0.3182   -1.8245 H       1  LIG1        0.0647
     21 C          -2.7850   -1.3297   -0.5920 C.3     1  LIG1        0.1124
     22 H          -2.7019   -2.4232   -0.5059 H       1  LIG1        0.0647
     23 O          -3.6586   -0.9223    0.4697 O.3     1  LIG1       -0.3865
     24 O          -3.9216   -2.1901   -2.5383 O.3     1  LIG1       -0.3865
     25 C          -2.8260   -0.0128   -4.2695 C.3     1  LIG1        0.0729
     26 O          -3.2079   -1.2296   -4.9185 O.3     1  LIG1       -0.3924
     27 C          -1.3800   -0.7157   -0.3899 C.3     1  LIG1        0.1204
     28 H          -1.1480   -0.7658    0.6777 H       1  LIG1        0.0653
     29 O          -0.4681   -1.6152   -1.0985 O.3     1  LIG1       -0.3399
     30 C           0.9326   -1.3493   -0.9859 C.3     1  LIG1        0.1883
     31 H           1.1507   -0.3789   -1.4372 H       1  LIG1        0.0938
     32 O           1.6706   -2.2648   -1.8001 O.3     1  LIG1       -0.3431
     33 C           2.0156   -3.5479   -1.2712 C.3     1  LIG1        0.0873
     34 H           1.4140   -4.2752   -1.8277 H       1  LIG1        0.0621
     35 C           1.8681   -3.8061    0.2521 C.3     1  LIG1        0.1095
     36 H           2.8577   -3.8822    0.7196 H       1  LIG1        0.0646
     37 C           1.0639   -2.7555    1.0044 C.3     1  LIG1        0.1140
     38 H          -0.0101   -2.9607    0.9355 H       1  LIG1        0.0648
     39 O           1.3807   -2.7829    2.4037 O.3     1  LIG1       -0.3864
     40 O           1.2571   -5.0879    0.4881 O.3     1  LIG1       -0.3866
     41 C           3.4811   -3.7882   -1.6659 C.3     1  LIG1       -0.0361
     42 C           1.4055   -1.3878    0.4622 C.3     1  LIG1        0.1341
     43 H           0.9129   -0.6272    1.0645 H       1  LIG1        0.0671
     44 O           2.8104   -1.1648    0.5576 O.3     1  LIG1       -0.3841
     45 C           2.9441    1.8342    1.7877 C.ar    1  LIG1        0.0176
     46 C           3.4435    1.6383    0.4941 C.ar    1  LIG1       -0.0476
     47 C           4.7970    1.3326    0.2742 C.ar    1  LIG1       -0.0195
     48 C           5.6711    1.2418    1.3509 C.ar    1  LIG1        0.1169
     49 C           5.2089    1.4169    2.6437 C.ar    1  LIG1       -0.0195
     50 C           3.8550    1.6997    2.8600 C.ar    1  LIG1       -0.0476
     51 O           6.9977    0.9819    1.1812 O.3     1  LIG1       -0.5068
     52 O          -0.4715    3.7996    4.3980 O.2     1  LIG1       -0.2869
     53 H          -5.5385    1.9414    0.4271 H       1  LIG1        0.0660
     54 H          -5.8580    2.0570   -1.3116 H       1  LIG1        0.0660
     55 H          -5.4437    3.5243   -0.4353 H       1  LIG1        0.0660
     56 H          -4.2169    3.9094    1.2116 H       1  LIG1        0.0691
     57 H          -3.6439    4.8578    3.0700 H       1  LIG1        0.2922
     58 H           1.9178    3.3293    3.8012 H       1  LIG1        0.0693
     59 H          -4.5470   -1.2592    0.2458 H       1  LIG1        0.2100
     60 H          -4.0490   -2.0265   -3.4983 H       1  LIG1        0.2100
     61 H          -3.6780    0.6719   -4.2823 H       1  LIG1        0.0584
     62 H          -2.0252    0.4518   -4.8559 H       1  LIG1        0.0584
     63 H          -2.3868   -1.7266   -5.1023 H       1  LIG1        0.2095
     64 H           1.1725   -3.6880    2.7032 H       1  LIG1        0.2100
     65 H           0.4584   -5.1397   -0.0687 H       1  LIG1        0.2100
     66 H           3.6319   -3.6465   -2.7409 H       1  LIG1        0.0255
     67 H           3.8085   -4.7969   -1.3939 H       1  LIG1        0.0255
     68 H           4.1393   -3.0675   -1.1638 H       1  LIG1        0.0255
     69 H           3.0189   -1.2013    1.5122 H       1  LIG1        0.2101
     70 H           2.7792    1.6852   -0.3653 H       1  LIG1        0.0626
     71 H           5.1390    1.1489   -0.7394 H       1  LIG1        0.0654
     72 H           5.8958    1.3405    3.4827 H       1  LIG1        0.0654
     73 H           3.5375    1.8191    3.8940 H       1  LIG1        0.0626
     74 H           7.1938    0.9765    0.2299 H       1  LIG1        0.2921
@<TRIPOS>BOND
     1     1     2    1
     2     2     3    1
     3     3     4   ar
     4     4     5   ar
     5     5     6    1
     6     5     7   ar
     7     7     8   ar
     8     8     9   ar
     9     9    10   ar
    10    10    11   ar
    11    11    12   ar
    12     7    12   ar
    13    12    13   ar
    14     3    13   ar
    15    13    14    1
    16    14    15    1
    17    14    16    1
    18    16    17    1
    19    17    19    1
    20    19    20    1
    21    19    21    1
    22    19    24    1
    23    25    26    1
    24    14    27    1
    25    21    27    1
    26    29    30    1
    27    30    31    1
    28    30    32    1
    29    32    33    1
    30    33    34    1
    31    33    35    1
    32    35    37    1
    33    37    38    1
    34    37    39    1
    35    33    41    1
    36    30    42    1
    37    37    42    1
    38    10    45    1
    39    45    46   ar
    40    46    47   ar
    41    47    48   ar
    42    48    49   ar
    43    49    50   ar
    44    45    50   ar
    45    48    51    1
    46     8    52    2
    47    17    25    1
    48    17    18    1
    49    21    23    1
    50    21    22    1
    51    27    29    1
    52    27    28    1
    53    35    40    1
    54    35    36    1
    55    42    44    1
    56    42    43    1
    57     1    53    1
    58     1    54    1
    59     1    55    1
    60     4    56    1
    61     6    57    1
    62     9    58    1
    63    23    59    1
    64    24    60    1
    65    25    61    1
    66    25    62    1
    67    26    63    1
    68    39    64    1
    69    40    65    1
    70    41    66    1
    71    41    67    1
    72    41    68    1
    73    44    69    1
    74    46    70    1
    75    47    71    1
    76    49    72    1
    77    50    73    1
    78    51    74    1
