REMARK  Name = NuBBE_2381
REMARK  12 active torsions:
REMARK  status: ('A' for Active; 'I' for Inactive)
REMARK    1  A    between atoms: C_1  and  C_26
REMARK    2  A    between atoms: C_1  and  C_27
REMARK    3  A    between atoms: C_3  and  C_4
REMARK    4  A    between atoms: C_4  and  O_6
REMARK    5  A    between atoms: O_6  and  C_7
REMARK    6  A    between atoms: C_9  and  O_21
REMARK    7  A    between atoms: C_10  and  O_11
REMARK    8  A    between atoms: O_11  and  C_12
REMARK    9  A    between atoms: C_13  and  C_18
REMARK   10  A    between atoms: C_18  and  C_19
REMARK   11  A    between atoms: C_18  and  C_20
REMARK   12  A    between atoms: O_21  and  C_22
REMARK                            x       y       z     vdW  Elec       q    Type
REMARK                         _______ _______ _______ _____ _____    ______ ____
ROOT
ATOM      1  C   LIG A   1      -0.873   2.468   2.839  0.00  0.00    -0.031 C 
ATOM      2  C   LIG A   1      -0.255   1.207   2.094  0.00  0.00    +0.016 C 
ATOM      3  C   LIG A   1      -0.185   1.292   0.506  0.00  0.00    +0.100 C 
ATOM      4  C   LIG A   1      -0.073  -0.109  -0.204  0.00  0.00    +0.018 A 
ATOM      5  C   LIG A   1       0.126  -0.251  -1.607  0.00  0.00    +0.166 A 
ATOM      6  C   LIG A   1       0.387  -1.520  -2.212  0.00  0.00    +0.165 A 
ATOM      7  C   LIG A   1       0.439  -2.692  -1.432  0.00  0.00    +0.001 A 
ATOM      8  C   LIG A   1       0.192  -2.536  -0.059  0.00  0.00    +0.011 A 
ATOM      9  C   LIG A   1      -0.055  -1.290   0.552  0.00  0.00    -0.039 A 
ATOM     10  C   LIG A   1      -0.170  -1.297   2.048  0.00  0.00    +0.036 C 
ATOM     11  C   LIG A   1      -0.928  -0.094   2.557  0.00  0.00    +0.010 C 
ATOM     12  C   LIG A   1      -1.468   2.018   0.028  0.00  0.00    +0.023 C 
ATOM     13  C   LIG A   1      -1.723   3.405   0.630  0.00  0.00    +0.002 C 
ATOM     14  C   LIG A   1      -0.958   3.692   1.914  0.00  0.00    +0.007 C 
ATOM     15  C   LIG A   1      -2.284   2.234   3.435  0.00  0.00    +0.011 C 
ATOM     16  C   LIG A   1       0.057   2.829   4.022  0.00  0.00    +0.011 C 
ENDROOT
BRANCH   7  17
ATOM     17  C   LIG A   1       0.810  -4.077  -1.975  0.00  0.00    +0.017 C 
ATOM     18  C   LIG A   1       0.109  -5.239  -1.240  0.00  0.00    +0.012 C 
ATOM     19  C   LIG A   1       2.319  -4.356  -1.937  0.00  0.00    +0.012 C 
ENDBRANCH   7  17
BRANCH   3  20
ATOM     20  C   LIG A   1       1.105   2.079   0.133  0.00  0.00    +0.318 C 
ATOM     21  O   LIG A   1       1.139   3.173  -0.442  0.00  0.00    -0.250 OA
BRANCH  20  22
ATOM     22  O   LIG A   1       2.220   1.380   0.499  0.00  0.00    -0.467 OA
ATOM     23  C   LIG A   1       3.427   1.787  -0.143  0.00  0.00    +0.280 C 
ENDBRANCH  20  22
ENDBRANCH   3  20
BRANCH   6  24
ATOM     24  O   LIG A   1       0.778  -1.559  -3.533  0.00  0.00    -0.491 OA
ATOM     25  C   LIG A   1      -0.259  -1.973  -4.423  0.00  0.00    +0.277 C 
ENDBRANCH   6  24
BRANCH   5  26
ATOM     26  O   LIG A   1       0.210   0.912  -2.341  0.00  0.00    -0.491 OA
ATOM     27  C   LIG A   1      -0.777   1.011  -3.365  0.00  0.00    +0.277 C 
ENDBRANCH   5  26
TORSDOF 5
