REMARK  Name = NuBBE_408
REMARK  9 active torsions:
REMARK  status: ('A' for Active; 'I' for Inactive)
REMARK    1  A    between atoms: C_2  and  C_9
REMARK    2  A    between atoms: N_3  and  C_5
REMARK    3  A    between atoms: C_5  and  C_6
REMARK    4  A    between atoms: C_6  and  C_7
REMARK    5  A    between atoms: C_6  and  C_8
REMARK    6  A    between atoms: C_10  and  C_11
REMARK    7  A    between atoms: C_12  and  C_13
REMARK    8  A    between atoms: C_13  and  C_14
REMARK    9  A    between atoms: C_14  and  C_15
REMARK                            x       y       z     vdW  Elec       q    Type
REMARK                         _______ _______ _______ _____ _____    ______ ____
ROOT
ATOM      1  C   LIG A   1      -0.113  -0.344  -1.155  0.00  0.00    -0.004 C 
ATOM      2  C   LIG A   1       1.225  -0.404  -1.198  0.00  0.00    -0.026 C 
ENDROOT
BRANCH   1   4
ATOM      3  C   LIG A   1      -2.136   0.223   0.147  0.00  0.00    +0.067 C 
ATOM      4  C   LIG A   1      -0.914  -0.313   0.046  0.00  0.00    +0.005 C 
BRANCH   3   6
ATOM      5  O   LIG A   1      -2.336   1.407  -1.929  0.00  0.00    -0.271 OA
ATOM      6  C   LIG A   1      -2.878   0.847  -0.979  0.00  0.00    +0.237 C 
ATOM      7  N   LIG A   1      -4.229   0.660  -0.865  0.00  0.00    -0.312 N 
ATOM      8  H   LIG A   1      -4.599   0.189  -0.051  0.00  0.00    +0.149 HD
BRANCH   7   9
ATOM      9  C   LIG A   1      -5.103   0.787  -2.023  0.00  0.00    +0.107 C 
BRANCH   9  10
ATOM     10  C   LIG A   1      -5.234  -0.536  -2.797  0.00  0.00    +0.000 C 
ATOM     11  C   LIG A   1      -5.844  -1.653  -1.943  0.00  0.00    +0.009 C 
ATOM     12  C   LIG A   1      -6.081  -0.320  -4.052  0.00  0.00    +0.009 C 
ENDBRANCH   9  10
ENDBRANCH   7   9
ENDBRANCH   3   6
ENDBRANCH   1   4
BRANCH   2  13
ATOM     13  C   LIG A   1       2.186  -0.566  -0.045  0.00  0.00    +0.032 C 
BRANCH  13  14
ATOM     14  C   LIG A   1       2.673   0.757   0.565  0.00  0.00    +0.039 C 
BRANCH  14  15
ATOM     15  C   LIG A   1       3.683   0.570   1.685  0.00  0.00    -0.043 A 
ATOM     16  C   LIG A   1       3.277   0.449   3.036  0.00  0.00    +0.007 A 
ATOM     17  C   LIG A   1       4.220   0.305   4.070  0.00  0.00    +0.050 A 
ATOM     18  C   LIG A   1       5.556   0.278   3.728  0.00  0.00    +0.166 A 
ATOM     19  C   LIG A   1       5.956   0.387   2.420  0.00  0.00    +0.167 A 
ATOM     20  O   LIG A   1       7.308   0.343   2.279  0.00  0.00    -0.453 OA
ATOM     21  C   LIG A   1       7.717   0.184   3.651  0.00  0.00    +0.466 C 
ATOM     22  O   LIG A   1       6.610   0.152   4.580  0.00  0.00    -0.453 OA
ATOM     23  C   LIG A   1       5.055   0.532   1.385  0.00  0.00    +0.053 A 
ENDBRANCH  14  15
ENDBRANCH  13  14
ENDBRANCH   2  13
TORSDOF 7
