REMARK  Name = NuBBE_1890
REMARK  16 active torsions:
REMARK  status: ('A' for Active; 'I' for Inactive)
REMARK    1  A    between atoms: C_4  and  O_5
REMARK    2  A    between atoms: O_5  and  C_6
REMARK    3  A    between atoms: C_6  and  C_7
REMARK    4  A    between atoms: C_10  and  O_34
REMARK    5  A    between atoms: C_14  and  C_15
REMARK    6  A    between atoms: C_17  and  O_18
REMARK    7  A    between atoms: O_18  and  C_19
REMARK    8  A    between atoms: C_19  and  C_20
REMARK    9  A    between atoms: C_22  and  O_29
REMARK   10  A    between atoms: C_24  and  O_25
REMARK   11  A    between atoms: O_25  and  C_26
REMARK   12  A    between atoms: C_26  and  C_27
REMARK   13  A    between atoms: O_29  and  C_30
REMARK   14  A    between atoms: C_31  and  O_32
REMARK   15  A    between atoms: O_32  and  C_33
REMARK   16  A    between atoms: O_34  and  C_35
REMARK                            x       y       z     vdW  Elec       q    Type
REMARK                         _______ _______ _______ _____ _____    ______ ____
ROOT
ATOM      1  O   LIG A   1      -3.385  -1.520   0.782  0.00  0.00    -0.283 OA
ATOM      2  C   LIG A   1      -2.225  -1.368   0.415  0.00  0.00    +0.238 A 
ATOM      3  C   LIG A   1      -1.321  -2.527   0.286  0.00  0.00    +0.110 A 
ATOM      4  C   LIG A   1      -1.768  -3.832   0.048  0.00  0.00    +0.149 A 
ATOM      5  C   LIG A   1      -0.849  -4.880  -0.065  0.00  0.00    +0.092 A 
ATOM      6  C   LIG A   1       0.515  -4.626   0.136  0.00  0.00    +0.127 A 
ATOM      7  C   LIG A   1       0.954  -3.322   0.372  0.00  0.00    +0.092 A 
ATOM      8  C   LIG A   1       0.038  -2.276   0.413  0.00  0.00    +0.147 A 
ATOM      9  O   LIG A   1       0.544  -1.011   0.552  0.00  0.00    -0.451 OA
ATOM     10  C   LIG A   1      -0.276   0.040   0.175  0.00  0.00    +0.184 A 
ATOM     11  C   LIG A   1      -1.620  -0.034   0.092  0.00  0.00    +0.211 A 
ENDROOT
BRANCH  10  12
ATOM     12  C   LIG A   1       0.490   1.262  -0.140  0.00  0.00    +0.067 A 
ATOM     13  C   LIG A   1       0.961   1.460  -1.452  0.00  0.00    +0.065 A 
ATOM     14  C   LIG A   1       1.710   2.604  -1.757  0.00  0.00    +0.174 A 
ATOM     15  C   LIG A   1       2.002   3.566  -0.779  0.00  0.00    +0.166 A 
ATOM     16  C   LIG A   1       1.558   3.359   0.524  0.00  0.00    +0.096 A 
ATOM     17  C   LIG A   1       0.786   2.233   0.831  0.00  0.00    +0.146 A 
BRANCH  15  18
ATOM     18  O   LIG A   1       2.605   4.731  -1.176  0.00  0.00    -0.491 OA
ATOM     19  C   LIG A   1       3.518   5.293  -0.237  0.00  0.00    +0.277 C 
ENDBRANCH  15  18
BRANCH  14  20
ATOM     20  O   LIG A   1       2.012   2.822  -3.118  0.00  0.00    -0.422 OA
BRANCH  20  21
ATOM     21  C   LIG A   1       3.262   3.357  -3.440  0.00  0.00    +0.309 C 
ATOM     22  C   LIG A   1       3.142   4.088  -4.742  0.00  0.00    +0.136 C 
ATOM     23  O   LIG A   1       4.300   3.234  -2.802  0.00  0.00    -0.251 OA
ENDBRANCH  20  21
ENDBRANCH  14  20
BRANCH  17  24
ATOM     24  O   LIG A   1       0.310   2.009   2.142  0.00  0.00    -0.425 OA
BRANCH  24  25
ATOM     25  C   LIG A   1      -0.069   3.059   2.994  0.00  0.00    +0.309 C 
ATOM     26  C   LIG A   1      -0.526   2.474   4.285  0.00  0.00    +0.136 C 
ATOM     27  O   LIG A   1      -0.047   4.253   2.742  0.00  0.00    -0.251 OA
ENDBRANCH  24  25
ENDBRANCH  17  24
ENDBRANCH  10  12
BRANCH  11  28
ATOM     28  O   LIG A   1      -2.369   1.049  -0.337  0.00  0.00    -0.488 OA
ATOM     29  C   LIG A   1      -3.702   1.141   0.153  0.00  0.00    +0.277 C 
ENDBRANCH  11  28
BRANCH   6  30
ATOM     30  O   LIG A   1       1.352  -5.705   0.029  0.00  0.00    -0.495 OA
ATOM     31  C   LIG A   1       2.566  -5.604   0.773  0.00  0.00    +0.277 C 
ENDBRANCH   6  30
BRANCH   4  32
ATOM     32  O   LIG A   1      -3.156  -4.002  -0.162  0.00  0.00    -0.425 OA
BRANCH  32  33
ATOM     33  C   LIG A   1      -3.899  -5.130   0.184  0.00  0.00    +0.309 C 
ATOM     34  C   LIG A   1      -5.357  -4.784   0.057  0.00  0.00    +0.136 C 
ATOM     35  O   LIG A   1      -3.464  -6.199   0.584  0.00  0.00    -0.251 OA
ENDBRANCH  32  33
ENDBRANCH   4  32
TORSDOF 10
