@<TRIPOS>MOLECULE
NuBBE_1750
 26 26 0 0 0
SMALL
GASTEIGER

@<TRIPOS>ATOM
      1 C          -2.0916    0.2029    0.2286 C.3     1  LIG1       -0.0253
      2 C          -2.7810   -0.2421   -1.0632 C.3     1  LIG1       -0.0589
      3 C          -2.5583   -0.6487    1.4114 C.3     1  LIG1       -0.0589
      4 C          -0.5751    0.2126    0.0913 C.2     1  LIG1       -0.0669
      5 C           0.1188    1.3640    0.1946 C.2     1  LIG1       -0.0802
      6 C           1.6128    1.4705    0.0703 C.3     1  LIG1       -0.0135
      7 C           2.3044    0.1555   -0.1885 C.2     1  LIG1       -0.0725
      8 C           1.6213   -0.9986   -0.2925 C.2     1  LIG1       -0.0807
      9 C           0.1264   -1.1058   -0.1655 C.3     1  LIG1       -0.0130
     10 C           3.7977    0.2154   -0.3225 C.3     1  LIG1       -0.0435
     11 H          -2.4313    1.2286    0.4282 H       1  LIG1        0.0340
     12 H          -2.5886   -1.2968   -1.2868 H       1  LIG1        0.0235
     13 H          -2.4408    0.3547   -1.9166 H       1  LIG1        0.0235
     14 H          -3.8662   -0.1162   -0.9805 H       1  LIG1        0.0235
     15 H          -2.3663   -1.7146    1.2485 H       1  LIG1        0.0235
     16 H          -3.6363   -0.5293    1.5665 H       1  LIG1        0.0235
     17 H          -2.0536   -0.3486    2.3362 H       1  LIG1        0.0235
     18 H          -0.4025    2.3001    0.3787 H       1  LIG1        0.0575
     19 H           2.0057    1.9073    0.9961 H       1  LIG1        0.0352
     20 H           1.8419    2.1639   -0.7476 H       1  LIG1        0.0352
     21 H           2.1497   -1.9300   -0.4792 H       1  LIG1        0.0575
     22 H          -0.0893   -1.8010    0.6533 H       1  LIG1        0.0352
     23 H          -0.2562   -1.5502   -1.0908 H       1  LIG1        0.0352
     24 H           4.2456    0.6121    0.5944 H       1  LIG1        0.0274
     25 H           4.0782    0.8661   -1.1570 H       1  LIG1        0.0274
     26 H           4.2346   -0.7715   -0.5074 H       1  LIG1        0.0274
@<TRIPOS>BOND
     1     1     2    1
     2     1     3    1
     3     1     4    1
     4     4     5    2
     5     5     6    1
     6     6     7    1
     7     7     8    2
     8     8     9    1
     9     4     9    1
    10     7    10    1
    11     1    11    1
    12     2    12    1
    13     2    13    1
    14     2    14    1
    15     3    15    1
    16     3    16    1
    17     3    17    1
    18     5    18    1
    19     6    19    1
    20     6    20    1
    21     8    21    1
    22     9    22    1
    23     9    23    1
    24    10    24    1
    25    10    25    1
    26    10    26    1
