REMARK  Name = NuBBE_2113
REMARK  13 active torsions:
REMARK  status: ('A' for Active; 'I' for Inactive)
REMARK    1  A    between atoms: C_2  and  C_3
REMARK    2  A    between atoms: C_3  and  C_4
REMARK    3  A    between atoms: C_4  and  C_5
REMARK    4  A    between atoms: C_5  and  C_6
REMARK    5  A    between atoms: C_6  and  C_7
REMARK    6  A    between atoms: C_7  and  C_8
REMARK    7  A    between atoms: C_8  and  C_9
REMARK    8  A    between atoms: C_9  and  C_10
REMARK    9  A    between atoms: C_10  and  C_11
REMARK   10  A    between atoms: C_11  and  C_12
REMARK   11  A    between atoms: C_12  and  C_13
REMARK   12  A    between atoms: C_13  and  C_14
REMARK   13  A    between atoms: C_14  and  C_15
REMARK                            x       y       z     vdW  Elec       q    Type
REMARK                         _______ _______ _______ _____ _____    ______ ____
ROOT
ATOM      1  C   LIG A   1       0.827   0.530   0.341  0.00  0.00    -0.000 C 
ENDROOT
BRANCH   1   2
ATOM      2  C   LIG A   1       0.633   1.468  -0.857  0.00  0.00    -0.000 C 
BRANCH   2   3
ATOM      3  C   LIG A   1      -0.864   1.649  -1.119  0.00  0.00    +0.000 C 
BRANCH   3   4
ATOM      4  C   LIG A   1      -1.210   2.530  -2.319  0.00  0.00    +0.000 C 
BRANCH   4   5
ATOM      5  C   LIG A   1      -0.865   4.019  -2.190  0.00  0.00    +0.004 C 
BRANCH   5   6
ATOM      6  C   LIG A   1      -1.306   4.845  -3.419  0.00  0.00    +0.026 C 
BRANCH   6   8
ATOM      7  C   LIG A   1      -3.800   4.396  -3.044  0.00  0.00    +0.004 C 
ATOM      8  C   LIG A   1      -2.791   4.915  -3.727  0.00  0.00    -0.035 C 
ENDBRANCH   6   8
ENDBRANCH   5   6
ENDBRANCH   4   5
ENDBRANCH   3   4
ENDBRANCH   2   3
ENDBRANCH   1   2
BRANCH   1   9
ATOM      9  C   LIG A   1       2.287   0.194   0.660  0.00  0.00    -0.000 C 
BRANCH   9  10
ATOM     10  C   LIG A   1       2.415  -0.756   1.876  0.00  0.00    -0.000 C 
BRANCH  10  11
ATOM     11  C   LIG A   1       1.786  -2.148   1.659  0.00  0.00    -0.000 C 
BRANCH  11  12
ATOM     12  C   LIG A   1       1.932  -3.099   2.859  0.00  0.00    -0.000 C 
BRANCH  12  13
ATOM     13  C   LIG A   1       1.298  -4.491   2.638  0.00  0.00    -0.000 C 
BRANCH  13  14
ATOM     14  C   LIG A   1      -0.223  -4.496   2.444  0.00  0.00    -0.003 C 
ATOM     15  C   LIG A   1      -0.766  -5.910   2.245  0.00  0.00    +0.004 C 
ENDBRANCH  13  14
ENDBRANCH  12  13
ENDBRANCH  11  12
ENDBRANCH  10  11
ENDBRANCH   9  10
ENDBRANCH   1   9
TORSDOF 12
