@<TRIPOS>MOLECULE
NuBBE_1726
 79 83 0 0 0
SMALL
GASTEIGER

@<TRIPOS>ATOM
      1 C          -1.8207    0.9061    0.2650 C.3     1  LIG1       -0.0588
      2 C          -0.7149    0.4530   -0.7396 C.3     1  LIG1       -0.0231
      3 C           0.5129   -0.2079   -0.0139 C.3     1  LIG1       -0.0294
      4 H           1.1802   -0.5245   -0.8290 H       1  LIG1        0.0312
      5 C           0.2304   -1.5827    0.7303 C.3     1  LIG1       -0.0252
      6 C          -0.6184   -1.3519    2.0022 C.3     1  LIG1       -0.0590
      7 C          -0.4297   -2.5609   -0.3139 C.3     1  LIG1       -0.0268
      8 H           0.3078   -2.6373   -1.1314 H       1  LIG1        0.0312
      9 C          -1.6762   -1.9426   -0.9816 C.3     1  LIG1       -0.0486
     10 C          -1.3586   -0.6107   -1.6695 C.3     1  LIG1       -0.0466
     11 C          -0.6212   -4.0497    0.1646 C.3     1  LIG1        0.0055
     12 C          -1.7487   -4.2299    1.2020 C.3     1  LIG1       -0.0562
     13 C          -1.0170   -4.9250   -1.0579 C.3     1  LIG1       -0.0562
     14 C           0.7380   -4.5997    0.7032 C.3     1  LIG1        0.1084
     15 H           1.4108   -4.7583   -0.1501 H       1  LIG1        0.0739
     16 C           1.4518   -3.6576    1.6744 C.3     1  LIG1       -0.0146
     17 C           1.5847   -2.2276    1.1533 C.3     1  LIG1       -0.0437
     18 O           0.5248   -5.8352    1.4296 O.3     1  LIG1       -0.4610
     19 C           1.1780   -6.9495    1.0122 C.2     1  LIG1        0.3042
     20 O           1.8824   -7.0362    0.0148 O.2     1  LIG1       -0.2512
     21 C           0.9645   -8.0641    1.9912 C.3     1  LIG1        0.0332
     22 C           1.3769    0.8069    0.7798 C.3     1  LIG1       -0.0489
     23 C           0.9612    2.2756    0.6999 C.3     1  LIG1       -0.0490
     24 C           0.5358    2.7586   -0.6884 C.3     1  LIG1       -0.0287
     25 H           1.4648    3.0492   -1.1909 H       1  LIG1        0.0310
     26 C          -0.1718    1.6924   -1.5903 C.3     1  LIG1       -0.0232
     27 C           0.8733    1.2877   -2.6783 C.3     1  LIG1       -0.0588
     28 C          -1.2931    2.4648   -2.3432 C.3     1  LIG1       -0.0465
     29 C          -1.0517    3.9407   -2.0646 C.3     1  LIG1       -0.0458
     30 C          -0.4024    3.9883   -0.6735 C.3     1  LIG1        0.0021
     31 H          -1.2105    3.8196    0.0538 H       1  LIG1        0.0342
     32 C           0.2530    5.3623   -0.3564 C.3     1  LIG1        0.1143
     33 C           1.3736    5.7400   -1.3415 C.3     1  LIG1       -0.0246
     34 O          -0.7670    6.3800   -0.4505 O.3     1  LIG1       -0.4580
     35 C          -0.5492    7.3545    0.4795 C.2     1  LIG1        0.3077
     36 O          -1.1720    8.4054    0.5351 O.2     1  LIG1       -0.2508
     37 C           0.5785    6.9672    1.3829 C.3     1  LIG1        0.0486
     38 C           0.7293    5.4911    1.0876 C.3     1  LIG1       -0.0028
     39 H          -2.4800    0.0900    0.5628 H       1  LIG1        0.0235
     40 H          -2.4965    1.6570   -0.1463 H       1  LIG1        0.0235
     41 H          -1.4261    1.3215    1.1902 H       1  LIG1        0.0235
     42 H          -0.4178   -0.3797    2.4612 H       1  LIG1        0.0235
     43 H          -0.4120   -2.0792    2.7901 H       1  LIG1        0.0235
     44 H          -1.6905   -1.4075    1.8091 H       1  LIG1        0.0235
     45 H          -2.4945   -1.8267   -0.2680 H       1  LIG1        0.0268
     46 H          -2.0583   -2.6058   -1.7640 H       1  LIG1        0.0268
     47 H          -2.2771   -0.2172   -2.1215 H       1  LIG1        0.0271
     48 H          -0.6899   -0.8482   -2.5026 H       1  LIG1        0.0271
     49 H          -2.6723   -3.7327    0.8915 H       1  LIG1        0.0236
     50 H          -1.4753   -3.8555    2.1892 H       1  LIG1        0.0236
     51 H          -1.9971   -5.2900    1.3342 H       1  LIG1        0.0236
     52 H          -2.0274   -4.6973   -1.4129 H       1  LIG1        0.0236
     53 H          -1.0056   -5.9921   -0.8128 H       1  LIG1        0.0236
     54 H          -0.3250   -4.7709   -1.8941 H       1  LIG1        0.0236
     55 H           2.4553   -4.0568    1.8744 H       1  LIG1        0.0301
     56 H           0.9558   -3.6763    2.6511 H       1  LIG1        0.0301
     57 H           2.2698   -2.2396    0.2949 H       1  LIG1        0.0272
     58 H           2.0758   -1.6263    1.9272 H       1  LIG1        0.0272
     59 H           1.5534   -7.8757    2.8936 H       1  LIG1        0.0342
     60 H           1.2870   -9.0095    1.5460 H       1  LIG1        0.0342
     61 H          -0.0958   -8.1525    2.2427 H       1  LIG1        0.0342
     62 H           2.4062    0.7331    0.4012 H       1  LIG1        0.0268
     63 H           1.4484    0.5395    1.8387 H       1  LIG1        0.0268
     64 H           1.8126    2.8779    1.0395 H       1  LIG1        0.0268
     65 H           0.1809    2.4754    1.4400 H       1  LIG1        0.0268
     66 H           1.7878    0.8702   -2.2478 H       1  LIG1        0.0235
     67 H           1.1848    2.1662   -3.2592 H       1  LIG1        0.0235
     68 H           0.4739    0.5752   -3.4038 H       1  LIG1        0.0235
     69 H          -2.3015    2.1932   -2.0266 H       1  LIG1        0.0271
     70 H          -1.2775    2.2777   -3.4241 H       1  LIG1        0.0271
     71 H          -1.9859    4.5109   -2.1022 H       1  LIG1        0.0269
     72 H          -0.3915    4.3357   -2.8414 H       1  LIG1        0.0269
     73 H           0.9895    5.8524   -2.3596 H       1  LIG1        0.0268
     74 H           2.1828    5.0058   -1.3477 H       1  LIG1        0.0268
     75 H           1.8179    6.7096   -1.0955 H       1  LIG1        0.0268
     76 H           0.3217    7.1432    2.4300 H       1  LIG1        0.0379
     77 H           1.4739    7.5332    1.1098 H       1  LIG1        0.0379
     78 H           0.0757    4.9340    1.7702 H       1  LIG1        0.0309
     79 H           1.7550    5.1457    1.2458 H       1  LIG1        0.0309
@<TRIPOS>BOND
     1     1     2    1
     2     2     3    1
     3     3     4    1
     4     3     5    1
     5     5     6    1
     6     5     7    1
     7     7     8    1
     8     7     9    1
     9     9    10    1
    10     2    10    1
    11     7    11    1
    12    11    12    1
    13    11    13    1
    14    11    14    1
    15    14    16    1
    16    16    17    1
    17     5    17    1
    18    18    19    1
    19    19    20    2
    20    19    21    1
    21     3    22    1
    22    22    23    1
    23    23    24    1
    24    24    25    1
    25    24    26    1
    26     2    26    1
    27    26    27    1
    28    26    28    1
    29    28    29    1
    30    29    30    1
    31    30    31    1
    32    24    30    1
    33    30    32    1
    34    32    33    1
    35    32    34    1
    36    34    35    1
    37    35    36    2
    38    35    37    1
    39    37    38    1
    40    32    38    1
    41    14    18    1
    42    14    15    1
    43     1    39    1
    44     1    40    1
    45     1    41    1
    46     6    42    1
    47     6    43    1
    48     6    44    1
    49     9    45    1
    50     9    46    1
    51    10    47    1
    52    10    48    1
    53    12    49    1
    54    12    50    1
    55    12    51    1
    56    13    52    1
    57    13    53    1
    58    13    54    1
    59    16    55    1
    60    16    56    1
    61    17    57    1
    62    17    58    1
    63    21    59    1
    64    21    60    1
    65    21    61    1
    66    22    62    1
    67    22    63    1
    68    23    64    1
    69    23    65    1
    70    27    66    1
    71    27    67    1
    72    27    68    1
    73    28    69    1
    74    28    70    1
    75    29    71    1
    76    29    72    1
    77    33    73    1
    78    33    74    1
    79    33    75    1
    80    37    76    1
    81    37    77    1
    82    38    78    1
    83    38    79    1
