REMARK  Name = NuBBE_101
REMARK  12 active torsions:
REMARK  status: ('A' for Active; 'I' for Inactive)
REMARK    1  A    between atoms: C_2  and  C_3
REMARK    2  A    between atoms: C_4  and  O_6
REMARK    3  A    between atoms: O_6  and  C_7
REMARK    4  A    between atoms: C_9  and  O_11
REMARK    5  A    between atoms: C_13  and  C_15
REMARK    6  A    between atoms: C_15  and  O_16
REMARK    7  A    between atoms: C_17  and  O_19
REMARK    8  A    between atoms: C_20  and  O_22
REMARK    9  A    between atoms: C_25  and  C_26
REMARK   10  A    between atoms: C_26  and  O_27
REMARK   11  A    between atoms: C_29  and  C_30
REMARK   12  A    between atoms: C_30  and  C_31
REMARK                            x       y       z     vdW  Elec       q    Type
REMARK                         _______ _______ _______ _____ _____    ______ ____
ROOT
ATOM      1  C   LIG A   1      -2.115  -1.272   1.932  0.00  0.00    +0.088 C 
ATOM      2  C   LIG A   1      -2.444  -0.503   0.617  0.00  0.00    +0.316 C 
ATOM      3  O   LIG A   1      -2.572   0.907   0.872  0.00  0.00    -0.470 OA
ATOM      4  C   LIG A   1      -1.757   1.435   1.833  0.00  0.00    +0.201 C 
ATOM      5  C   LIG A   1      -0.932   0.764   2.647  0.00  0.00    +0.075 C 
ATOM      6  C   LIG A   1      -0.788  -0.755   2.580  0.00  0.00    +0.048 C 
ENDROOT
BRANCH   1   8
ATOM      7  C   LIG A   1      -3.428  -3.397   2.162  0.00  0.00    +0.004 C 
ATOM      8  C   LIG A   1      -2.290  -2.773   1.814  0.00  0.00    -0.025 C 
ENDBRANCH   1   8
BRANCH   5   9
ATOM      9  C   LIG A   1      -0.301   1.501   3.766  0.00  0.00    +0.336 C 
ATOM     10  O   LIG A   1       0.693   1.182   4.396  0.00  0.00    -0.245 OA
BRANCH   9  11
ATOM     11  O   LIG A   1      -1.006   2.569   4.142  0.00  0.00    -0.477 OA
ATOM     12  H   LIG A   1      -0.506   2.884   4.924  0.00  0.00    +0.295 HD
ENDBRANCH   9  11
ENDBRANCH   5   9
BRANCH   2  13
ATOM     13  O   LIG A   1      -1.522  -0.746  -0.459  0.00  0.00    -0.309 OA
BRANCH  13  14
ATOM     14  C   LIG A   1      -1.906  -0.004  -1.633  0.00  0.00    +0.286 C 
ATOM     15  C   LIG A   1      -0.913  -0.253  -2.794  0.00  0.00    +0.201 C 
ATOM     16  O   LIG A   1      -3.228  -0.383  -2.030  0.00  0.00    -0.340 OA
ATOM     17  C   LIG A   1      -3.730   0.389  -3.122  0.00  0.00    +0.178 C 
ATOM     18  C   LIG A   1      -2.878   0.113  -4.368  0.00  0.00    +0.177 C 
ATOM     19  C   LIG A   1      -1.416   0.451  -4.066  0.00  0.00    +0.179 C 
BRANCH  15  20
ATOM     20  O   LIG A   1       0.402   0.253  -2.492  0.00  0.00    -0.384 OA
ATOM     21  H   LIG A   1       0.898   0.160  -3.332  0.00  0.00    +0.210 HD
ENDBRANCH  15  20
BRANCH  18  22
ATOM     22  O   LIG A   1      -3.307   0.863  -5.513  0.00  0.00    -0.387 OA
ATOM     23  H   LIG A   1      -3.352   1.807  -5.267  0.00  0.00    +0.210 HD
ENDBRANCH  18  22
BRANCH  19  24
ATOM     24  O   LIG A   1      -0.586   0.084  -5.180  0.00  0.00    -0.386 OA
ATOM     25  H   LIG A   1      -1.091   0.319  -5.985  0.00  0.00    +0.210 HD
ENDBRANCH  19  24
BRANCH  17  26
ATOM     26  C   LIG A   1      -5.205   0.027  -3.334  0.00  0.00    +0.190 C 
BRANCH  26  27
ATOM     27  O   LIG A   1      -5.789   0.767  -4.398  0.00  0.00    -0.392 OA
ATOM     28  H   LIG A   1      -5.310   0.523  -5.216  0.00  0.00    +0.209 HD
ENDBRANCH  26  27
ENDBRANCH  17  26
ENDBRANCH  13  14
ENDBRANCH   2  13
BRANCH   6  29
ATOM     29  C   LIG A   1       0.488  -1.258   1.872  0.00  0.00    +0.066 C 
BRANCH  29  30
ATOM     30  C   LIG A   1       1.799  -0.821   2.511  0.00  0.00    +0.060 C 
ATOM     31  N   LIG A   1       2.091  -1.220   3.709  0.00  0.00    -0.286 NA
ATOM     32  C   LIG A   1       3.319  -0.680   4.356  0.00  0.00    +0.146 C 
ATOM     33  C   LIG A   1       4.521  -0.433   3.426  0.00  0.00    +0.061 C 
ATOM     34  C   LIG A   1       4.067   0.090   2.115  0.00  0.00    -0.011 A 
ATOM     35  C   LIG A   1       2.754  -0.072   1.726  0.00  0.00    +0.065 A 
ATOM     36  N   LIG A   1       2.620   0.491   0.484  0.00  0.00    -0.353 N 
ATOM     37  C   LIG A   1       3.861   0.855   0.002  0.00  0.00    +0.047 A 
ATOM     38  C   LIG A   1       4.227   1.330  -1.263  0.00  0.00    +0.026 A 
ATOM     39  C   LIG A   1       5.587   1.547  -1.503  0.00  0.00    +0.002 A 
ATOM     40  C   LIG A   1       6.536   1.335  -0.505  0.00  0.00    +0.001 A 
ATOM     41  C   LIG A   1       6.150   0.893   0.766  0.00  0.00    +0.010 A 
ATOM     42  C   LIG A   1       4.790   0.630   1.020  0.00  0.00    +0.004 A 
ATOM     43  H   LIG A   1       1.770   0.534  -0.064  0.00  0.00    +0.166 HD
ENDBRANCH  29  30
ENDBRANCH   6  29
TORSDOF 12
