REMARK  Name = NuBBE_363
REMARK  3 active torsions:
REMARK  status: ('A' for Active; 'I' for Inactive)
REMARK    1  A    between atoms: C_4  and  C_5
REMARK    2  A    between atoms: C_15  and  O_16
REMARK    3  A    between atoms: C_18  and  O_19
REMARK                            x       y       z     vdW  Elec       q    Type
REMARK                         _______ _______ _______ _____ _____    ______ ____
ROOT
ATOM      1  O   LIG A   1      -3.489   0.286   0.188  0.00  0.00    -0.287 OA
ATOM      2  C   LIG A   1      -2.268   0.344   0.120  0.00  0.00    +0.197 A 
ATOM      3  C   LIG A   1      -1.500  -0.914   0.092  0.00  0.00    +0.098 A 
ATOM      4  C   LIG A   1      -0.165  -0.878   0.011  0.00  0.00    +0.139 A 
ATOM      5  O   LIG A   1       0.576   0.289  -0.031  0.00  0.00    -0.454 OA
ATOM      6  C   LIG A   1      -1.483   1.598   0.061  0.00  0.00    +0.105 A 
ATOM      7  C   LIG A   1      -0.091   1.490  -0.012  0.00  0.00    +0.146 A 
ATOM      8  C   LIG A   1       0.715   2.631  -0.071  0.00  0.00    +0.092 A 
ATOM      9  C   LIG A   1       0.117   3.885  -0.056  0.00  0.00    +0.124 A 
ATOM     10  C   LIG A   1      -1.265   4.016   0.017  0.00  0.00    +0.091 A 
ATOM     11  C   LIG A   1      -2.066   2.873   0.075  0.00  0.00    +0.135 A 
ENDROOT
BRANCH   4  12
ATOM     12  C   LIG A   1       0.646  -2.111  -0.013  0.00  0.00    +0.017 A 
ATOM     13  C   LIG A   1       1.823  -2.191   0.748  0.00  0.00    +0.011 A 
ATOM     14  C   LIG A   1       2.608  -3.347   0.730  0.00  0.00    +0.001 A 
ATOM     15  C   LIG A   1       2.230  -4.434  -0.054  0.00  0.00    +0.000 A 
ATOM     16  C   LIG A   1       1.071  -4.367  -0.823  0.00  0.00    +0.001 A 
ATOM     17  C   LIG A   1       0.284  -3.212  -0.804  0.00  0.00    +0.011 A 
ENDBRANCH   4  12
BRANCH   9  18
ATOM     18  O   LIG A   1       0.858   5.028  -0.112  0.00  0.00    -0.506 OA
ATOM     19  H   LIG A   1       1.801   4.795  -0.167  0.00  0.00    +0.292 HD
ENDBRANCH   9  18
BRANCH  11  20
ATOM     20  O   LIG A   1      -3.421   3.025   0.146  0.00  0.00    -0.506 OA
ATOM     21  H   LIG A   1      -3.655   3.967   0.146  0.00  0.00    +0.292 HD
ENDBRANCH  11  20
TORSDOF 3
