@<TRIPOS>MOLECULE
NuBBE_627
 27 27 0 0 0
SMALL
GASTEIGER

@<TRIPOS>ATOM
      1 O          -0.9743    1.7352   -1.2635 O.2     1  LIG1       -0.2449
      2 C          -0.7002    0.6894   -0.7008 C.2     1  LIG1        0.3397
      3 O          -0.8776   -0.5621   -1.1883 O.3     1  LIG1       -0.4584
      4 C          -1.3097   -0.6701   -2.5549 C.3     1  LIG1        0.0978
      5 C          -0.1020   -0.4824   -3.4668 C.3     1  LIG1       -0.0280
      6 C          -1.8998   -2.0655   -2.7202 C.3     1  LIG1       -0.0280
      7 C          -0.0355    0.6148    0.6281 C.ar    1  LIG1        0.0661
      8 C           0.3490    1.8201    1.2447 C.ar    1  LIG1       -0.0023
      9 C           1.0177    1.7777    2.4640 C.ar    1  LIG1        0.1628
     10 O           1.4265    2.9121    3.1077 O.3     1  LIG1       -0.5032
     11 C           1.3009    0.5561    3.0652 C.ar    1  LIG1        0.2006
     12 O           1.9684    0.5038    4.2582 O.3     1  LIG1       -0.5009
     13 C           0.9149   -0.6306    2.4585 C.ar    1  LIG1        0.1628
     14 O           1.1990   -1.8284    3.0460 O.3     1  LIG1       -0.5032
     15 C           0.2458   -0.6145    1.2444 C.ar    1  LIG1       -0.0023
     16 H          -2.0847    0.0739   -2.7742 H       1  LIG1        0.0728
     17 H           0.6918   -1.1941   -3.2120 H       1  LIG1        0.0265
     18 H           0.3281    0.5170   -3.3424 H       1  LIG1        0.0265
     19 H          -0.3704   -0.6135   -4.5186 H       1  LIG1        0.0265
     20 H          -1.1649   -2.8363   -2.4608 H       1  LIG1        0.0265
     21 H          -2.2418   -2.2370   -3.7451 H       1  LIG1        0.0265
     22 H          -2.7479   -2.2033   -2.0404 H       1  LIG1        0.0265
     23 H           0.1319    2.7676    0.7584 H       1  LIG1        0.0663
     24 H           1.1613    3.6824    2.5739 H       1  LIG1        0.2923
     25 H           2.1377    1.4423    4.4815 H       1  LIG1        0.2924
     26 H           1.6735   -1.5958    3.8696 H       1  LIG1        0.2923
     27 H          -0.0375   -1.5588    0.7879 H       1  LIG1        0.0663
@<TRIPOS>BOND
     1     1     2    2
     2     2     3    1
     3     3     4    1
     4     4     5    1
     5     4     6    1
     6     2     7    1
     7     7     8   ar
     8     8     9   ar
     9     9    10    1
    10     9    11   ar
    11    11    12    1
    12    11    13   ar
    13    13    14    1
    14    13    15   ar
    15     7    15   ar
    16     4    16    1
    17     5    17    1
    18     5    18    1
    19     5    19    1
    20     6    20    1
    21     6    21    1
    22     6    22    1
    23     8    23    1
    24    10    24    1
    25    12    25    1
    26    14    26    1
    27    15    27    1
