@<TRIPOS>MOLECULE
NuBBE_1367
 23 23 0 0 0
SMALL
GASTEIGER

@<TRIPOS>ATOM
      1 O          -2.2081   -0.3790   -0.1256 O.3     1  LIG1       -0.5061
      2 C          -0.8406   -0.3391   -0.1826 C.ar    1  LIG1        0.1274
      3 C          -0.1165    0.8585   -0.2429 C.ar    1  LIG1        0.0168
      4 C           1.2772    0.7920   -0.3386 C.ar    1  LIG1       -0.0477
      5 C           1.9237   -0.4488   -0.3719 C.ar    1  LIG1       -0.0192
      6 C           1.1935   -1.6379   -0.2989 C.ar    1  LIG1        0.1236
      7 O           1.9449   -2.7800   -0.3494 O.3     1  LIG1       -0.4950
      8 C           1.2369   -4.0135   -0.2936 C.3     1  LIG1        0.0788
      9 C          -0.1948   -1.5771   -0.1936 C.ar    1  LIG1        0.0221
     10 C          -0.7615    2.1747   -0.2027 C.2     1  LIG1       -0.0481
     11 C          -0.9921    2.8020    0.9602 C.2     1  LIG1       -0.0218
     12 C          -1.6510    4.1210    0.9736 C.2     1  LIG1        0.1431
     13 O          -1.8832    4.7053    2.0238 O.2     1  LIG1       -0.2963
     14 H          -2.5532    0.5128   -0.2917 H       1  LIG1        0.2922
     15 H           1.8757    1.6989   -0.3907 H       1  LIG1        0.0626
     16 H           3.0076   -0.4892   -0.4550 H       1  LIG1        0.0654
     17 H           1.9637   -4.8235   -0.4077 H       1  LIG1        0.0660
     18 H           0.5170   -4.0992   -1.1146 H       1  LIG1        0.0660
     19 H           0.7461   -4.1375    0.6774 H       1  LIG1        0.0660
     20 H          -0.8062   -2.4705   -0.1292 H       1  LIG1        0.0691
     21 H          -1.0331    2.5978   -1.1653 H       1  LIG1        0.0626
     22 H          -0.7156    2.3907    1.9252 H       1  LIG1        0.0650
     23 H          -1.9302    4.5418   -0.0062 H       1  LIG1        0.1075
@<TRIPOS>BOND
     1     1     2    1
     2     2     3   ar
     3     3     4   ar
     4     4     5   ar
     5     5     6   ar
     6     6     7    1
     7     7     8    1
     8     6     9   ar
     9     2     9   ar
    10     3    10    1
    11    10    11    2
    12    11    12    1
    13    12    13    2
    14     1    14    1
    15     4    15    1
    16     5    16    1
    17     8    17    1
    18     8    18    1
    19     8    19    1
    20     9    20    1
    21    10    21    1
    22    11    22    1
    23    12    23    1
