REMARK  Name = NuBBE_1557
REMARK  8 active torsions:
REMARK  status: ('A' for Active; 'I' for Inactive)
REMARK    1  A    between atoms: C_3  and  C_15
REMARK    2  A    between atoms: C_8  and  O_9
REMARK    3  A    between atoms: C_11  and  O_13
REMARK    4  A    between atoms: O_13  and  C_14
REMARK    5  A    between atoms: C_16  and  O_17
REMARK    6  A    between atoms: O_17  and  C_18
REMARK    7  A    between atoms: C_20  and  O_23
REMARK    8  A    between atoms: O_23  and  C_24
REMARK                            x       y       z     vdW  Elec       q    Type
REMARK                         _______ _______ _______ _____ _____    ______ ____
ROOT
ATOM      1  O   LIG A   1      -1.820   0.968  -0.342  0.00  0.00    -0.286 OA
ATOM      2  C   LIG A   1      -0.603   0.937  -0.532  0.00  0.00    +0.204 A 
ATOM      3  C   LIG A   1       0.153  -0.319  -0.746  0.00  0.00    +0.068 A 
ATOM      4  C   LIG A   1       1.448  -0.194  -1.083  0.00  0.00    +0.208 A 
ATOM      5  O   LIG A   1       2.147   0.983  -1.236  0.00  0.00    -0.462 OA
ATOM      6  C   LIG A   1       1.510   2.152  -0.901  0.00  0.00    +0.145 A 
ATOM      7  C   LIG A   1       0.162   2.191  -0.550  0.00  0.00    +0.106 A 
ATOM      8  C   LIG A   1      -0.424   3.416  -0.216  0.00  0.00    +0.135 A 
ATOM      9  C   LIG A   1       0.330   4.585  -0.211  0.00  0.00    +0.092 A 
ATOM     10  C   LIG A   1       1.682   4.549  -0.562  0.00  0.00    +0.127 A 
ATOM     11  C   LIG A   1       2.268   3.328  -0.914  0.00  0.00    +0.092 A 
ENDROOT
BRANCH   3  12
ATOM     12  C   LIG A   1      -0.475  -1.644  -0.579  0.00  0.00    +0.031 A 
ATOM     13  C   LIG A   1      -0.502  -2.301   0.668  0.00  0.00    +0.131 A 
ATOM     14  C   LIG A   1      -1.143  -3.545   0.796  0.00  0.00    +0.091 A 
ATOM     15  C   LIG A   1      -1.720  -4.162  -0.315  0.00  0.00    +0.124 A 
ATOM     16  C   LIG A   1      -1.681  -3.520  -1.551  0.00  0.00    +0.046 A 
ATOM     17  C   LIG A   1      -1.060  -2.274  -1.687  0.00  0.00    +0.016 A 
BRANCH  13  18
ATOM     18  O   LIG A   1       0.077  -1.646   1.730  0.00  0.00    -0.494 OA
ATOM     19  C   LIG A   1       0.604  -2.479   2.760  0.00  0.00    +0.277 C 
ENDBRANCH  13  18
BRANCH  15  20
ATOM     20  O   LIG A   1      -2.392  -5.355  -0.297  0.00  0.00    -0.495 OA
ATOM     21  C   LIG A   1      -1.963  -6.299   0.679  0.00  0.00    +0.277 C 
ENDBRANCH  15  20
ENDBRANCH   3  12
BRANCH   8  22
ATOM     22  O   LIG A   1      -1.744   3.544   0.128  0.00  0.00    -0.506 OA
ATOM     23  H   LIG A   1      -2.164   2.658   0.046  0.00  0.00    +0.292 HD
ENDBRANCH   8  22
BRANCH  10  24
ATOM     24  O   LIG A   1       2.516   5.635  -0.595  0.00  0.00    -0.495 OA
ATOM     25  C   LIG A   1       1.923   6.883  -0.245  0.00  0.00    +0.277 C 
ENDBRANCH  10  24
TORSDOF 5
