@<TRIPOS>MOLECULE
NuBBE_868
 30 31 0 0 0
SMALL
GASTEIGER

@<TRIPOS>ATOM
      1 O          -1.5887   -0.1492   -1.5488 O.2     2  VAL2       -0.2735
      2 C          -0.7014   -0.2014   -0.7016 C.2     2  VAL2        0.2368
      3 N          -0.2386   -1.4093   -0.2223 N.am    1  PRO1       -0.2884
      4 CA          0.3760   -1.5179    1.0830 C.3     1  PRO1        0.1023
      5 HA         -0.4167   -1.3920    1.8328 H       1  PRO1        0.0597
      6 CB          0.8986   -2.9436    1.0946 C.3     1  PRO1       -0.0243
      7 CG         -0.2117   -3.6956    0.3582 C.3     1  PRO1       -0.0350
      8 CD         -0.7196   -2.6970   -0.6818 C.3     1  PRO1        0.0156
      9 CA          0.2092    1.0164   -0.3206 C.3     2  VAL2        0.1019
     10 HA          0.9725    1.0585   -1.1100 H       2  VAL2        0.0597
     11 N           0.9758    0.8225    0.9253 N.am    2  VAL2       -0.3022
     12 C           1.4067   -0.4273    1.3207 C.2     1  PRO1        0.2342
     13 O           2.4021   -0.5530    2.0253 O.2     1  PRO1       -0.2738
     14 CB         -0.5660    2.3652   -0.2942 C.3     2  VAL2       -0.0197
     15 HB         -1.4249    2.2639    0.3821 H       2  VAL2        0.0318
     16 CG1         0.2987    3.5258    0.2270 C.3     2  VAL2       -0.0605
     17 CG2        -1.0964    2.7714   -1.6772 C.3     2  VAL2       -0.0605
     18 HB1         1.0664   -3.3259    2.1057 H       1  PRO1        0.0288
     19 HB2         1.8412   -3.0232    0.5392 H       1  PRO1        0.0288
     20 HG1        -1.0189   -3.9390    1.0600 H       1  PRO1        0.0281
     21 HG2         0.1342   -4.6307   -0.0917 H       1  PRO1        0.0281
     22 HD1        -1.8113   -2.6988   -0.7582 H       1  PRO1        0.0465
     23 HD2        -0.2928   -2.8841   -1.6721 H       1  PRO1        0.0465
     24 H           1.6792    1.5208    1.1352 H       2  VAL2        0.1495
     25 HG11       -0.2414    4.4772    0.1633 H       2  VAL2        0.0233
     26 HG12        1.2214    3.6223   -0.3558 H       2  VAL2        0.0233
     27 HG13        0.5649    3.3879    1.2795 H       2  VAL2        0.0233
     28 HG21       -1.4981    3.7911   -1.6593 H       2  VAL2        0.0233
     29 HG22       -1.9163    2.1290   -2.0061 H       2  VAL2        0.0233
     30 HG23       -0.3041    2.7362   -2.4324 H       2  VAL2        0.0233
@<TRIPOS>BOND
     1     2     3   am
     2     3     4    1
     3     4     6    1
     4     6     7    1
     5     7     8    1
     6     3     8    1
     7     2     9    1
     8     9    11    1
     9    11    12   am
    10     4    12    1
    11    14    15    1
    12    14    16    1
    13    14    17    1
    14     1     2    2
    15     4     5    1
    16    12    13    2
    17     9    14    1
    18     9    10    1
    19     6    18    1
    20     6    19    1
    21     7    20    1
    22     7    21    1
    23     8    22    1
    24     8    23    1
    25    11    24    1
    26    16    25    1
    27    16    26    1
    28    16    27    1
    29    17    28    1
    30    17    29    1
    31    17    30    1
