REMARK  Name = NuBBE_669
REMARK  3 active torsions:
REMARK  status: ('A' for Active; 'I' for Inactive)
REMARK    1  A    between atoms: CA_9  and  CB_11
REMARK    2  A    between atoms: CB_11  and  CG1_13
REMARK    3  A    between atoms: CB_11  and  CG2_14
REMARK                            x       y       z     vdW  Elec       q    Type
REMARK                         _______ _______ _______ _____ _____    ______ ____
ROOT
ATOM      1  O   VAL A   2      -2.615  -0.409  -0.066  0.00  0.00    -0.274 OA
ATOM      2  C   VAL A   2      -1.480  -0.098   0.285  0.00  0.00    +0.237 C 
ATOM      3  N   PRO A   1      -0.547  -1.021   0.702  0.00  0.00    -0.288 N 
ATOM      4  CA  PRO A   1       0.565  -0.650   1.553  0.00  0.00    +0.162 C 
ATOM      5  CB  PRO A   1       1.441  -1.891   1.518  0.00  0.00    +0.033 C 
ATOM      6  CG  PRO A   1       0.403  -3.016   1.518  0.00  0.00    +0.021 C 
ATOM      7  CD  PRO A   1      -0.772  -2.451   0.720  0.00  0.00    +0.109 C 
ATOM      8  CA  VAL A   2      -0.886   1.314   0.015  0.00  0.00    +0.162 C 
ATOM      9  N   VAL A   2       0.353   1.625   0.736  0.00  0.00    -0.302 N 
ATOM     10  C   PRO A   1       1.241   0.648   1.131  0.00  0.00    +0.234 C 
ATOM     11  O   PRO A   1       2.414   0.922   1.361  0.00  0.00    -0.274 OA
ATOM     12  H   VAL A   2       0.789   2.523   0.565  0.00  0.00    +0.149 HD
ENDROOT
BRANCH   8  13
ATOM     13  CB  VAL A   2      -0.741   1.516  -1.518  0.00  0.00    +0.012 C 
ATOM     14  CG1 VAL A   2      -0.436   2.976  -1.871  0.00  0.00    +0.009 C 
ATOM     15  CG2 VAL A   2       0.301   0.599  -2.167  0.00  0.00    +0.009 C 
ENDBRANCH   8  13
TORSDOF 1
