REMARK  Name = NuBBE_68
REMARK  8 active torsions:
REMARK  status: ('A' for Active; 'I' for Inactive)
REMARK    1  A    between atoms: O_1  and  C_2
REMARK    2  A    between atoms: C_6  and  C_14
REMARK    3  A    between atoms: C_10  and  O_11
REMARK    4  A    between atoms: O_11  and  C_12
REMARK    5  A    between atoms: C_16  and  O_17
REMARK    6  A    between atoms: O_17  and  C_18
REMARK    7  A    between atoms: C_19  and  O_22
REMARK    8  A    between atoms: O_22  and  C_23
REMARK                            x       y       z     vdW  Elec       q    Type
REMARK                         _______ _______ _______ _____ _____    ______ ____
ROOT
ATOM      1  C   LIG A   1      -2.756   3.364   0.749  0.00  0.00    +0.134 A 
ATOM      2  C   LIG A   1      -2.071   2.178   0.475  0.00  0.00    +0.101 A 
ATOM      3  C   LIG A   1      -2.787   0.899   0.330  0.00  0.00    +0.174 C 
ATOM      4  C   LIG A   1      -1.981  -0.279  -0.144  0.00  0.00    +0.129 C 
ATOM      5  C   LIG A   1      -0.567  -0.155   0.408  0.00  0.00    +0.211 C 
ATOM      6  O   LIG A   1       0.048   1.080  -0.009  0.00  0.00    -0.483 OA
ATOM      7  C   LIG A   1      -0.692   2.196   0.281  0.00  0.00    +0.139 A 
ATOM      8  C   LIG A   1      -0.004   3.411   0.338  0.00  0.00    +0.092 A 
ATOM      9  C   LIG A   1      -0.687   4.601   0.616  0.00  0.00    +0.127 A 
ATOM     10  C   LIG A   1      -2.067   4.572   0.822  0.00  0.00    +0.092 A 
ATOM     11  O   LIG A   1      -3.997   0.852   0.520  0.00  0.00    -0.292 OA
ENDROOT
BRANCH   5  12
ATOM     12  C   LIG A   1       0.301  -1.316  -0.060  0.00  0.00    -0.003 A 
ATOM     13  C   LIG A   1       0.401  -2.492   0.703  0.00  0.00    +0.056 A 
ATOM     14  C   LIG A   1       1.182  -3.584   0.276  0.00  0.00    +0.162 A 
ATOM     15  C   LIG A   1       1.916  -3.488  -0.916  0.00  0.00    +0.162 A 
ATOM     16  C   LIG A   1       1.802  -2.327  -1.688  0.00  0.00    +0.050 A 
ATOM     17  C   LIG A   1       1.001  -1.259  -1.271  0.00  0.00    +0.011 A 
BRANCH  14  18
ATOM     18  O   LIG A   1       1.181  -4.637   1.158  0.00  0.00    -0.491 OA
ATOM     19  C   LIG A   1       1.321  -5.939   0.598  0.00  0.00    +0.277 C 
ENDBRANCH  14  18
BRANCH  15  20
ATOM     20  O   LIG A   1       2.688  -4.547  -1.312  0.00  0.00    -0.491 OA
ATOM     21  C   LIG A   1       3.880  -4.231  -2.022  0.00  0.00    +0.277 C 
ENDBRANCH  15  20
ENDBRANCH   5  12
BRANCH   1  22
ATOM     22  O   LIG A   1      -4.110   3.424   0.939  0.00  0.00    -0.506 OA
ATOM     23  H   LIG A   1      -4.473   2.514   0.844  0.00  0.00    +0.292 HD
ENDBRANCH   1  22
BRANCH   9  24
ATOM     24  O   LIG A   1       0.092   5.727   0.659  0.00  0.00    -0.495 OA
ATOM     25  C   LIG A   1      -0.583   6.944   0.965  0.00  0.00    +0.277 C 
ENDBRANCH   9  24
TORSDOF 5
