REMARK  Name = NuBBE_1076
REMARK  7 active torsions:
REMARK  status: ('A' for Active; 'I' for Inactive)
REMARK    1  A    between atoms: C_1  and  N_2
REMARK    2  A    between atoms: C_7  and  O_8
REMARK    3  A    between atoms: C_10  and  O_11
REMARK    4  A    between atoms: O_11  and  C_12
REMARK    5  A    between atoms: C_13  and  O_14
REMARK    6  A    between atoms: O_14  and  C_15
REMARK    7  A    between atoms: C_21  and  O_22
REMARK                            x       y       z     vdW  Elec       q    Type
REMARK                         _______ _______ _______ _____ _____    ______ ____
ROOT
ATOM      1  C   LIG A   1      -1.938   0.903   1.221  0.00  0.00    +0.149 C 
ATOM      2  N   LIG A   1      -0.816   0.972   0.255  0.00  0.00    -0.337 N 
ATOM      3  C   LIG A   1      -0.043  -0.232   0.216  0.00  0.00    +0.102 A 
ATOM      4  C   LIG A   1       1.358  -0.155   0.337  0.00  0.00    +0.091 A 
ATOM      5  C   LIG A   1       1.995   1.168   0.525  0.00  0.00    +0.201 A 
ATOM      6  O   LIG A   1       3.197   1.238   0.768  0.00  0.00    -0.286 OA
ATOM      7  C   LIG A   1       2.145  -1.312   0.304  0.00  0.00    +0.133 A 
ATOM      8  C   LIG A   1       1.563  -2.559   0.114  0.00  0.00    +0.095 A 
ATOM      9  C   LIG A   1       0.180  -2.672  -0.049  0.00  0.00    +0.167 A 
ATOM     10  C   LIG A   1      -0.625  -1.512   0.007  0.00  0.00    +0.186 A 
ATOM     11  C   LIG A   1      -0.203   2.251   0.199  0.00  0.00    +0.095 A 
ATOM     12  C   LIG A   1       1.180   2.387   0.373  0.00  0.00    +0.050 A 
ATOM     13  C   LIG A   1       1.798   3.646   0.385  0.00  0.00    +0.014 A 
ATOM     14  C   LIG A   1       1.035   4.795   0.184  0.00  0.00    +0.004 A 
ATOM     15  C   LIG A   1      -0.332   4.683  -0.059  0.00  0.00    +0.047 A 
ATOM     16  C   LIG A   1      -0.929   3.424  -0.072  0.00  0.00    +0.141 A 
ENDROOT
BRANCH   7  17
ATOM     17  O   LIG A   1       3.506  -1.298   0.463  0.00  0.00    -0.506 OA
ATOM     18  H   LIG A   1       3.778  -0.368   0.642  0.00  0.00    +0.292 HD
ENDBRANCH   7  17
BRANCH   9  19
ATOM     19  O   LIG A   1      -0.445  -3.884  -0.195  0.00  0.00    -0.491 OA
ATOM     20  C   LIG A   1       0.327  -4.922  -0.793  0.00  0.00    +0.277 C 
ENDBRANCH   9  19
BRANCH  10  21
ATOM     21  O   LIG A   1      -2.001  -1.567  -0.069  0.00  0.00    -0.489 OA
ATOM     22  C   LIG A   1      -2.508  -2.243  -1.216  0.00  0.00    +0.277 C 
ENDBRANCH  10  21
BRANCH  16  23
ATOM     23  O   LIG A   1      -2.250   3.365  -0.431  0.00  0.00    -0.505 OA
ATOM     24  H   LIG A   1      -2.392   2.455  -0.751  0.00  0.00    +0.292 HD
ENDBRANCH  16  23
TORSDOF 4
