@<TRIPOS>MOLECULE
NuBBE_1253
 26 26 0 0 0
SMALL
GASTEIGER

@<TRIPOS>ATOM
      1 O          -2.0277    2.5216   -1.9534 O.2     1  LIG1       -0.2955
      2 C          -1.0911    2.5117   -1.1721 C.2     1  LIG1        0.1572
      3 C          -0.5097    1.2855   -0.5487 C.ar    1  LIG1        0.0975
      4 C           0.5624    1.4312    0.3628 C.ar    1  LIG1        0.1373
      5 C           1.1062    0.2906    0.9660 C.ar    1  LIG1        0.0227
      6 C           0.6402   -0.9793    0.6413 C.ar    1  LIG1        0.1271
      7 C          -0.4160   -1.1171   -0.2521 C.ar    1  LIG1        0.0227
      8 C          -1.0151    0.0035   -0.8384 C.ar    1  LIG1        0.1373
      9 O          -2.0225   -0.1356   -1.7575 O.3     1  LIG1       -0.4942
     10 C          -2.9464   -1.2002   -1.5432 C.3     1  LIG1        0.0788
     11 O           1.2716   -2.0174    1.2706 O.3     1  LIG1       -0.4949
     12 C           1.2615   -3.2550    0.5644 C.3     1  LIG1        0.0788
     13 O           1.0347    2.7000    0.6049 O.3     1  LIG1       -0.4942
     14 C           2.1376    2.8208    1.5021 C.3     1  LIG1        0.0788
     15 H          -0.6241    3.4697   -0.8827 H       1  LIG1        0.1084
     16 H           1.9205    0.3489    1.6809 H       1  LIG1        0.0691
     17 H          -0.7681   -2.1053   -0.5066 H       1  LIG1        0.0691
     18 H          -3.6896   -1.1662   -2.3451 H       1  LIG1        0.0660
     19 H          -3.4664   -1.0796   -0.5870 H       1  LIG1        0.0660
     20 H          -2.4730   -2.1848   -1.6050 H       1  LIG1        0.0660
     21 H           1.8359   -3.9797    1.1474 H       1  LIG1        0.0660
     22 H           1.7416   -3.1444   -0.4142 H       1  LIG1        0.0660
     23 H           0.2487   -3.6565    0.4623 H       1  LIG1        0.0660
     24 H           2.4619    3.8652    1.5098 H       1  LIG1        0.0660
     25 H           2.9919    2.2183    1.1731 H       1  LIG1        0.0660
     26 H           1.8347    2.5539    2.5204 H       1  LIG1        0.0660
@<TRIPOS>BOND
     1     1     2    2
     2     2     3    1
     3     3     4   ar
     4     4     5   ar
     5     5     6   ar
     6     6     7   ar
     7     7     8   ar
     8     3     8   ar
     9     8     9    1
    10     9    10    1
    11     6    11    1
    12    11    12    1
    13     4    13    1
    14    13    14    1
    15     2    15    1
    16     5    16    1
    17     7    17    1
    18    10    18    1
    19    10    19    1
    20    10    20    1
    21    12    21    1
    22    12    22    1
    23    12    23    1
    24    14    24    1
    25    14    25    1
    26    14    26    1
