REMARK  Name = NuBBE_114
REMARK  12 active torsions:
REMARK  status: ('A' for Active; 'I' for Inactive)
REMARK    1  A    between atoms: O_1  and  C_2
REMARK    2  A    between atoms: C_6  and  O_15
REMARK    3  A    between atoms: C_10  and  C_11
REMARK    4  A    between atoms: C_11  and  O_12
REMARK    5  A    between atoms: O_12  and  C_13
REMARK    6  A    between atoms: O_15  and  C_16
REMARK    7  A    between atoms: C_19  and  C_27
REMARK    8  A    between atoms: C_21  and  O_26
REMARK    9  A    between atoms: C_23  and  O_25
REMARK   10  A    between atoms: C_27  and  O_28
REMARK   11  A    between atoms: C_29  and  O_31
REMARK   12  A    between atoms: C_34  and  O_38
REMARK                            x       y       z     vdW  Elec       q    Type
REMARK                         _______ _______ _______ _____ _____    ______ ____
ROOT
ATOM      1  C   LIG A   1      -2.543  -1.312  -2.378  0.00  0.00    +0.156 C 
ATOM      2  C   LIG A   1      -1.745  -1.127  -1.053  0.00  0.00    +0.073 C 
ATOM      3  C   LIG A   1      -0.548  -0.228  -1.448  0.00  0.00    +0.096 C 
ATOM      4  C   LIG A   1       0.055   0.548  -0.263  0.00  0.00    +0.317 C 
ATOM      5  O   LIG A   1      -0.923   1.226   0.529  0.00  0.00    -0.470 OA
ATOM      6  C   LIG A   1      -2.111   0.586   0.722  0.00  0.00    +0.201 C 
ATOM      7  C   LIG A   1      -2.553  -0.488   0.052  0.00  0.00    +0.077 C 
ATOM      8  C   LIG A   1      -1.907  -0.379  -3.424  0.00  0.00    +0.170 C 
ATOM      9  C   LIG A   1      -1.133   0.596  -2.588  0.00  0.00    -0.036 C 
ATOM     10  C   LIG A   1      -1.098   1.929  -2.741  0.00  0.00    +0.010 C 
ENDROOT
BRANCH   1  11
ATOM     11  O   LIG A   1      -2.429  -2.667  -2.827  0.00  0.00    -0.388 OA
ATOM     12  H   LIG A   1      -3.035  -2.753  -3.587  0.00  0.00    +0.210 HD
ENDBRANCH   1  11
BRANCH   7  13
ATOM     13  C   LIG A   1      -3.891  -1.052   0.382  0.00  0.00    +0.338 C 
ATOM     14  O   LIG A   1      -4.235  -2.183   0.102  0.00  0.00    -0.245 OA
BRANCH  13  15
ATOM     15  O   LIG A   1      -4.680  -0.091   0.933  0.00  0.00    -0.465 OA
ATOM     16  C   LIG A   1      -6.043  -0.459   1.143  0.00  0.00    +0.280 C 
ENDBRANCH  13  15
ENDBRANCH   7  13
BRANCH   8  17
ATOM     17  O   LIG A   1      -2.896   0.238  -4.229  0.00  0.00    -0.385 OA
ATOM     18  H   LIG A   1      -2.421   0.740  -4.913  0.00  0.00    +0.210 HD
ENDBRANCH   8  17
BRANCH   4  19
ATOM     19  O   LIG A   1       0.921  -0.313   0.512  0.00  0.00    -0.309 OA
BRANCH  19  20
ATOM     20  C   LIG A   1       1.466   0.395   1.640  0.00  0.00    +0.286 C 
ATOM     21  O   LIG A   1       2.256   1.511   1.218  0.00  0.00    -0.340 OA
ATOM     22  C   LIG A   1       3.649   1.309   0.974  0.00  0.00    +0.178 C 
ATOM     23  C   LIG A   1       4.328   0.554   2.123  0.00  0.00    +0.177 C 
ATOM     24  C   LIG A   1       3.636  -0.777   2.440  0.00  0.00    +0.179 C 
ATOM     25  C   LIG A   1       2.136  -0.555   2.672  0.00  0.00    +0.201 C 
BRANCH  24  26
ATOM     26  O   LIG A   1       3.907  -1.793   1.481  0.00  0.00    -0.386 OA
ATOM     27  H   LIG A   1       3.500  -1.549   0.623  0.00  0.00    +0.210 HD
ENDBRANCH  24  26
BRANCH  23  28
ATOM     28  O   LIG A   1       4.243   1.377   3.311  0.00  0.00    -0.387 OA
ATOM     29  H   LIG A   1       4.739   2.199   3.142  0.00  0.00    +0.210 HD
ENDBRANCH  23  28
BRANCH  25  30
ATOM     30  O   LIG A   1       1.968   0.016   3.992  0.00  0.00    -0.384 OA
ATOM     31  H   LIG A   1       2.630   0.739   4.068  0.00  0.00    +0.210 HD
ENDBRANCH  25  30
BRANCH  22  32
ATOM     32  C   LIG A   1       3.954   0.766  -0.431  0.00  0.00    +0.190 C 
BRANCH  32  33
ATOM     33  O   LIG A   1       3.371  -0.504  -0.686  0.00  0.00    -0.392 OA
ATOM     34  H   LIG A   1       2.411  -0.360  -0.794  0.00  0.00    +0.209 HD
ENDBRANCH  32  33
ENDBRANCH  22  32
ENDBRANCH  19  20
ENDBRANCH   4  19
TORSDOF 11
