@<TRIPOS>MOLECULE
NuBBE_863
 42 43 0 0 0
SMALL
GASTEIGER

@<TRIPOS>ATOM
      1 C          -1.4004    1.0446   -2.1338 C.3     1  LIG1       -0.0593
      2 C           0.1039    0.8575   -2.0213 C.3     1  LIG1       -0.0061
      3 C           0.7550    1.0847   -0.6491 C.3     1  LIG1        0.0898
      4 O           2.0785    0.5060   -0.7718 O.3     1  LIG1       -0.3430
      5 C           2.0980   -0.3946   -1.8971 C.3     1  LIG1        0.1624
      6 C           0.6368   -0.5309   -2.3533 C.3     1  LIG1        0.0126
      7 C           0.4055   -1.0125   -3.7736 C.3     1  LIG1       -0.0575
      8 O           2.9263    0.1009   -2.9482 O.3     1  LIG1       -0.3542
      9 C           4.3027    0.1526   -2.5800 C.3     1  LIG1        0.0394
     10 C           0.0516    0.5102    0.5804 C.ar    1  LIG1       -0.0114
     11 C           0.3197   -0.7769    1.0877 C.ar    1  LIG1       -0.0104
     12 C          -0.2799   -1.2716    2.2573 C.ar    1  LIG1        0.1653
     13 O           0.0996   -2.5425    2.5924 O.3     1  LIG1       -0.4913
     14 C          -0.4918   -3.1183    3.7532 C.3     1  LIG1        0.0790
     15 C          -1.1640   -0.4321    2.9483 C.ar    1  LIG1        0.2010
     16 C          -1.4775    0.8363    2.4465 C.ar    1  LIG1        0.1653
     17 C          -0.8776    1.3095    1.2802 C.ar    1  LIG1       -0.0104
     18 O          -2.3492    1.5590    3.2323 O.3     1  LIG1       -0.4913
     19 C          -3.2138    2.4353    2.5224 C.3     1  LIG1        0.0790
     20 O          -1.7462   -0.8027    4.1313 O.3     1  LIG1       -0.5009
     21 H          -1.7174    1.9857   -1.6719 H       1  LIG1        0.0233
     22 H          -1.9610    0.2239   -1.6775 H       1  LIG1        0.0233
     23 H          -1.6921    1.0948   -3.1901 H       1  LIG1        0.0233
     24 H           0.5627    1.5760   -2.7181 H       1  LIG1        0.0331
     25 H           0.9008    2.1584   -0.4804 H       1  LIG1        0.0650
     26 H           2.4795   -1.3665   -1.5655 H       1  LIG1        0.0912
     27 H           0.1424   -1.2539   -1.6926 H       1  LIG1        0.0350
     28 H           0.7479   -0.2952   -4.5243 H       1  LIG1        0.0234
     29 H          -0.6631   -1.1903   -3.9413 H       1  LIG1        0.0234
     30 H           0.9218   -1.9641   -3.9389 H       1  LIG1        0.0234
     31 H           4.9007    0.2747   -3.4895 H       1  LIG1        0.0525
     32 H           4.6299   -0.7678   -2.0843 H       1  LIG1        0.0525
     33 H           4.4915    1.0145   -1.9333 H       1  LIG1        0.0525
     34 H           1.0398   -1.4224    0.5829 H       1  LIG1        0.0659
     35 H          -0.1199   -4.1422    3.8514 H       1  LIG1        0.0660
     36 H          -1.5816   -3.1824    3.6591 H       1  LIG1        0.0660
     37 H          -0.1879   -2.5795    4.6571 H       1  LIG1        0.0660
     38 H          -1.0801    2.3125    0.9231 H       1  LIG1        0.0659
     39 H          -3.9750    2.7870    3.2258 H       1  LIG1        0.0660
     40 H          -3.7259    1.9152    1.7056 H       1  LIG1        0.0660
     41 H          -2.6695    3.3105    2.1566 H       1  LIG1        0.0660
     42 H          -2.2209   -0.0031    4.4424 H       1  LIG1        0.2924
@<TRIPOS>BOND
     1     1     2    1
     2     2     3    1
     3     3     4    1
     4     4     5    1
     5     5     6    1
     6     2     6    1
     7     6     7    1
     8     5     8    1
     9     8     9    1
    10     3    10    1
    11    10    11   ar
    12    11    12   ar
    13    12    13    1
    14    13    14    1
    15    12    15   ar
    16    15    16   ar
    17    16    17   ar
    18    10    17   ar
    19    16    18    1
    20    18    19    1
    21    15    20    1
    22     1    21    1
    23     1    22    1
    24     1    23    1
    25     2    24    1
    26     3    25    1
    27     5    26    1
    28     6    27    1
    29     7    28    1
    30     7    29    1
    31     7    30    1
    32     9    31    1
    33     9    32    1
    34     9    33    1
    35    11    34    1
    36    14    35    1
    37    14    36    1
    38    14    37    1
    39    17    38    1
    40    19    39    1
    41    19    40    1
    42    19    41    1
    43    20    42    1
