REMARK  Name = NuBBE_1053
REMARK  6 active torsions:
REMARK  status: ('A' for Active; 'I' for Inactive)
REMARK    1  A    between atoms: C_5  and  C_6
REMARK    2  A    between atoms: C_10  and  C_11
REMARK    3  A    between atoms: C_16  and  C_17
REMARK    4  A    between atoms: C_24  and  C_26
REMARK    5  A    between atoms: C_34  and  C_35
REMARK    6  A    between atoms: C_34  and  C_36
REMARK                            x       y       z     vdW  Elec       q    Type
REMARK                         _______ _______ _______ _____ _____    ______ ____
ROOT
ATOM      1  O   LIG A   1      -3.723   1.174   4.689  0.00  0.00    -0.292 OA
ATOM      2  C   LIG A   1      -2.815   0.969   3.884  0.00  0.00    +0.162 C 
ATOM      3  C   LIG A   1      -2.560  -0.429   3.474  0.00  0.00    +0.043 C 
ATOM      4  C   LIG A   1      -1.540  -0.770   2.677  0.00  0.00    -0.016 C 
ATOM      5  C   LIG A   1      -0.534   0.197   2.062  0.00  0.00    -0.006 C 
ATOM      6  C   LIG A   1       0.725   0.102   2.947  0.00  0.00    +0.016 C 
ATOM      7  C   LIG A   1      -1.214   1.612   2.025  0.00  0.00    +0.019 C 
ATOM      8  C   LIG A   1      -0.281   2.653   1.410  0.00  0.00    +0.080 C 
ATOM      9  C   LIG A   1       0.152   2.278   0.005  0.00  0.00    +0.143 C 
ATOM     10  C   LIG A   1       0.686   0.841  -0.245  0.00  0.00    +0.062 C 
ATOM     11  C   LIG A   1       2.160   0.923   0.217  0.00  0.00    +0.022 C 
ATOM     12  C   LIG A   1      -0.221  -0.178   0.553  0.00  0.00    +0.015 C 
ATOM     13  C   LIG A   1       0.278  -1.626   0.328  0.00  0.00    +0.006 C 
ATOM     14  C   LIG A   1       0.164  -2.015  -1.145  0.00  0.00    +0.014 C 
ATOM     15  C   LIG A   1       0.940  -1.091  -2.105  0.00  0.00    +0.042 C 
ATOM     16  C   LIG A   1       2.457  -1.381  -2.018  0.00  0.00    +0.018 C 
ATOM     17  C   LIG A   1       0.654   0.388  -1.749  0.00  0.00    +0.128 C 
ATOM     18  O   LIG A   1      -0.486   0.930  -2.446  0.00  0.00    -0.351 OA
ATOM     19  C   LIG A   1       0.810   1.355  -2.911  0.00  0.00    +0.260 C 
ATOM     20  C   LIG A   1       1.194   0.882  -4.264  0.00  0.00    +0.340 C 
ATOM     21  O   LIG A   1       1.145  -0.458  -4.502  0.00  0.00    -0.454 OA
ATOM     22  C   LIG A   1       0.448  -1.331  -3.587  0.00  0.00    +0.218 C 
ATOM     23  O   LIG A   1       1.622   1.669  -5.096  0.00  0.00    -0.248 OA
ATOM     24  O   LIG A   1       0.249   3.184  -0.825  0.00  0.00    -0.297 OA
ATOM     25  C   LIG A   1      -1.909   2.084   3.348  0.00  0.00    +0.031 C 
ATOM     26  C   LIG A   1      -2.826   3.299   3.054  0.00  0.00    +0.019 C 
ATOM     27  C   LIG A   1      -0.948   2.493   4.474  0.00  0.00    +0.019 C 
ENDROOT
BRANCH  22  28
ATOM     28  C   LIG A   1       0.568  -2.753  -4.074  0.00  0.00    +0.031 A 
ATOM     29  C   LIG A   1       1.623  -3.326  -4.760  0.00  0.00    +0.202 A 
ATOM     30  O   LIG A   1       1.372  -4.628  -5.043  0.00  0.00    -0.471 OA
ATOM     31  C   LIG A   1       0.133  -4.904  -4.567  0.00  0.00    +0.195 A 
ATOM     32  C   LIG A   1      -0.410  -3.789  -3.974  0.00  0.00    +0.048 A 
ENDBRANCH  22  28
TORSDOF 1
