@<TRIPOS>MOLECULE
NuBBE_1522
 103 109 0 0 0
SMALL
GASTEIGER

@<TRIPOS>ATOM
      1 C          -0.2771   -0.9143    1.7561 C.3     1  LIG1       -0.0564
      2 C           0.4128   -0.0787    0.6336 C.3     1  LIG1        0.0034
      3 C           1.1121    1.1221    1.2869 C.3     1  LIG1       -0.0148
      4 C           0.2337    2.2393    1.7710 C.3     1  LIG1       -0.0192
      5 C           1.2202    2.4974    0.6457 C.3     1  LIG1       -0.0398
      6 C           0.6122    2.4670    3.2444 C.3     1  LIG1       -0.0273
      7 H          -0.0343    1.8073    3.8453 H       1  LIG1        0.0311
      8 C           2.0492    1.9194    3.3491 C.3     1  LIG1       -0.0487
      9 C           2.1769    0.8086    2.3192 C.3     1  LIG1       -0.0460
     10 C           0.3928    3.9102    3.7362 C.3     1  LIG1        0.0157
     11 H          -0.6576    4.1534    3.5176 H       1  LIG1        0.0353
     12 C           1.2134    5.0053    3.0630 C.3     1  LIG1       -0.0163
     13 C           1.9070    5.7851    4.1833 C.3     1  LIG1        0.0906
     14 H           1.7894    6.8529    3.9979 H       1  LIG1        0.0624
     15 O           1.1753    5.4731    5.3743 O.3     1  LIG1       -0.3454
     16 C           0.5874    4.1777    5.2328 C.3     1  LIG1        0.1598
     17 O           1.3907    3.2433    5.9143 O.3     1  LIG1       -0.3667
     18 C           3.4212    5.4665    4.2862 C.3     1  LIG1        0.1094
     19 H           3.8702    5.6974    3.3109 H       1  LIG1        0.0648
     20 C           4.2414    6.1968    5.3810 C.3     1  LIG1        0.0887
     21 C           4.2016    7.7139    5.2401 C.3     1  LIG1       -0.0338
     22 C           3.8698    5.7685    6.8020 C.3     1  LIG1       -0.0338
     23 O           5.6150    5.7674    5.1959 O.3     1  LIG1       -0.3865
     24 O           3.6442    4.0628    4.4873 O.3     1  LIG1       -0.3864
     25 C          -1.2383    2.1903    1.4340 C.3     1  LIG1       -0.0463
     26 C          -1.5845    1.5271    0.0864 C.3     1  LIG1       -0.0486
     27 C          -0.6171    0.4194   -0.4406 C.3     1  LIG1       -0.0271
     28 H          -0.0215    0.9596   -1.1901 H       1  LIG1        0.0312
     29 C          -1.2907   -0.7352   -1.2970 C.3     1  LIG1       -0.0250
     30 C          -2.3253   -1.5127   -0.4469 C.3     1  LIG1       -0.0590
     31 C          -0.1485   -1.6346   -1.9113 C.3     1  LIG1       -0.0245
     32 H           0.4144   -0.9592   -2.5771 H       1  LIG1        0.0313
     33 C           0.8837   -2.1001   -0.8575 C.3     1  LIG1       -0.0224
     34 C           1.4914   -0.9632   -0.0464 C.3     1  LIG1        0.0617
     35 H           2.1456   -1.4079    0.7125 H       1  LIG1        0.0599
     36 O           2.3688   -0.2174   -0.9029 O.3     1  LIG1       -0.3912
     37 C          -0.6307   -2.8039   -2.8538 C.3     1  LIG1        0.0056
     38 C          -1.1754   -4.0246   -2.0762 C.3     1  LIG1       -0.0562
     39 C           0.6186   -3.3220   -3.6320 C.3     1  LIG1       -0.0562
     40 C          -1.6652   -2.2864   -3.9168 C.3     1  LIG1        0.1088
     41 H          -1.1362   -1.9212   -4.8073 H       1  LIG1        0.0739
     42 C          -2.6087   -1.1585   -3.4614 C.3     1  LIG1       -0.0146
     43 C          -2.0223   -0.1132   -2.5164 C.3     1  LIG1       -0.0437
     44 O          -2.5826   -3.3433   -4.3065 O.3     1  LIG1       -0.4573
     45 C          -2.2647   -4.2382   -5.2666 C.2     1  LIG1        0.3413
     46 O          -1.2507   -4.2677   -5.9423 O.2     1  LIG1       -0.2449
     47 C          -3.3579   -5.2445   -5.3431 C.ar    1  LIG1        0.0797
     48 C          -3.0829   -6.5936   -5.6691 C.ar    1  LIG1        0.0410
     49 N          -1.7624   -7.0774   -5.7404 N.pl3   1  LIG1       -0.3463
     50 C          -1.4904   -8.2081   -6.6145 C.3     1  LIG1       -0.0024
     51 C          -4.1836   -7.4672   -5.7465 C.ar    1  LIG1       -0.0401
     52 C          -5.4976   -7.0188   -5.5607 C.ar    1  LIG1       -0.0600
     53 C          -5.7460   -5.6874   -5.2498 C.ar    1  LIG1       -0.0609
     54 C          -4.6801   -4.8030   -5.1384 C.ar    1  LIG1       -0.0460
     55 H          -1.1467   -0.4089    2.1786 H       1  LIG1        0.0236
     56 H           0.3873   -1.1326    2.5939 H       1  LIG1        0.0236
     57 H          -0.5979   -1.8981    1.4259 H       1  LIG1        0.0236
     58 H           2.1261    3.0660    0.8282 H       1  LIG1        0.0277
     59 H           0.8471    2.6919   -0.3506 H       1  LIG1        0.0277
     60 H           2.3022    1.5513    4.3464 H       1  LIG1        0.0268
     61 H           2.7704    2.6785    3.0542 H       1  LIG1        0.0268
     62 H           2.0618   -0.1571    2.8124 H       1  LIG1        0.0271
     63 H           3.1737    0.8129    1.8643 H       1  LIG1        0.0271
     64 H           0.5179    5.6832    2.5498 H       1  LIG1        0.0295
     65 H           1.9121    4.6649    2.2994 H       1  LIG1        0.0295
     66 H          -0.3827    4.1961    5.7422 H       1  LIG1        0.0910
     67 H           2.2784    3.3605    5.5302 H       1  LIG1        0.2125
     68 H           3.1856    8.1087    5.3266 H       1  LIG1        0.0258
     69 H           4.6220    8.0295    4.2787 H       1  LIG1        0.0258
     70 H           4.8173    8.1865    6.0143 H       1  LIG1        0.0258
     71 H           2.8564    6.0711    7.0749 H       1  LIG1        0.0258
     72 H           4.5605    6.2128    7.5294 H       1  LIG1        0.0258
     73 H           3.9598    4.6844    6.9315 H       1  LIG1        0.0258
     74 H           5.9536    6.1683    4.3759 H       1  LIG1        0.2102
     75 H           4.6146    3.9688    4.5980 H       1  LIG1        0.2100
     76 H          -1.6397    3.2115    1.4350 H       1  LIG1        0.0271
     77 H          -1.7764    1.6621    2.2290 H       1  LIG1        0.0271
     78 H          -1.6014    2.3226   -0.6745 H       1  LIG1        0.0268
     79 H          -2.6212    1.1811    0.1324 H       1  LIG1        0.0268
     80 H          -2.7713   -0.8958    0.3385 H       1  LIG1        0.0235
     81 H          -1.8940   -2.3864    0.0388 H       1  LIG1        0.0235
     82 H          -3.1719   -1.8856   -1.0256 H       1  LIG1        0.0235
     83 H           1.7207   -2.6023   -1.3504 H       1  LIG1        0.0293
     84 H           0.4389   -2.8309   -0.1787 H       1  LIG1        0.0293
     85 H           1.8464    0.3830   -1.4485 H       1  LIG1        0.2098
     86 H          -2.1302   -3.8210   -1.5911 H       1  LIG1        0.0236
     87 H          -0.4712   -4.3787   -1.3182 H       1  LIG1        0.0236
     88 H          -1.3429   -4.8813   -2.7382 H       1  LIG1        0.0236
     89 H           1.0715   -2.5258   -4.2344 H       1  LIG1        0.0236
     90 H           0.3732   -4.1506   -4.2988 H       1  LIG1        0.0236
     91 H           1.3910   -3.7209   -2.9702 H       1  LIG1        0.0236
     92 H          -3.5160   -1.5884   -3.0199 H       1  LIG1        0.0301
     93 H          -2.9830   -0.6448   -4.3571 H       1  LIG1        0.0301
     94 H          -2.8339    0.5447   -2.1838 H       1  LIG1        0.0272
     95 H          -1.3305    0.5222   -3.0854 H       1  LIG1        0.0272
     96 H          -1.1024   -6.3096   -5.9057 H       1  LIG1        0.1458
     97 H          -1.9183   -9.1369   -6.2233 H       1  LIG1        0.0425
     98 H          -0.4080   -8.3580   -6.6815 H       1  LIG1        0.0425
     99 H          -1.8665   -8.0260   -7.6270 H       1  LIG1        0.0425
    100 H          -4.0391   -8.5264   -5.9384 H       1  LIG1        0.0636
    101 H          -6.3243   -7.7205   -5.6424 H       1  LIG1        0.0618
    102 H          -6.7625   -5.3406   -5.0894 H       1  LIG1        0.0618
    103 H          -4.8832   -3.7646   -4.8910 H       1  LIG1        0.0626
@<TRIPOS>BOND
     1     2     3    1
     2     3     4    1
     3     4     5    1
     4     3     5    1
     5     4     6    1
     6     6     8    1
     7     8     9    1
     8     3     9    1
     9    10    12    1
    10    12    13    1
    11    13    14    1
    12    13    15    1
    13    15    16    1
    14    10    16    1
    15    16    17    1
    16    13    18    1
    17    18    19    1
    18    18    20    1
    19    20    21    1
    20    20    22    1
    21    20    23    1
    22    18    24    1
    23     4    25    1
    24    25    26    1
    25    26    27    1
    26     2    27    1
    27    27    29    1
    28    29    31    1
    29    31    33    1
    30    33    34    1
    31     2    34    1
    32    31    37    1
    33    37    40    1
    34    40    42    1
    35    42    43    1
    36    29    43    1
    37    44    45    1
    38    45    46    2
    39    45    47    1
    40    47    48   ar
    41    48    49    1
    42    49    50    1
    43    48    51   ar
    44    51    52   ar
    45    52    53   ar
    46    53    54   ar
    47    47    54   ar
    48     1     2    1
    49    27    28    1
    50    29    30    1
    51    31    32    1
    52    37    38    1
    53    37    39    1
    54     6     7    1
    55    10     6    1
    56    10    11    1
    57    34    36    1
    58    34    35    1
    59    40    44    1
    60    40    41    1
    61     1    55    1
    62     1    56    1
    63     1    57    1
    64     5    58    1
    65     5    59    1
    66     8    60    1
    67     8    61    1
    68     9    62    1
    69     9    63    1
    70    12    64    1
    71    12    65    1
    72    16    66    1
    73    17    67    1
    74    21    68    1
    75    21    69    1
    76    21    70    1
    77    22    71    1
    78    22    72    1
    79    22    73    1
    80    23    74    1
    81    24    75    1
    82    25    76    1
    83    25    77    1
    84    26    78    1
    85    26    79    1
    86    30    80    1
    87    30    81    1
    88    30    82    1
    89    33    83    1
    90    33    84    1
    91    36    85    1
    92    38    86    1
    93    38    87    1
    94    38    88    1
    95    39    89    1
    96    39    90    1
    97    39    91    1
    98    42    92    1
    99    42    93    1
   100    43    94    1
   101    43    95    1
   102    49    96    1
   103    50    97    1
   104    50    98    1
   105    50    99    1
   106    51   100    1
   107    52   101    1
   108    53   102    1
   109    54   103    1
