REMARK  Name = NuBBE_1537
REMARK  4 active torsions:
REMARK  status: ('A' for Active; 'I' for Inactive)
REMARK    1  A    between atoms: C_1  and  C_2
REMARK    2  A    between atoms: C_13  and  C_17
REMARK    3  A    between atoms: C_17  and  C_18
REMARK    4  A    between atoms: C_17  and  C_19
REMARK                            x       y       z     vdW  Elec       q    Type
REMARK                         _______ _______ _______ _____ _____    ______ ____
ROOT
ATOM      1  C   LIG A   1      -2.612   0.339   0.630  0.00  0.00    +0.012 C 
ATOM      2  C   LIG A   1      -1.154   0.157   1.074  0.00  0.00    -0.025 C 
ATOM      3  C   LIG A   1       0.133  -0.023   0.111  0.00  0.00    +0.006 C 
ATOM      4  C   LIG A   1      -0.437  -1.411  -0.147  0.00  0.00    +0.022 C 
ATOM      5  C   LIG A   1      -0.834  -1.340   1.419  0.00  0.00    +0.003 C 
ATOM      6  C   LIG A   1      -1.469  -2.719   1.485  0.00  0.00    +0.009 C 
ATOM      7  C   LIG A   1      -0.368  -3.614   0.849  0.00  0.00    +0.031 C 
ATOM      8  C   LIG A   1       0.239  -2.716  -0.205  0.00  0.00    -0.073 C 
ATOM      9  C   LIG A   1       1.207  -2.995  -1.079  0.00  0.00    +0.008 C 
ATOM     10  C   LIG A   1       0.077   1.306  -0.618  0.00  0.00    -0.004 C 
ATOM     11  C   LIG A   1      -0.124   2.291   0.564  0.00  0.00    +0.004 C 
ATOM     12  C   LIG A   1      -0.644   1.433   1.747  0.00  0.00    +0.007 C 
ENDROOT
BRANCH  10  13
ATOM     13  C   LIG A   1       1.284   1.559  -1.540  0.00  0.00    -0.014 C 
ATOM     14  C   LIG A   1       1.101   2.875  -2.303  0.00  0.00    +0.007 C 
ATOM     15  C   LIG A   1       2.651   1.559  -0.849  0.00  0.00    +0.007 C 
ENDBRANCH  10  13
TORSDOF 1
