@<TRIPOS>MOLECULE
NuBBE_1151
 88 92 0 0 0
SMALL
GASTEIGER

@<TRIPOS>ATOM
      1 C          -0.2923    3.3367   -2.6617 C.3     1  LIG1       -0.0621
      2 C           0.3866    2.0048   -3.0042 C.3     1  LIG1       -0.0402
      3 H           1.3935    2.2299   -3.3790 H       1  LIG1        0.0301
      4 C           0.5346    1.0471   -1.7737 C.3     1  LIG1       -0.0325
      5 H          -0.4827    0.8006   -1.4402 H       1  LIG1        0.0309
      6 C           1.2177   -0.2844   -2.1129 C.3     1  LIG1       -0.0489
      7 C           1.3092   -0.9635   -0.7570 C.3     1  LIG1       -0.0466
      8 C           1.7809    0.1357    0.2309 C.3     1  LIG1       -0.0231
      9 C           3.3106   -0.0366    0.4061 C.3     1  LIG1       -0.0588
     10 C           1.0479   -0.0472    1.6050 C.3     1  LIG1       -0.0289
     11 C           1.2933   -1.3987    2.2908 C.3     1  LIG1       -0.0489
     12 C           0.4365   -1.5000    3.5480 C.3     1  LIG1       -0.0485
     13 C           0.9210   -0.5185    4.6265 C.3     1  LIG1       -0.0230
     14 C           0.1120   -0.6370    5.9507 C.3     1  LIG1        0.0267
     15 C           0.4528   -1.9702    6.6603 C.3     1  LIG1       -0.0528
     16 C           0.5499    0.5118    6.8554 C.2     1  LIG1        0.1392
     17 C           0.3987    1.9149    6.3350 C.3     1  LIG1        0.0069
     18 C           0.3401    2.0156    4.8236 C.3     1  LIG1       -0.0399
     19 C           1.0627    0.9204    4.0645 C.3     1  LIG1       -0.0187
     20 C           2.4372    1.2161    3.5036 C.3     1  LIG1       -0.0401
     21 C           1.2772    1.1486    2.5329 C.3     1  LIG1       -0.0194
     22 C           0.9479    2.4852    1.8693 C.3     1  LIG1       -0.0460
     23 C           0.4295    2.3481    0.4384 C.3     1  LIG1       -0.0463
     24 O           0.9564    0.3320    8.0059 O.2     1  LIG1       -0.2968
     25 C          -1.4142   -0.5887    5.7738 C.3     1  LIG1       -0.0528
     26 C           1.3503    1.5128   -0.4899 C.3     1  LIG1       -0.0233
     27 C           2.5785    2.3698   -0.8782 C.3     1  LIG1       -0.0588
     28 C          -0.3837    1.3789   -4.2092 C.3     1  LIG1       -0.0465
     29 C          -1.8865    1.1523   -3.9847 C.3     1  LIG1       -0.0314
     30 C          -2.5020    0.2264   -5.0241 C.2     1  LIG1       -0.0706
     31 C          -2.4483   -1.2705   -4.7106 C.3     1  LIG1        0.0113
     32 C          -3.2599   -1.5739   -3.4379 C.3     1  LIG1       -0.0556
     33 C          -2.9112   -2.1986   -5.8591 C.3     1  LIG1        0.0986
     34 O          -2.8335   -3.5795   -5.4580 O.3     1  LIG1       -0.4642
     35 C          -1.6530   -4.2102   -5.7001 C.2     1  LIG1        0.3040
     36 C          -1.6956   -5.5679   -5.0633 C.3     1  LIG1        0.0332
     37 O          -0.6900   -3.7425   -6.2691 O.2     1  LIG1       -0.2512
     38 C          -3.0618    0.7513   -6.1299 C.2     1  LIG1       -0.0991
     39 H           0.3114    3.9534   -1.9966 H       1  LIG1        0.0233
     40 H          -1.2678    3.1766   -2.1909 H       1  LIG1        0.0233
     41 H          -0.4516    3.9316   -3.5690 H       1  LIG1        0.0233
     42 H           2.2164   -0.1293   -2.5372 H       1  LIG1        0.0268
     43 H           0.6425   -0.9050   -2.8047 H       1  LIG1        0.0268
     44 H           1.9745   -1.8333   -0.7821 H       1  LIG1        0.0271
     45 H           0.3116   -1.3321   -0.4853 H       1  LIG1        0.0271
     46 H           3.5626   -1.0200    0.8173 H       1  LIG1        0.0235
     47 H           3.7386    0.7129    1.0770 H       1  LIG1        0.0235
     48 H           3.8382    0.0252   -0.5514 H       1  LIG1        0.0235
     49 H          -0.0315   -0.0415    1.3893 H       1  LIG1        0.0312
     50 H           2.3453   -1.5435    2.5564 H       1  LIG1        0.0268
     51 H           1.0193   -2.2196    1.6193 H       1  LIG1        0.0268
     52 H           0.4920   -2.5292    3.9177 H       1  LIG1        0.0268
     53 H          -0.6106   -1.3082    3.2868 H       1  LIG1        0.0268
     54 H           1.9462   -0.8263    4.8860 H       1  LIG1        0.0316
     55 H           1.5310   -2.0657    6.8348 H       1  LIG1        0.0239
     56 H           0.1286   -2.8393    6.0795 H       1  LIG1        0.0239
     57 H          -0.0393   -2.0361    7.6383 H       1  LIG1        0.0239
     58 H           1.2468    2.4987    6.7096 H       1  LIG1        0.0342
     59 H          -0.5157    2.3405    6.7652 H       1  LIG1        0.0342
     60 H           0.7393    3.0028    4.5580 H       1  LIG1        0.0275
     61 H          -0.7055    2.0288    4.4952 H       1  LIG1        0.0275
     62 H           3.1889    0.4339    3.4695 H       1  LIG1        0.0276
     63 H           2.8859    2.1794    3.7319 H       1  LIG1        0.0276
     64 H           1.8369    3.1274    1.8662 H       1  LIG1        0.0271
     65 H           0.1791    3.0193    2.4358 H       1  LIG1        0.0271
     66 H           0.2852    3.3572    0.0414 H       1  LIG1        0.0271
     67 H          -0.5730    1.9028    0.4749 H       1  LIG1        0.0271
     68 H          -1.7956   -1.5124    5.3246 H       1  LIG1        0.0239
     69 H          -1.7398    0.2373    5.1377 H       1  LIG1        0.0239
     70 H          -1.9155   -0.4657    6.7411 H       1  LIG1        0.0239
     71 H           3.2156    2.5794   -0.0125 H       1  LIG1        0.0235
     72 H           2.2930    3.3442   -1.2823 H       1  LIG1        0.0235
     73 H           3.1955    1.8779   -1.6371 H       1  LIG1        0.0235
     74 H           0.1052    0.4510   -4.5207 H       1  LIG1        0.0271
     75 H          -0.2874    2.0629   -5.0650 H       1  LIG1        0.0271
     76 H          -2.4218    2.1112   -4.0056 H       1  LIG1        0.0310
     77 H          -2.0587    0.7661   -2.9801 H       1  LIG1        0.0310
     78 H          -1.4026   -1.5283   -4.4957 H       1  LIG1        0.0376
     79 H          -4.3252   -1.3734   -3.5943 H       1  LIG1        0.0236
     80 H          -2.9359   -0.9737   -2.5837 H       1  LIG1        0.0236
     81 H          -3.1425   -2.6158   -3.1264 H       1  LIG1        0.0236
     82 H          -2.3356   -2.0280   -6.7770 H       1  LIG1        0.0703
     83 H          -3.9642   -2.0151   -6.1038 H       1  LIG1        0.0703
     84 H          -2.6852   -6.0195   -5.2013 H       1  LIG1        0.0342
     85 H          -1.4837   -5.4655   -3.9935 H       1  LIG1        0.0342
     86 H          -0.9578   -6.2206   -5.5283 H       1  LIG1        0.0342
     87 H          -3.0745    1.8248   -6.2981 H       1  LIG1        0.0535
     88 H          -3.5194    0.1502   -6.9086 H       1  LIG1        0.0535
@<TRIPOS>BOND
     1     1     2    1
     2     2     3    1
     3     2     4    1
     4     4     5    1
     5     4     6    1
     6     6     7    1
     7     7     8    1
     8     8     9    1
     9     8    10    1
    10    10    11    1
    11    11    12    1
    12    12    13    1
    13    13    14    1
    14    14    15    1
    15    14    16    1
    16    16    17    1
    17    17    18    1
    18    18    19    1
    19    13    19    1
    20    19    20    1
    21    20    21    1
    22    19    21    1
    23    10    21    1
    24    21    22    1
    25    22    23    1
    26    16    24    2
    27    14    25    1
    28     8    26    1
    29    23    26    1
    30     4    26    1
    31    26    27    1
    32     2    28    1
    33    28    29    1
    34    29    30    1
    35    30    31    1
    36    31    32    1
    37    31    33    1
    38    33    34    1
    39    34    35    1
    40    35    36    1
    41    35    37    2
    42    30    38    2
    43     1    39    1
    44     1    40    1
    45     1    41    1
    46     6    42    1
    47     6    43    1
    48     7    44    1
    49     7    45    1
    50     9    46    1
    51     9    47    1
    52     9    48    1
    53    10    49    1
    54    11    50    1
    55    11    51    1
    56    12    52    1
    57    12    53    1
    58    13    54    1
    59    15    55    1
    60    15    56    1
    61    15    57    1
    62    17    58    1
    63    17    59    1
    64    18    60    1
    65    18    61    1
    66    20    62    1
    67    20    63    1
    68    22    64    1
    69    22    65    1
    70    23    66    1
    71    23    67    1
    72    25    68    1
    73    25    69    1
    74    25    70    1
    75    27    71    1
    76    27    72    1
    77    27    73    1
    78    28    74    1
    79    28    75    1
    80    29    76    1
    81    29    77    1
    82    31    78    1
    83    32    79    1
    84    32    80    1
    85    32    81    1
    86    33    82    1
    87    33    83    1
    88    36    84    1
    89    36    85    1
    90    36    86    1
    91    38    87    1
    92    38    88    1
