@<TRIPOS>MOLECULE
NuBBE_1654
 45 47 0 0 0
SMALL
GASTEIGER

@<TRIPOS>ATOM
      1 O          -2.1167   -0.1695    0.2079 O.3     1  LIG1       -0.4532
      2 C          -3.0586    0.3830    1.0147 C.2     1  LIG1        0.3349
      3 O          -2.8893    0.7355    2.1708 O.2     1  LIG1       -0.2453
      4 C          -4.3309    0.5762    0.2604 C.2     1  LIG1        0.0265
      5 C          -4.5980   -0.1415   -0.8446 C.2     1  LIG1       -0.0890
      6 C          -5.2790    1.5982    0.8082 C.3     1  LIG1       -0.0335
      7 C          -0.8310   -0.3950    0.7938 C.3     1  LIG1        0.1325
      8 C           0.1026    0.8630    0.7607 C.3     1  LIG1        0.0682
      9 C           1.6253    0.7529    0.4413 C.3     1  LIG1        0.1181
     10 C           2.1310    0.4962   -1.0289 C.3     1  LIG1        0.0321
     11 C           2.8387   -0.8337   -1.4150 C.3     1  LIG1        0.1724
     12 O           1.8753   -1.8969   -1.4201 O.2     1  LIG1       -0.4776
     13 C           1.9736   -2.4309   -0.1352 C.2     1  LIG1        0.1281
     14 C           3.1916   -2.4216    0.4140 C.2     1  LIG1        0.0269
     15 C           3.8280   -1.3883   -0.4159 C.2     1  LIG1        0.2026
     16 O           4.9594   -0.9795   -0.2073 O.2     1  LIG1       -0.2883
     17 C           0.7353   -2.3342    0.6397 C.2     1  LIG1       -0.0091
     18 C          -0.2235   -1.5601    0.0744 C.2     1  LIG1       -0.0369
     19 C           0.8153   -2.6079    2.1215 C.3     1  LIG1       -0.0364
     20 C           3.4503   -0.7549   -2.8096 C.3     1  LIG1       -0.0174
     21 O           2.0332    2.1334    0.7102 O.3     1  LIG1       -0.4572
     22 C           1.0410    2.9822    0.3066 C.2     1  LIG1        0.3354
     23 O           1.1292    4.1927    0.2065 O.2     1  LIG1       -0.2453
     24 C          -0.1567    2.1406    0.0244 C.2     1  LIG1        0.0399
     25 C          -1.1068    2.5739   -0.8106 C.2     1  LIG1       -0.0882
     26 H          -3.9111   -0.8909   -1.2280 H       1  LIG1        0.0540
     27 H          -5.5199   -0.0025   -1.3996 H       1  LIG1        0.0540
     28 H          -5.5349    1.3824    1.8502 H       1  LIG1        0.0280
     29 H          -6.2155    1.6250    0.2397 H       1  LIG1        0.0280
     30 H          -4.8340    2.5976    0.7562 H       1  LIG1        0.0280
     31 H          -0.9770   -0.6831    1.8421 H       1  LIG1        0.0787
     32 H           0.0542    1.1857    1.8172 H       1  LIG1        0.0427
     33 H           2.1466    0.1403    1.1798 H       1  LIG1        0.0743
     34 H           2.8305    1.3034   -1.2877 H       1  LIG1        0.0344
     35 H           1.2732    0.6107   -1.7053 H       1  LIG1        0.0344
     36 H           3.5088   -2.5966    1.4264 H       1  LIG1        0.0691
     37 H          -0.2737   -1.4297   -1.0072 H       1  LIG1        0.0612
     38 H           1.4640   -1.8840    2.6269 H       1  LIG1        0.0279
     39 H           1.2047   -3.6155    2.3030 H       1  LIG1        0.0279
     40 H          -0.1702   -2.5678    2.5960 H       1  LIG1        0.0279
     41 H           2.6799   -0.5465   -3.5607 H       1  LIG1        0.0272
     42 H           3.9144   -1.7068   -3.0925 H       1  LIG1        0.0272
     43 H           4.2167    0.0247   -2.8681 H       1  LIG1        0.0272
     44 H          -1.0410    3.5677   -1.2510 H       1  LIG1        0.0540
     45 H          -1.9551    1.9720   -1.1052 H       1  LIG1        0.0540
@<TRIPOS>BOND
     1     1     2    1
     2     2     3    2
     3     2     4    1
     4     4     5    2
     5     4     6    1
     6     1     7    1
     7     7     8    1
     8     8     9    1
     9     9    10    1
    10    10    11    1
    11    11    12    1
    12    12    13    1
    13    13    14    2
    14    14    15    1
    15    11    15    1
    16    15    16    2
    17    13    17    1
    18    17    18    2
    19     7    18    1
    20    17    19    1
    21    11    20    1
    22     9    21    1
    23    21    22    1
    24    22    23    2
    25    22    24    1
    26     8    24    1
    27    24    25    2
    28     5    26    1
    29     5    27    1
    30     6    28    1
    31     6    29    1
    32     6    30    1
    33     7    31    1
    34     8    32    1
    35     9    33    1
    36    10    34    1
    37    10    35    1
    38    14    36    1
    39    18    37    1
    40    19    38    1
    41    19    39    1
    42    19    40    1
    43    20    41    1
    44    20    42    1
    45    20    43    1
    46    25    44    1
    47    25    45    1
