REMARK  Name = NuBBE_280
REMARK  16 active torsions:
REMARK  status: ('A' for Active; 'I' for Inactive)
REMARK    1  A    between atoms: O_1  and  C_2
REMARK    2  A    between atoms: C_5  and  O_6
REMARK    3  A    between atoms: O_6  and  C_7
REMARK    4  A    between atoms: C_10  and  C_18
REMARK    5  A    between atoms: C_12  and  O_17
REMARK    6  A    between atoms: C_14  and  O_16
REMARK    7  A    between atoms: C_18  and  O_19
REMARK    8  A    between atoms: O_19  and  C_20
REMARK    9  A    between atoms: C_22  and  O_34
REMARK   10  A    between atoms: C_24  and  O_33
REMARK   11  A    between atoms: C_26  and  O_32
REMARK   12  A    between atoms: C_28  and  C_31
REMARK   13  A    between atoms: C_35  and  O_37
REMARK   14  A    between atoms: C_38  and  C_45
REMARK   15  A    between atoms: C_42  and  O_43
REMARK   16  A    between atoms: C_48  and  O_51
REMARK                            x       y       z     vdW  Elec       q    Type
REMARK                         _______ _______ _______ _____ _____    ______ ____
ROOT
ATOM      1  C   LIG A   1       0.141   1.112   1.045  0.00  0.00    +0.340 C 
ATOM      2  O   LIG A   1      -0.775   1.419  -0.035  0.00  0.00    -0.331 OA
ATOM      3  C   LIG A   1      -0.287   2.288  -1.082  0.00  0.00    +0.179 C 
ATOM      4  C   LIG A   1       1.209   2.095  -1.259  0.00  0.00    +0.177 C 
ATOM      5  C   LIG A   1       1.908   2.617   0.012  0.00  0.00    +0.180 C 
ATOM      6  C   LIG A   1       1.102   2.301   1.288  0.00  0.00    +0.214 C 
ENDROOT
BRANCH   5   7
ATOM      7  O   LIG A   1       3.234   2.075   0.075  0.00  0.00    -0.386 OA
ATOM      8  H   LIG A   1       3.654   2.435   0.879  0.00  0.00    +0.210 HD
ENDBRANCH   5   7
BRANCH   4   9
ATOM      9  O   LIG A   1       1.769   2.721  -2.408  0.00  0.00    -0.387 OA
ATOM     10  H   LIG A   1       2.728   2.525  -2.357  0.00  0.00    +0.210 HD
ENDBRANCH   4   9
BRANCH   6  11
ATOM     11  O   LIG A   1       0.384   3.484   1.679  0.00  0.00    -0.383 OA
ATOM     12  H   LIG A   1      -0.552   3.374   1.422  0.00  0.00    +0.210 HD
ENDBRANCH   6  11
BRANCH   1  13
ATOM     13  O   LIG A   1       0.857  -0.107   0.765  0.00  0.00    -0.453 OA
BRANCH  13  17
ATOM     14  C   LIG A   1       1.430  -1.410   5.531  0.00  0.00    +0.135 A 
ATOM     15  C   LIG A   1       1.874  -1.386   4.207  0.00  0.00    +0.109 A 
ATOM     16  C   LIG A   1       1.286  -0.480   3.222  0.00  0.00    +0.238 A 
ATOM     17  C   LIG A   1       1.604  -0.722   1.770  0.00  0.00    +0.214 A 
ATOM     18  C   LIG A   1       2.623  -1.575   1.511  0.00  0.00    +0.181 A 
ATOM     19  O   LIG A   1       3.360  -2.230   2.505  0.00  0.00    -0.451 OA
ATOM     20  C   LIG A   1       2.898  -2.224   3.793  0.00  0.00    +0.146 A 
ATOM     21  C   LIG A   1       3.510  -3.082   4.707  0.00  0.00    +0.092 A 
ATOM     22  C   LIG A   1       3.054  -3.106   6.026  0.00  0.00    +0.124 A 
ATOM     23  C   LIG A   1       2.015  -2.286   6.444  0.00  0.00    +0.091 A 
ATOM     24  O   LIG A   1       0.578   0.416   3.630  0.00  0.00    -0.283 OA
BRANCH  18  25
ATOM     25  C   LIG A   1       3.146  -1.940   0.151  0.00  0.00    +0.021 A 
ATOM     26  C   LIG A   1       3.779  -3.170  -0.084  0.00  0.00    +0.015 A 
ATOM     27  C   LIG A   1       4.344  -3.480  -1.334  0.00  0.00    +0.046 A 
ATOM     28  C   LIG A   1       4.260  -2.568  -2.379  0.00  0.00    +0.117 A 
ATOM     29  C   LIG A   1       3.633  -1.354  -2.187  0.00  0.00    +0.046 A 
ATOM     30  C   LIG A   1       3.120  -1.048  -0.923  0.00  0.00    +0.015 A 
BRANCH  28  31
ATOM     31  O   LIG A   1       4.796  -2.817  -3.604  0.00  0.00    -0.507 OA
ATOM     32  H   LIG A   1       5.231  -3.684  -3.585  0.00  0.00    +0.292 HD
ENDBRANCH  28  31
ENDBRANCH  18  25
BRANCH  14  33
ATOM     33  O   LIG A   1       0.435  -0.603   6.006  0.00  0.00    -0.506 OA
ATOM     34  H   LIG A   1       0.199   0.041   5.297  0.00  0.00    +0.292 HD
ENDBRANCH  14  33
BRANCH  22  35
ATOM     35  O   LIG A   1       3.619  -3.927   6.957  0.00  0.00    -0.506 OA
ATOM     36  H   LIG A   1       4.381  -4.384   6.566  0.00  0.00    +0.292 HD
ENDBRANCH  22  35
ENDBRANCH  13  17
ENDBRANCH   1  13
BRANCH   3  37
ATOM     37  C   LIG A   1      -1.085   1.980  -2.347  0.00  0.00    +0.197 C 
BRANCH  37  38
ATOM     38  O   LIG A   1      -2.465   2.256  -2.066  0.00  0.00    -0.346 OA
BRANCH  38  39
ATOM     39  C   LIG A   1      -3.341   2.022  -3.156  0.00  0.00    +0.282 C 
ATOM     40  C   LIG A   1      -3.354   0.567  -3.658  0.00  0.00    +0.201 C 
ATOM     41  C   LIG A   1      -3.792  -0.343  -2.509  0.00  0.00    +0.179 C 
ATOM     42  C   LIG A   1      -5.171   0.075  -1.993  0.00  0.00    +0.174 C 
ATOM     43  C   LIG A   1      -5.220   1.588  -1.708  0.00  0.00    +0.149 C 
ATOM     44  O   LIG A   1      -4.693   2.368  -2.798  0.00  0.00    -0.343 OA
ATOM     45  C   LIG A   1      -6.668   2.034  -1.506  0.00  0.00    +0.040 C 
BRANCH  42  46
ATOM     46  O   LIG A   1      -5.489  -0.681  -0.820  0.00  0.00    -0.387 OA
ATOM     47  H   LIG A   1      -5.203  -1.597  -1.013  0.00  0.00    +0.210 HD
ENDBRANCH  42  46
BRANCH  41  48
ATOM     48  O   LIG A   1      -3.866  -1.708  -2.956  0.00  0.00    -0.386 OA
ATOM     49  H   LIG A   1      -4.155  -1.665  -3.890  0.00  0.00    +0.210 HD
ENDBRANCH  41  48
BRANCH  40  50
ATOM     50  O   LIG A   1      -4.273   0.407  -4.759  0.00  0.00    -0.384 OA
ATOM     51  H   LIG A   1      -4.947   1.112  -4.664  0.00  0.00    +0.210 HD
ENDBRANCH  40  50
ENDBRANCH  38  39
ENDBRANCH  37  38
ENDBRANCH   3  37
TORSDOF 15
