REMARK  Name = NuBBE_1872
REMARK  10 active torsions:
REMARK  status: ('A' for Active; 'I' for Inactive)
REMARK    1  A    between atoms: C_1  and  O_2
REMARK    2  A    between atoms: O_2  and  C_3
REMARK    3  A    between atoms: C_4  and  C_5
REMARK    4  A    between atoms: C_8  and  O_9
REMARK    5  A    between atoms: O_9  and  C_10
REMARK    6  A    between atoms: C_11  and  O_12
REMARK    7  A    between atoms: C_13  and  O_14
REMARK    8  A    between atoms: C_18  and  O_19
REMARK    9  A    between atoms: C_21  and  O_22
REMARK   10  A    between atoms: O_22  and  C_23
REMARK                            x       y       z     vdW  Elec       q    Type
REMARK                         _______ _______ _______ _____ _____    ______ ____
ROOT
ATOM      1  C   LIG A   1      -1.119   0.516  -1.386  0.00  0.00    +0.211 A 
ATOM      2  C   LIG A   1      -0.301  -0.006  -0.439  0.00  0.00    +0.184 A 
ATOM      3  O   LIG A   1       0.346   0.740   0.535  0.00  0.00    -0.451 OA
ATOM      4  C   LIG A   1       0.167   2.097   0.562  0.00  0.00    +0.146 A 
ATOM      5  C   LIG A   1      -0.648   2.776  -0.333  0.00  0.00    +0.109 A 
ATOM      6  C   LIG A   1      -0.788   4.169  -0.236  0.00  0.00    +0.135 A 
ATOM      7  C   LIG A   1      -0.106   4.877   0.747  0.00  0.00    +0.092 A 
ATOM      8  C   LIG A   1       0.706   4.195   1.654  0.00  0.00    +0.127 A 
ATOM      9  C   LIG A   1       0.846   2.807   1.553  0.00  0.00    +0.092 A 
ATOM     10  C   LIG A   1      -1.345   1.995  -1.351  0.00  0.00    +0.238 A 
ATOM     11  O   LIG A   1      -2.100   2.602  -2.123  0.00  0.00    -0.283 OA
ENDROOT
BRANCH   2  12
ATOM     12  C   LIG A   1      -0.016  -1.457  -0.317  0.00  0.00    +0.066 A 
ATOM     13  C   LIG A   1      -0.809  -2.260   0.521  0.00  0.00    +0.019 A 
ATOM     14  C   LIG A   1      -0.554  -3.637   0.684  0.00  0.00    +0.050 A 
ATOM     15  C   LIG A   1       0.514  -4.243   0.026  0.00  0.00    +0.165 A 
ATOM     16  C   LIG A   1       1.319  -3.444  -0.786  0.00  0.00    +0.202 A 
ATOM     17  C   LIG A   1       1.058  -2.077  -0.965  0.00  0.00    +0.173 A 
BRANCH  15  18
ATOM     18  O   LIG A   1       0.866  -5.567   0.102  0.00  0.00    -0.491 OA
ATOM     19  C   LIG A   1       0.029  -6.395   0.907  0.00  0.00    +0.277 C 
ENDBRANCH  15  18
BRANCH  16  20
ATOM     20  O   LIG A   1       2.412  -3.978  -1.430  0.00  0.00    -0.501 OA
ATOM     21  H   LIG A   1       2.467  -4.901  -1.110  0.00  0.00    +0.292 HD
ENDBRANCH  16  20
BRANCH  17  22
ATOM     22  O   LIG A   1       1.899  -1.369  -1.785  0.00  0.00    -0.503 OA
ATOM     23  H   LIG A   1       2.526  -2.043  -2.121  0.00  0.00    +0.292 HD
ENDBRANCH  17  22
ENDBRANCH   2  12
BRANCH   1  25
ATOM     24  C   LIG A   1      -1.984   0.302  -3.589  0.00  0.00    +0.277 C 
ATOM     25  O   LIG A   1      -1.761  -0.297  -2.311  0.00  0.00    -0.488 OA
ENDBRANCH   1  25
BRANCH   6  26
ATOM     26  O   LIG A   1      -1.589   4.901  -1.075  0.00  0.00    -0.506 OA
ATOM     27  H   LIG A   1      -2.014   4.279  -1.708  0.00  0.00    +0.292 HD
ENDBRANCH   6  26
BRANCH   8  28
ATOM     28  O   LIG A   1       1.344   4.977   2.578  0.00  0.00    -0.495 OA
ATOM     29  C   LIG A   1       1.658   4.327   3.805  0.00  0.00    +0.277 C 
ENDBRANCH   8  28
TORSDOF 7
