@<TRIPOS>MOLECULE
NuBBE_238
 79 81 0 0 0
SMALL
GASTEIGER

@<TRIPOS>ATOM
      1 C           2.6062    3.0048    1.7518 C.3     1  LIG1       -0.0618
      2 C           1.3813    2.2389    2.2730 C.3     1  LIG1       -0.0355
      3 H           1.1140    2.7756    3.1952 H       1  LIG1        0.0304
      4 C           1.8002    0.8387    2.7177 C.3     1  LIG1       -0.0227
      5 H           0.9731    0.3803    3.2709 H       1  LIG1        0.0293
      6 H           2.6231    0.9077    3.4412 H       1  LIG1        0.0293
      7 C           2.2020   -0.0573    1.5463 C.3     1  LIG1        0.0710
      8 H           2.1425   -1.0825    1.9417 H       1  LIG1        0.0604
      9 O           3.5806    0.1400    1.2446 O.3     1  LIG1       -0.3907
     10 C           1.3032    0.0828    0.2686 C.3     1  LIG1        0.0892
     11 C           1.1410   -1.3430   -0.2094 C.2     1  LIG1        0.0124
     12 C           2.3325   -1.6842   -1.0549 C.3     1  LIG1        0.2315
     13 H           3.1033   -2.1381   -0.4226 H       1  LIG1        0.1111
     14 O           2.1159   -2.5838   -2.1439 O.3     1  LIG1       -0.4311
     15 C           1.1972   -2.2215   -3.0614 C.2     1  LIG1        0.3063
     16 C           1.4859   -2.7938   -4.3907 C.3     1  LIG1        0.0333
     17 O           0.2043   -1.4998   -2.8703 O.2     1  LIG1       -0.2511
     18 O           2.8579   -0.4399   -1.5236 O.3     1  LIG1       -0.2971
     19 C           1.9932    0.6119   -1.0457 C.3     1  LIG1        0.2204
     20 H           2.5990    1.5017   -0.8827 H       1  LIG1        0.1068
     21 O           0.9903    0.8910   -2.0589 O.3     1  LIG1       -0.4341
     22 C           1.3813    1.4659   -3.2248 C.2     1  LIG1        0.3061
     23 C           0.3781    1.1836   -4.3250 C.3     1  LIG1        0.0333
     24 O           2.4019    2.1045   -3.3989 O.2     1  LIG1       -0.2511
     25 C           0.0288   -2.0682   -0.0762 C.2     1  LIG1       -0.0381
     26 C          -1.2298   -1.5743    0.5473 C.3     1  LIG1        0.1220
     27 H          -1.9913   -1.4316   -0.2303 H       1  LIG1        0.0779
     28 O          -1.7558   -2.5218    1.4966 O.3     1  LIG1       -0.4570
     29 C          -2.0784   -3.7589    1.0226 C.2     1  LIG1        0.3105
     30 C          -2.9521   -4.4897    2.0123 C.3     1  LIG1        0.0534
     31 C          -3.4395   -5.7969    1.3863 C.3     1  LIG1       -0.0523
     32 C          -2.2377   -4.7017    3.3501 C.3     1  LIG1       -0.0432
     33 C          -0.9904   -5.5735    3.2686 C.3     1  LIG1       -0.0645
     34 O          -1.7800   -4.2155   -0.0720 O.2     1  LIG1       -0.2505
     35 C          -1.0374   -0.2377    1.2926 C.3     1  LIG1       -0.0075
     36 C          -0.0697    0.7707    0.5945 C.3     1  LIG1       -0.0138
     37 H          -0.5771    0.9761   -0.3547 H       1  LIG1        0.0319
     38 C           0.0864    2.1823    1.3520 C.3     1  LIG1       -0.0219
     39 C          -1.1152    2.4227    2.3168 C.3     1  LIG1       -0.0587
     40 C           0.0883    3.3724    0.3157 C.3     1  LIG1       -0.0283
     41 C          -1.1512    3.5494   -0.5446 C.2     1  LIG1       -0.0806
     42 C          -1.3545    4.5016   -1.4795 C.2     1  LIG1       -0.0549
     43 C          -0.3912    5.5399   -1.7947 C.2     1  LIG1       -0.0662
     44 C           0.8287    5.3017   -2.2901 C.2     1  LIG1       -0.0985
     45 C          -2.6328    4.5652   -2.2803 C.3     1  LIG1       -0.0400
     46 H           2.9460    2.6573    0.7784 H       1  LIG1        0.0233
     47 H           3.4492    2.8902    2.4453 H       1  LIG1        0.0233
     48 H           2.4059    4.0770    1.6792 H       1  LIG1        0.0233
     49 H           4.0964   -0.0813    2.0409 H       1  LIG1        0.2098
     50 H           2.5567   -2.9825   -4.5141 H       1  LIG1        0.0342
     51 H           1.1936   -2.0668   -5.1554 H       1  LIG1        0.0342
     52 H           0.9110   -3.7151   -4.5143 H       1  LIG1        0.0342
     53 H           0.3041    0.1126   -4.5071 H       1  LIG1        0.0342
     54 H           0.7236    1.6224   -5.2660 H       1  LIG1        0.0342
     55 H          -0.6056    1.5908   -4.0836 H       1  LIG1        0.0342
     56 H          -0.0126   -3.0176   -0.6003 H       1  LIG1        0.0610
     57 H          -3.8311   -3.8493    2.1660 H       1  LIG1        0.0410
     58 H          -2.6058   -6.4720    1.1666 H       1  LIG1        0.0238
     59 H          -3.9463   -5.6081    0.4322 H       1  LIG1        0.0238
     60 H          -4.1405   -6.3111    2.0483 H       1  LIG1        0.0238
     61 H          -2.9414   -5.1522    4.0596 H       1  LIG1        0.0270
     62 H          -1.9484   -3.7309    3.7708 H       1  LIG1        0.0270
     63 H          -1.2130   -6.5727    2.8840 H       1  LIG1        0.0230
     64 H          -0.5604   -5.6956    4.2670 H       1  LIG1        0.0230
     65 H          -0.2277   -5.1195    2.6279 H       1  LIG1        0.0230
     66 H          -0.7225   -0.4414    2.3204 H       1  LIG1        0.0307
     67 H          -2.0358    0.2112    1.3771 H       1  LIG1        0.0307
     68 H          -1.1485    1.6702    3.1125 H       1  LIG1        0.0235
     69 H          -2.0777    2.4017    1.7985 H       1  LIG1        0.0235
     70 H          -1.0372    3.3972    2.8128 H       1  LIG1        0.0235
     71 H           0.2458    4.3109    0.8647 H       1  LIG1        0.0313
     72 H           0.9414    3.2345   -0.3550 H       1  LIG1        0.0313
     73 H          -1.9530    2.8311   -0.3920 H       1  LIG1        0.0575
     74 H          -0.7122    6.5687   -1.6421 H       1  LIG1        0.0614
     75 H           1.1769    4.2952   -2.4942 H       1  LIG1        0.0535
     76 H           1.5137    6.1131   -2.5097 H       1  LIG1        0.0535
     77 H          -3.3905    3.8686   -1.9044 H       1  LIG1        0.0277
     78 H          -2.4342    4.3001   -3.3253 H       1  LIG1        0.0277
     79 H          -3.0761    5.5674   -2.2598 H       1  LIG1        0.0277
@<TRIPOS>BOND
     1     2     4    1
     2     4     7    1
     3     7    10    1
     4    10    11    1
     5    11    12    1
     6    14    15    1
     7    15    16    1
     8    15    17    2
     9    12    18    1
    10    18    19    1
    11    10    19    1
    12    21    22    1
    13    22    23    1
    14    22    24    2
    15    11    25    2
    16    25    26    1
    17    28    29    1
    18    29    30    1
    19    30    31    1
    20    30    32    1
    21    32    33    1
    22    29    34    2
    23    26    35    1
    24    35    36    1
    25    10    36    1
    26    36    38    1
    27     2    38    1
    28    40    41    1
    29    41    42    2
    30    42    43    1
    31    43    44    2
    32    42    45    1
    33     4     5    1
    34     4     6    1
    35     7     8    1
    36     7     9    1
    37    12    13    1
    38    12    14    1
    39    19    20    1
    40    19    21    1
    41    26    27    1
    42    26    28    1
    43    36    37    1
    44    38    39    1
    45    38    40    1
    46     2     3    1
    47     2     1    1
    48     1    46    1
    49     1    47    1
    50     1    48    1
    51     9    49    1
    52    16    50    1
    53    16    51    1
    54    16    52    1
    55    23    53    1
    56    23    54    1
    57    23    55    1
    58    25    56    1
    59    30    57    1
    60    31    58    1
    61    31    59    1
    62    31    60    1
    63    32    61    1
    64    32    62    1
    65    33    63    1
    66    33    64    1
    67    33    65    1
    68    35    66    1
    69    35    67    1
    70    39    68    1
    71    39    69    1
    72    39    70    1
    73    40    71    1
    74    40    72    1
    75    41    73    1
    76    43    74    1
    77    44    75    1
    78    44    76    1
    79    45    77    1
    80    45    78    1
    81    45    79    1
