REMARK  Name = NuBBE_1567
REMARK  18 active torsions:
REMARK  status: ('A' for Active; 'I' for Inactive)
REMARK    1  A    between atoms: C_19  and  C_20
REMARK    2  A    between atoms: C_20  and  C_21
REMARK    3  A    between atoms: C_21  and  C_22
REMARK    4  A    between atoms: C_22  and  C_23
REMARK    5  A    between atoms: C_23  and  C_24
REMARK    6  A    between atoms: C_24  and  C_25
REMARK    7  A    between atoms: C_25  and  C_26
REMARK    8  A    between atoms: C_26  and  C_27
REMARK    9  A    between atoms: C_27  and  C_28
REMARK   10  A    between atoms: C_28  and  C_29
REMARK   11  A    between atoms: C_29  and  C_30
REMARK   12  A    between atoms: C_30  and  C_31
REMARK   13  A    between atoms: C_31  and  C_32
REMARK   14  A    between atoms: C_32  and  C_33
REMARK   15  A    between atoms: C_33  and  C_34
REMARK   16  A    between atoms: C_34  and  C_35
REMARK   17  A    between atoms: C_35  and  C_36
REMARK   18  A    between atoms: C_36  and  C_37
REMARK                            x       y       z     vdW  Elec       q    Type
REMARK                         _______ _______ _______ _____ _____    ______ ____
ROOT
ATOM      1  O   LIG A   1       3.937   1.834  -4.294  0.00  0.00    -0.287 OA
ATOM      2  C   LIG A   1       2.753   2.036  -3.780  0.00  0.00    +0.200 A 
ATOM      3  C   LIG A   1       1.658   1.829  -4.628  0.00  0.00    +0.064 A 
ATOM      4  C   LIG A   1       1.684   1.288  -5.925  0.00  0.00    +0.015 A 
ATOM      5  C   LIG A   1       0.515   1.099  -6.649  0.00  0.00    +0.001 A 
ATOM      6  C   LIG A   1      -0.725   1.331  -6.052  0.00  0.00    +0.004 A 
ATOM      7  C   LIG A   1      -0.785   1.788  -4.729  0.00  0.00    +0.047 A 
ATOM      8  C   LIG A   1       0.389   2.085  -4.029  0.00  0.00    +0.139 A 
ATOM      9  O   LIG A   1       0.313   2.688  -2.806  0.00  0.00    -0.454 OA
ATOM     10  C   LIG A   1       1.425   2.745  -2.001  0.00  0.00    +0.149 A 
ATOM     11  C   LIG A   1       1.249   3.054  -0.592  0.00  0.00    +0.059 A 
ATOM     12  C   LIG A   1       2.327   2.964   0.293  0.00  0.00    +0.132 A 
ATOM     13  C   LIG A   1       2.171   3.350   1.627  0.00  0.00    +0.046 A 
ATOM     14  C   LIG A   1       0.915   3.723   2.118  0.00  0.00    +0.004 A 
ATOM     15  C   LIG A   1      -0.198   3.649   1.288  0.00  0.00    +0.001 A 
ATOM     16  C   LIG A   1      -0.031   3.329  -0.060  0.00  0.00    +0.015 A 
ATOM     17  O   LIG A   1       3.533   2.391  -0.042  0.00  0.00    -0.483 OA
ATOM     18  C   LIG A   1       2.680   2.359  -2.406  0.00  0.00    +0.083 A 
ATOM     19  C   LIG A   1       3.779   2.000  -1.412  0.00  0.00    +0.211 C 
ENDROOT
BRANCH  19  20
ATOM     20  C   LIG A   1       4.350   0.521  -1.458  0.00  0.00    +0.050 C 
BRANCH  20  21
ATOM     21  C   LIG A   1       3.574  -0.735  -0.975  0.00  0.00    +0.004 C 
BRANCH  21  22
ATOM     22  C   LIG A   1       2.429  -1.287  -1.843  0.00  0.00    +0.000 C 
BRANCH  22  23
ATOM     23  C   LIG A   1       1.187  -0.442  -1.913  0.00  0.00    -0.000 C 
BRANCH  23  24
ATOM     24  C   LIG A   1       0.601   0.100  -0.644  0.00  0.00    -0.000 C 
BRANCH  24  25
ATOM     25  C   LIG A   1      -0.276  -0.856   0.079  0.00  0.00    -0.000 C 
BRANCH  25  26
ATOM     26  C   LIG A   1       0.503  -1.978   0.772  0.00  0.00    -0.000 C 
BRANCH  26  27
ATOM     27  C   LIG A   1      -0.504  -2.903   1.442  0.00  0.00    -0.000 C 
BRANCH  27  28
ATOM     28  C   LIG A   1       0.047  -4.048   2.254  0.00  0.00    -0.000 C 
BRANCH  28  29
ATOM     29  C   LIG A   1       0.983  -3.627   3.381  0.00  0.00    -0.000 C 
BRANCH  29  30
ATOM     30  C   LIG A   1       0.407  -2.632   4.434  0.00  0.00    -0.000 C 
BRANCH  30  31
ATOM     31  C   LIG A   1       0.216  -1.094   4.204  0.00  0.00    -0.000 C 
BRANCH  31  32
ATOM     32  C   LIG A   1      -0.856  -0.381   3.286  0.00  0.00    -0.000 C 
BRANCH  32  33
ATOM     33  C   LIG A   1      -2.408  -0.640   3.352  0.00  0.00    -0.000 C 
BRANCH  33  34
ATOM     34  C   LIG A   1      -3.568  -0.229   2.292  0.00  0.00    -0.000 C 
BRANCH  34  35
ATOM     35  C   LIG A   1      -3.989  -0.933   0.945  0.00  0.00    -0.000 C 
BRANCH  35  36
ATOM     36  C   LIG A   1      -5.302  -0.359   0.270  0.00  0.00    -0.003 C 
ATOM     37  C   LIG A   1      -6.591  -0.514   1.081  0.00  0.00    +0.004 C 
ENDBRANCH  35  36
ENDBRANCH  34  35
ENDBRANCH  33  34
ENDBRANCH  32  33
ENDBRANCH  31  32
ENDBRANCH  30  31
ENDBRANCH  29  30
ENDBRANCH  28  29
ENDBRANCH  27  28
ENDBRANCH  26  27
ENDBRANCH  25  26
ENDBRANCH  24  25
ENDBRANCH  23  24
ENDBRANCH  22  23
ENDBRANCH  21  22
ENDBRANCH  20  21
ENDBRANCH  19  20
TORSDOF 17
