REMARK  Name = NuBBE_1247
REMARK  7 active torsions:
REMARK  status: ('A' for Active; 'I' for Inactive)
REMARK    1  A    between atoms: C_4  and  C_14
REMARK    2  A    between atoms: C_8  and  O_9
REMARK    3  A    between atoms: C_14  and  C_15
REMARK    4  A    between atoms: C_15  and  C_16
REMARK    5  A    between atoms: C_16  and  O_17
REMARK    6  A    between atoms: C_16  and  C_18
REMARK    7  A    between atoms: C_16  and  C_19
REMARK                            x       y       z     vdW  Elec       q    Type
REMARK                         _______ _______ _______ _____ _____    ______ ____
ROOT
ATOM      1  O   LIG A   1      -3.872  -1.321   0.472  0.00  0.00    -0.287 OA
ATOM      2  C   LIG A   1      -2.653  -1.275   0.553  0.00  0.00    +0.190 A 
ATOM      3  C   LIG A   1      -1.944   0.029   0.526  0.00  0.00    +0.072 A 
ATOM      4  C   LIG A   1      -0.606   0.066   0.655  0.00  0.00    +0.020 A 
ATOM      5  N   LIG A   1       0.146  -1.079   0.819  0.00  0.00    -0.358 N 
ATOM      6  C   LIG A   1      -0.435  -2.356   0.824  0.00  0.00    +0.054 A 
ATOM      7  C   LIG A   1       0.361  -3.505   0.872  0.00  0.00    +0.071 A 
ATOM      8  C   LIG A   1      -0.232  -4.763   0.762  0.00  0.00    +0.119 A 
ATOM      9  C   LIG A   1      -1.610  -4.902   0.624  0.00  0.00    +0.046 A 
ATOM     10  C   LIG A   1      -2.416  -3.765   0.580  0.00  0.00    +0.017 A 
ATOM     11  C   LIG A   1      -1.824  -2.500   0.663  0.00  0.00    +0.045 A 
ATOM     12  H   LIG A   1       1.116  -0.982   1.096  0.00  0.00    +0.166 HD
ENDROOT
BRANCH   8  13
ATOM     13  O   LIG A   1       0.520  -5.901   0.761  0.00  0.00    -0.507 OA
ATOM     14  H   LIG A   1       1.460  -5.660   0.781  0.00  0.00    +0.292 HD
ENDBRANCH   8  13
BRANCH   4  15
ATOM     15  C   LIG A   1       0.131   1.392   0.649  0.00  0.00    +0.056 C 
BRANCH  15  16
ATOM     16  C   LIG A   1       0.625   1.778  -0.758  0.00  0.00    +0.040 C 
BRANCH  16  17
ATOM     17  C   LIG A   1       1.382   3.124  -0.810  0.00  0.00    +0.061 C 
ATOM     18  C   LIG A   1       1.855   3.427  -2.237  0.00  0.00    +0.041 C 
ATOM     19  C   LIG A   1       0.525   4.289  -0.310  0.00  0.00    +0.041 C 
BRANCH  17  20
ATOM     20  O   LIG A   1       2.531   3.042   0.036  0.00  0.00    -0.389 OA
ATOM     21  H   LIG A   1       3.196   2.488  -0.408  0.00  0.00    +0.210 HD
ENDBRANCH  17  20
ENDBRANCH  16  17
ENDBRANCH  15  16
ENDBRANCH   4  15
TORSDOF 5
