REMARK  Name = NuBBE_910
REMARK  9 active torsions:
REMARK  status: ('A' for Active; 'I' for Inactive)
REMARK    1  A    between atoms: C_1  and  C_2
REMARK    2  A    between atoms: C_1  and  C_12
REMARK    3  A    between atoms: C_2  and  O_3
REMARK    4  A    between atoms: N_6  and  C_7
REMARK    5  A    between atoms: C_15  and  O_18
REMARK    6  A    between atoms: O_18  and  C_19
REMARK    7  A    between atoms: C_19  and  C_20
REMARK    8  A    between atoms: C_21  and  C_22
REMARK    9  A    between atoms: C_21  and  C_23
REMARK                            x       y       z     vdW  Elec       q    Type
REMARK                         _______ _______ _______ _____ _____    ______ ____
ROOT
ATOM      1  C   LIG A   1      -2.181  -1.489   0.634  0.00  0.00    +0.100 C 
ENDROOT
BRANCH   1   2
ATOM      2  C   LIG A   1      -2.808  -2.377  -0.475  0.00  0.00    +0.215 C 
ATOM      3  C   LIG A   1      -4.195  -2.879   0.057  0.00  0.00    +0.267 C 
ATOM      4  O   LIG A   1      -4.264  -3.873   0.778  0.00  0.00    -0.271 OA
ATOM      5  N   LIG A   1      -5.290  -2.074  -0.258  0.00  0.00    -0.292 N 
ATOM      6  C   LIG A   1      -6.569  -2.328   0.376  0.00  0.00    +0.133 C 
ATOM      7  C   LIG A   1      -5.089  -0.763  -0.879  0.00  0.00    +0.203 C 
ATOM      8  C   LIG A   1      -3.933  -0.732  -1.888  0.00  0.00    +0.233 C 
ATOM      9  O   LIG A   1      -3.806   0.151  -2.722  0.00  0.00    -0.274 OA
ATOM     10  N   LIG A   1      -2.991  -1.716  -1.737  0.00  0.00    -0.279 N 
ATOM     11  H   LIG A   1      -2.190  -1.675  -2.350  0.00  0.00    +0.152 HD
BRANCH   2  12
ATOM     12  O   LIG A   1      -1.983  -3.495  -0.762  0.00  0.00    -0.364 OA
ATOM     13  H   LIG A   1      -2.256  -4.196  -0.138  0.00  0.00    +0.212 HD
ENDBRANCH   2  12
ENDBRANCH   1   2
BRANCH   1  14
ATOM     14  C   LIG A   1      -0.834  -0.857   0.340  0.00  0.00    -0.042 A 
ATOM     15  C   LIG A   1      -0.683   0.539   0.339  0.00  0.00    +0.007 A 
ATOM     16  C   LIG A   1       0.573   1.128   0.138  0.00  0.00    +0.046 A 
ATOM     17  C   LIG A   1       1.699   0.325  -0.030  0.00  0.00    +0.121 A 
ATOM     18  C   LIG A   1       1.554  -1.060  -0.055  0.00  0.00    +0.046 A 
ATOM     19  C   LIG A   1       0.302  -1.648   0.134  0.00  0.00    +0.007 A 
BRANCH  17  20
ATOM     20  O   LIG A   1       2.978   0.771  -0.202  0.00  0.00    -0.488 OA
BRANCH  20  21
ATOM     21  C   LIG A   1       3.307   2.006   0.433  0.00  0.00    +0.256 C 
BRANCH  21  22
ATOM     22  C   LIG A   1       4.768   1.942   0.776  0.00  0.00    +0.012 C 
ATOM     23  C   LIG A   1       5.760   2.782   0.419  0.00  0.00    -0.076 C 
ATOM     24  C   LIG A   1       5.594   3.998  -0.448  0.00  0.00    +0.038 C 
ATOM     25  C   LIG A   1       7.171   2.542   0.890  0.00  0.00    +0.038 C 
ENDBRANCH  21  22
ENDBRANCH  20  21
ENDBRANCH  17  20
ENDBRANCH   1  14
TORSDOF 6
