@<TRIPOS>MOLECULE
NuBBE_551
 42 43 0 0 0
SMALL
GASTEIGER

@<TRIPOS>ATOM
      1 C           0.5940   -0.2096    2.1599 C.3     1  LIG1       -0.0592
      2 C           1.2077    0.0485    0.7639 C.3     1  LIG1       -0.0266
      3 C           0.2214    0.6560   -0.2800 C.3     1  LIG1       -0.0065
      4 C          -0.9642   -0.2882   -0.5788 C.3     1  LIG1       -0.0406
      5 C          -0.4766   -1.6643   -1.0828 C.3     1  LIG1       -0.0200
      6 H           0.0697   -1.4978   -2.0232 H       1  LIG1        0.0346
      7 C          -1.6596   -2.5695   -1.4269 C.2     1  LIG1       -0.0766
      8 C          -2.3566   -2.2544   -2.7282 C.3     1  LIG1       -0.0438
      9 C          -2.0792   -3.6047   -0.6787 C.2     1  LIG1       -0.0994
     10 C           0.5494   -2.2769   -0.1076 C.3     1  LIG1       -0.0460
     11 C           1.7002   -1.3132    0.2006 C.3     1  LIG1       -0.0467
     12 H           0.7801    0.6910   -1.2316 H       1  LIG1        0.0334
     13 C          -0.1896    2.1343   -0.0340 C.3     1  LIG1        0.0666
     14 C          -1.2324    2.3568    1.0653 C.3     1  LIG1       -0.0358
     15 O          -0.8003    2.6019   -1.2527 O.3     1  LIG1       -0.3886
     16 C           1.0650    2.9999    0.1894 C.3     1  LIG1       -0.0240
     17 C           2.0243    2.4398    1.2332 C.3     1  LIG1       -0.0500
     18 C           2.4223    0.9960    0.9212 C.3     1  LIG1       -0.0472
     19 H          -0.3694   -0.7232    2.1121 H       1  LIG1        0.0235
     20 H           0.4470    0.7031    2.7377 H       1  LIG1        0.0235
     21 H           1.2630   -0.8368    2.7620 H       1  LIG1        0.0235
     22 H          -1.6034    0.1709   -1.3421 H       1  LIG1        0.0275
     23 H          -1.5937   -0.4184    0.3085 H       1  LIG1        0.0275
     24 H          -3.1505   -2.9740   -2.9559 H       1  LIG1        0.0274
     25 H          -1.6425   -2.2819   -3.5578 H       1  LIG1        0.0274
     26 H          -2.8146   -1.2616   -2.6938 H       1  LIG1        0.0274
     27 H          -2.9226   -4.2172   -0.9852 H       1  LIG1        0.0534
     28 H          -1.6135   -3.8769    0.2614 H       1  LIG1        0.0534
     29 H           0.9653   -3.1954   -0.5409 H       1  LIG1        0.0271
     30 H           0.0702   -2.5672    0.8337 H       1  LIG1        0.0271
     31 H           2.2741   -1.1492   -0.7213 H       1  LIG1        0.0271
     32 H           2.3905   -1.7912    0.9072 H       1  LIG1        0.0271
     33 H          -2.1380    1.7696    0.8816 H       1  LIG1        0.0257
     34 H          -1.5592    3.4042    1.0742 H       1  LIG1        0.0257
     35 H          -0.8665    2.1302    2.0654 H       1  LIG1        0.0257
     36 H          -1.0011    3.5475   -1.1457 H       1  LIG1        0.2102
     37 H           0.7766    4.0229    0.4630 H       1  LIG1        0.0293
     38 H           1.6032    3.1025   -0.7634 H       1  LIG1        0.0293
     39 H           1.5785    2.5122    2.2303 H       1  LIG1        0.0266
     40 H           2.9278    3.0608    1.2587 H       1  LIG1        0.0266
     41 H           3.0927    0.6275    1.7079 H       1  LIG1        0.0271
     42 H           3.0104    0.9964   -0.0064 H       1  LIG1        0.0271
@<TRIPOS>BOND
     1     2     3    1
     2     3     4    1
     3     4     5    1
     4     7     8    1
     5     7     9    2
     6     5    10    1
     7    10    11    1
     8     2    11    1
     9     3    13    1
    10    13    16    1
    11    16    17    1
    12    17    18    1
    13     2    18    1
    14     1     2    1
    15     3    12    1
    16     5     6    1
    17     5     7    1
    18    13    15    1
    19    13    14    1
    20     1    19    1
    21     1    20    1
    22     1    21    1
    23     4    22    1
    24     4    23    1
    25     8    24    1
    26     8    25    1
    27     8    26    1
    28     9    27    1
    29     9    28    1
    30    10    29    1
    31    10    30    1
    32    11    31    1
    33    11    32    1
    34    14    33    1
    35    14    34    1
    36    14    35    1
    37    15    36    1
    38    16    37    1
    39    16    38    1
    40    17    39    1
    41    17    40    1
    42    18    41    1
    43    18    42    1
