@<TRIPOS>MOLECULE
NuBBE_211
 77 78 0 0 0
SMALL
GASTEIGER

@<TRIPOS>ATOM
      1 O           4.1363    2.3712   -0.6292 O.3     1  LIG1       -0.5033
      2 C           3.3928    1.8308    0.3893 C.ar    1  LIG1        0.1585
      3 C           2.4812    2.6695    1.0255 C.ar    1  LIG1       -0.0160
      4 C           1.6559    2.1716    2.0330 C.ar    1  LIG1       -0.0509
      5 C           1.7409    0.8317    2.4524 C.ar    1  LIG1       -0.0211
      6 C           0.7405    0.2981    3.4079 C.2     1  LIG1       -0.0477
      7 C           0.1597    1.0237    4.3744 C.2     1  LIG1        0.0231
      8 C          -1.0146    0.5481    5.1449 C.2     1  LIG1        0.3323
      9 O          -1.5956   -0.5089    4.5259 O.3     1  LIG1       -0.4567
     10 C          -3.0465   -0.5952    4.4852 C.3     1  LIG1        0.1184
     11 H          -3.4468   -0.6678    5.5020 H       1  LIG1        0.0749
     12 C          -3.6618    0.5874    3.6872 C.3     1  LIG1        0.0422
     13 H          -4.7268    0.3899    3.5270 H       1  LIG1        0.0494
     14 C          -3.5674    1.9497    4.3729 C.3     1  LIG1       -0.0462
     15 N          -3.0079    0.7137    2.3817 N.3     1  LIG1       -0.3074
     16 H          -2.0301    0.9225    2.5747 H       1  LIG1        0.1226
     17 C          -3.1003   -0.5032    1.5567 C.3     1  LIG1        0.0081
     18 H          -4.1103   -0.5317    1.1377 H       1  LIG1        0.0460
     19 C          -2.1434   -0.3581    0.3749 C.3     1  LIG1       -0.0375
     20 C          -0.7181   -0.2146    0.8469 C.3     1  LIG1       -0.0516
     21 C           0.2211   -0.1122   -0.2901 C.3     1  LIG1       -0.0530
     22 C           0.1435    1.1575   -1.0816 C.3     1  LIG1       -0.0531
     23 C           1.3045    1.2712   -2.0598 C.3     1  LIG1       -0.0531
     24 C           1.6061    0.1469   -3.0502 C.3     1  LIG1       -0.0531
     25 C           1.7244   -1.3240   -2.5923 C.3     1  LIG1       -0.0530
     26 C           1.8351   -2.4545   -3.6154 C.3     1  LIG1       -0.0527
     27 C           0.6268   -2.7560   -4.5229 C.3     1  LIG1       -0.0464
     28 C           0.2450   -1.6996   -5.5724 C.3     1  LIG1        0.0055
     29 C          -0.6006   -0.6066   -4.9050 C.2     1  LIG1        0.1303
     30 C          -1.0909    0.5678   -5.7219 C.3     1  LIG1       -0.0061
     31 O          -0.9716   -0.7017   -3.7882 O.2     1  LIG1       -0.2977
     32 C          -2.8343   -1.8358    2.2891 C.3     1  LIG1       -0.0341
     33 C          -3.4251   -1.8690    3.6936 C.3     1  LIG1       -0.0128
     34 O          -1.4651    1.1818    6.0901 O.2     1  LIG1       -0.2456
     35 C           2.6116   -0.0278    1.7461 C.ar    1  LIG1       -0.0092
     36 C           3.4246    0.4581    0.6869 C.ar    1  LIG1        0.1618
     37 O           4.0278   -0.5210   -0.0774 O.3     1  LIG1       -0.4914
     38 C           4.8320   -0.0936   -1.1798 C.3     1  LIG1        0.0790
     39 H           3.7626    3.2261   -0.9005 H       1  LIG1        0.2923
     40 H           2.3488    3.6952    0.6934 H       1  LIG1        0.0655
     41 H           0.8863    2.8360    2.4222 H       1  LIG1        0.0625
     42 H           0.3523   -0.7005    3.2131 H       1  LIG1        0.0626
     43 H           0.4666    2.0420    4.5809 H       1  LIG1        0.0689
     44 H          -3.7681    1.8623    5.4446 H       1  LIG1        0.0246
     45 H          -4.3044    2.6377    3.9496 H       1  LIG1        0.0246
     46 H          -2.5925    2.4343    4.2360 H       1  LIG1        0.0246
     47 H          -2.2075   -1.2236   -0.2958 H       1  LIG1        0.0280
     48 H          -2.4038    0.5308   -0.2074 H       1  LIG1        0.0280
     49 H          -0.4063   -1.1062    1.3962 H       1  LIG1        0.0266
     50 H          -0.6246    0.6791    1.4485 H       1  LIG1        0.0266
     51 H          -0.0233   -0.9941   -0.8411 H       1  LIG1        0.0265
     52 H           1.2344   -0.2475    0.0263 H       1  LIG1        0.0265
     53 H           0.1802    2.0237   -0.4043 H       1  LIG1        0.0265
     54 H          -0.8182    1.2243   -1.5910 H       1  LIG1        0.0265
     55 H           2.2223    1.4308   -1.5344 H       1  LIG1        0.0265
     56 H           1.1316    2.2017   -2.6135 H       1  LIG1        0.0265
     57 H           2.5173    0.3871   -3.6040 H       1  LIG1        0.0265
     58 H           0.8520    0.3513   -3.7729 H       1  LIG1        0.0265
     59 H           0.9077   -1.6946   -1.9995 H       1  LIG1        0.0265
     60 H           2.5977   -1.3916   -1.9385 H       1  LIG1        0.0265
     61 H           1.9584   -3.3687   -3.0053 H       1  LIG1        0.0265
     62 H           2.7584   -2.3497   -4.1831 H       1  LIG1        0.0265
     63 H          -0.2495   -2.9908   -3.9046 H       1  LIG1        0.0269
     64 H           0.8569   -3.6909   -5.0519 H       1  LIG1        0.0269
     65 H          -0.4410   -2.1607   -6.2920 H       1  LIG1        0.0341
     66 H           1.1254   -1.3511   -6.1181 H       1  LIG1        0.0341
     67 H          -0.3851    1.0103   -6.4268 H       1  LIG1        0.0306
     68 H          -1.3678    1.3500   -5.0021 H       1  LIG1        0.0306
     69 H          -1.9927    0.2164   -6.2233 H       1  LIG1        0.0306
     70 H          -1.7699   -2.0670    2.3872 H       1  LIG1        0.0281
     71 H          -3.2443   -2.6540    1.6823 H       1  LIG1        0.0281
     72 H          -3.0683   -2.7736    4.1980 H       1  LIG1        0.0302
     73 H          -4.5153   -1.9480    3.6082 H       1  LIG1        0.0302
     74 H           2.5110   -1.1101    1.8698 H       1  LIG1        0.0661
     75 H           5.1209   -0.9598   -1.7845 H       1  LIG1        0.0660
     76 H           5.7392    0.3792   -0.7974 H       1  LIG1        0.0660
     77 H           4.2998    0.5548   -1.8840 H       1  LIG1        0.0660
@<TRIPOS>BOND
     1     1     2    1
     2     2     3   ar
     3     3     4   ar
     4     4     5   ar
     5     5     6    1
     6     6     7    2
     7     7     8    1
     8     8     9    1
     9     9    10    1
    10    10    11    1
    11    10    12    1
    12    12    13    1
    13    12    14    1
    14    12    15    1
    15    15    16    1
    16    15    17    1
    17    19    20    1
    18    20    21    1
    19    21    22    1
    20    22    23    1
    21    23    24    1
    22    24    25    1
    23    25    26    1
    24    26    27    1
    25    27    28    1
    26    28    29    1
    27    29    30    1
    28    29    31    2
    29    17    32    1
    30    32    33    1
    31    10    33    1
    32     8    34    2
    33     5    35   ar
    34    35    36   ar
    35     2    36   ar
    36    36    37    1
    37    37    38    1
    38    17    19    1
    39    17    18    1
    40     1    39    1
    41     3    40    1
    42     4    41    1
    43     6    42    1
    44     7    43    1
    45    14    44    1
    46    14    45    1
    47    14    46    1
    48    19    47    1
    49    19    48    1
    50    20    49    1
    51    20    50    1
    52    21    51    1
    53    21    52    1
    54    22    53    1
    55    22    54    1
    56    23    55    1
    57    23    56    1
    58    24    57    1
    59    24    58    1
    60    25    59    1
    61    25    60    1
    62    26    61    1
    63    26    62    1
    64    27    63    1
    65    27    64    1
    66    28    65    1
    67    28    66    1
    68    30    67    1
    69    30    68    1
    70    30    69    1
    71    32    70    1
    72    32    71    1
    73    33    72    1
    74    33    73    1
    75    35    74    1
    76    38    75    1
    77    38    76    1
    78    38    77    1
