REMARK  Name = NuBBE_2219
REMARK  14 active torsions:
REMARK  status: ('A' for Active; 'I' for Inactive)
REMARK    1  A    between atoms: O_1  and  C_2
REMARK    2  A    between atoms: O_1  and  C_18
REMARK    3  A    between atoms: C_2  and  C_4
REMARK    4  A    between atoms: C_2  and  C_17
REMARK    5  A    between atoms: C_4  and  O_6
REMARK    6  A    between atoms: C_4  and  C_7
REMARK    7  A    between atoms: C_9  and  O_10
REMARK    8  A    between atoms: O_10  and  C_11
REMARK    9  A    between atoms: C_12  and  O_15
REMARK   10  A    between atoms: O_15  and  C_16
REMARK   11  A    between atoms: C_19  and  O_20
REMARK   12  A    between atoms: O_20  and  C_21
REMARK   13  A    between atoms: C_23  and  C_26
REMARK   14  A    between atoms: C_27  and  C_28
REMARK                            x       y       z     vdW  Elec       q    Type
REMARK                         _______ _______ _______ _____ _____    ______ ____
ROOT
ATOM      1  C   LIG A   1      -0.513  -0.451  -0.479  0.00  0.00    +0.203 C 
ATOM      2  C   LIG A   1      -1.180  -1.679   0.139  0.00  0.00    +0.055 C 
ENDROOT
BRANCH   1   3
ATOM      3  O   LIG A   1      -1.392   0.681  -0.379  0.00  0.00    -0.482 OA
BRANCH   3   4
ATOM      4  C   LIG A   1      -1.368   1.463   0.757  0.00  0.00    +0.163 A 
ATOM      5  C   LIG A   1      -2.437   2.372   0.887  0.00  0.00    +0.162 A 
ATOM      6  C   LIG A   1      -2.493   3.256   1.975  0.00  0.00    +0.057 A 
ATOM      7  C   LIG A   1      -1.479   3.260   2.943  0.00  0.00    -0.022 A 
ATOM      8  C   LIG A   1      -0.426   2.351   2.821  0.00  0.00    +0.012 A 
ATOM      9  C   LIG A   1      -0.371   1.459   1.739  0.00  0.00    +0.050 A 
BRANCH   7  10
ATOM     10  C   LIG A   1      -1.525   4.202   4.064  0.00  0.00    +0.003 C 
ATOM     11  C   LIG A   1      -0.948   5.423   4.000  0.00  0.00    -0.030 C 
ATOM     12  C   LIG A   1      -0.978   6.421   5.111  0.00  0.00    +0.035 C 
ENDBRANCH   7  10
BRANCH   5  13
ATOM     13  O   LIG A   1      -3.422   2.272  -0.066  0.00  0.00    -0.491 OA
ATOM     14  C   LIG A   1      -4.125   3.467  -0.375  0.00  0.00    +0.277 C 
ENDBRANCH   5  13
ENDBRANCH   3   4
ENDBRANCH   1   3
BRANCH   1  15
ATOM     15  C   LIG A   1      -0.139  -0.664  -1.977  0.00  0.00    +0.185 C 
BRANCH  15  16
ATOM     16  C   LIG A   1       0.918  -1.736  -2.151  0.00  0.00    -0.012 A 
ATOM     17  C   LIG A   1       0.711  -2.867  -2.954  0.00  0.00    +0.055 A 
ATOM     18  C   LIG A   1       1.714  -3.840  -3.087  0.00  0.00    +0.162 A 
ATOM     19  C   LIG A   1       2.933  -3.712  -2.400  0.00  0.00    +0.162 A 
ATOM     20  C   LIG A   1       3.143  -2.571  -1.621  0.00  0.00    +0.050 A 
ATOM     21  C   LIG A   1       2.157  -1.594  -1.511  0.00  0.00    +0.010 A 
BRANCH  18  22
ATOM     22  O   LIG A   1       1.510  -4.806  -4.040  0.00  0.00    -0.491 OA
ATOM     23  C   LIG A   1       1.210  -6.090  -3.500  0.00  0.00    +0.277 C 
ENDBRANCH  18  22
BRANCH  19  24
ATOM     24  O   LIG A   1       3.888  -4.680  -2.585  0.00  0.00    -0.491 OA
ATOM     25  C   LIG A   1       4.871  -4.779  -1.555  0.00  0.00    +0.277 C 
ENDBRANCH  19  24
ENDBRANCH  15  16
BRANCH  15  26
ATOM     26  O   LIG A   1       0.417   0.556  -2.494  0.00  0.00    -0.384 OA
ATOM     27  H   LIG A   1      -0.175   1.266  -2.184  0.00  0.00    +0.210 HD
ENDBRANCH  15  26
ENDBRANCH   1  15
TORSDOF 9
