REMARK  Name = NuBBE_1099
REMARK  12 active torsions:
REMARK  status: ('A' for Active; 'I' for Inactive)
REMARK    1  A    between atoms: C_5  and  C_6
REMARK    2  A    between atoms: C_8  and  O_10
REMARK    3  A    between atoms: O_10  and  C_11
REMARK    4  A    between atoms: C_11  and  C_12
REMARK    5  A    between atoms: C_14  and  O_16
REMARK    6  A    between atoms: O_16  and  C_17
REMARK    7  A    between atoms: C_17  and  C_18
REMARK    8  A    between atoms: C_20  and  C_21
REMARK    9  A    between atoms: C_26  and  C_27
REMARK   10  A    between atoms: C_33  and  C_35
REMARK   11  A    between atoms: C_41  and  C_42
REMARK   12  A    between atoms: C_41  and  C_43
REMARK                            x       y       z     vdW  Elec       q    Type
REMARK                         _______ _______ _______ _____ _____    ______ ____
ROOT
ATOM      1  O   LIG A   1      -3.959   3.886   1.565  0.00  0.00    -0.292 OA
ATOM      2  C   LIG A   1      -2.967   3.203   1.798  0.00  0.00    +0.162 C 
ATOM      3  C   LIG A   1      -3.117   1.944   2.580  0.00  0.00    +0.043 C 
ATOM      4  C   LIG A   1      -2.136   1.026   2.612  0.00  0.00    -0.016 C 
ATOM      5  C   LIG A   1      -0.839   1.057   1.784  0.00  0.00    -0.003 C 
ATOM      6  C   LIG A   1       0.343   1.122   2.776  0.00  0.00    +0.016 C 
ATOM      7  C   LIG A   1      -0.991   2.248   0.761  0.00  0.00    +0.056 C 
ATOM      8  C   LIG A   1       0.184   2.355  -0.218  0.00  0.00    +0.222 C 
ATOM      9  C   LIG A   1       0.222   1.052  -1.091  0.00  0.00    +0.226 C 
ATOM     10  C   LIG A   1       0.347  -0.275  -0.259  0.00  0.00    +0.044 C 
ATOM     11  C   LIG A   1       1.837  -0.394   0.147  0.00  0.00    +0.018 C 
ATOM     12  C   LIG A   1      -0.725  -0.265   0.936  0.00  0.00    +0.012 C 
ATOM     13  C   LIG A   1      -0.663  -1.586   1.763  0.00  0.00    +0.006 C 
ATOM     14  C   LIG A   1      -1.010  -2.812   0.898  0.00  0.00    +0.010 C 
ATOM     15  C   LIG A   1      -0.092  -2.932  -0.333  0.00  0.00    +0.007 C 
ATOM     16  C   LIG A   1       1.304  -3.363   0.127  0.00  0.00    +0.014 C 
ATOM     17  C   LIG A   1      -0.072  -1.560  -1.053  0.00  0.00    +0.111 C 
ATOM     18  O   LIG A   1      -1.327  -1.301  -1.760  0.00  0.00    -0.363 OA
ATOM     19  C   LIG A   1      -0.237  -1.793  -2.522  0.00  0.00    +0.153 C 
ATOM     20  C   LIG A   1      -0.347  -3.264  -2.803  0.00  0.00    +0.043 C 
ATOM     21  C   LIG A   1      -0.686  -3.929  -1.433  0.00  0.00    +0.033 C 
ATOM     22  C   LIG A   1      -1.541   3.581   1.381  0.00  0.00    +0.035 C 
ATOM     23  C   LIG A   1      -1.568   4.724   0.348  0.00  0.00    +0.019 C 
ATOM     24  C   LIG A   1      -0.869   4.140   2.645  0.00  0.00    +0.019 C 
ENDROOT
BRANCH  21  25
ATOM     25  C   LIG A   1      -0.297  -5.400  -1.400  0.00  0.00    -0.006 A 
ATOM     26  C   LIG A   1       0.929  -5.991  -1.136  0.00  0.00    +0.198 A 
ATOM     27  O   LIG A   1       0.879  -7.339  -1.220  0.00  0.00    -0.471 OA
ATOM     28  C   LIG A   1      -0.380  -7.655  -1.593  0.00  0.00    +0.195 A 
ATOM     29  C   LIG A   1      -1.141  -6.515  -1.719  0.00  0.00    +0.045 A 
ENDBRANCH  21  25
BRANCH   8  30
ATOM     30  O   LIG A   1       1.359   2.604   0.575  0.00  0.00    -0.457 OA
BRANCH  30  31
ATOM     31  C   LIG A   1       2.143   3.661   0.261  0.00  0.00    +0.304 C 
ATOM     32  C   LIG A   1       2.988   4.046   1.438  0.00  0.00    +0.136 C 
ATOM     33  O   LIG A   1       2.144   4.253  -0.820  0.00  0.00    -0.251 OA
ENDBRANCH  30  31
ENDBRANCH   8  30
BRANCH   9  34
ATOM     34  O   LIG A   1       1.308   1.212  -2.039  0.00  0.00    -0.457 OA
BRANCH  34  35
ATOM     35  C   LIG A   1       0.953   1.696  -3.264  0.00  0.00    +0.304 C 
ATOM     36  C   LIG A   1       2.134   2.284  -3.970  0.00  0.00    +0.136 C 
ATOM     37  O   LIG A   1      -0.178   1.683  -3.729  0.00  0.00    -0.251 OA
ENDBRANCH  34  35
ENDBRANCH   9  34
TORSDOF 5
