REMARK  Name = NuBBE_1930
REMARK  4 active torsions:
REMARK  status: ('A' for Active; 'I' for Inactive)
REMARK    1  A    between atoms: C_1  and  C_2
REMARK    2  A    between atoms: C_2  and  C_3
REMARK    3  A    between atoms: C_10  and  C_19
REMARK    4  A    between atoms: C_15  and  C_16
REMARK                            x       y       z     vdW  Elec       q    Type
REMARK                         _______ _______ _______ _____ _____    ______ ____
ROOT
ATOM      1  C   LIG A   1      -2.762  -1.989   1.405  0.00  0.00    +0.012 C 
ATOM      2  C   LIG A   1      -1.307  -1.774   1.002  0.00  0.00    -0.025 C 
ATOM      3  C   LIG A   1      -1.109  -2.686  -0.228  0.00  0.00    +0.012 C 
ATOM      4  C   LIG A   1      -0.124  -0.826   0.868  0.00  0.00    +0.025 C 
ATOM      5  C   LIG A   1      -1.304  -0.125   1.278  0.00  0.00    +0.003 C 
ATOM      6  C   LIG A   1      -0.781   0.975   2.169  0.00  0.00    +0.005 C 
ATOM      7  C   LIG A   1      -0.648   2.279   1.318  0.00  0.00    +0.004 C 
ATOM      8  C   LIG A   1       0.160   2.224  -0.032  0.00  0.00    -0.007 C 
ATOM      9  C   LIG A   1      -0.189   1.001  -0.938  0.00  0.00    +0.018 C 
ATOM     10  C   LIG A   1       0.407  -0.281  -0.388  0.00  0.00    -0.063 C 
ATOM     11  C   LIG A   1       1.468  -0.666  -1.095  0.00  0.00    -0.073 C 
ATOM     12  C   LIG A   1       2.461  -1.717  -0.731  0.00  0.00    +0.039 C 
ATOM     13  C   LIG A   1       1.636   0.151  -2.338  0.00  0.00    +0.031 C 
ATOM     14  C   LIG A   1       0.362   0.989  -2.365  0.00  0.00    +0.012 C 
ATOM     15  C   LIG A   1       1.663   2.384   0.243  0.00  0.00    +0.008 C 
ENDROOT
TORSDOF 0
