@<TRIPOS>MOLECULE
NuBBE_983
 51 51 0 0 0
SMALL
GASTEIGER

@<TRIPOS>ATOM
      1 C          -2.4131   -0.4545   -2.4671 C.3     1  LIG1       -0.0361
      2 C          -0.9692    0.0200   -2.2194 C.3     1  LIG1        0.0635
      3 C          -0.2955    0.1344   -3.5988 C.3     1  LIG1       -0.0361
      4 O          -1.0464    1.3274   -1.6738 O.3     1  LIG1       -0.3888
      5 C          -0.1864   -0.9315   -1.2521 C.3     1  LIG1       -0.0090
      6 H          -0.4105   -1.9226   -1.6870 H       1  LIG1        0.0330
      7 C          -0.6581   -1.1268    0.2259 C.3     1  LIG1       -0.0063
      8 C          -1.6309   -0.1811    0.9638 C.3     1  LIG1        0.1242
      9 O          -2.1313   -0.9407    2.1145 O.3     1  LIG1       -0.4571
     10 C          -3.1621   -1.7937    1.9032 C.2     1  LIG1        0.3045
     11 C          -3.6293   -2.3805    3.1913 C.3     1  LIG1        0.0333
     12 O          -3.6686   -2.0410    0.8125 O.2     1  LIG1       -0.2511
     13 C           1.3783   -0.9474   -1.3337 C.3     1  LIG1       -0.0472
     14 C           2.1805    0.3629   -1.3811 C.3     1  LIG1       -0.0478
     15 C           3.1710    0.7117   -0.2389 C.3     1  LIG1       -0.0178
     16 C           3.8776   -0.4873    0.4115 C.3     1  LIG1        0.0470
     17 O           4.7991   -0.0647    1.4130 O.3     1  LIG1       -0.3947
     18 C           2.5953    1.7041    0.7944 C.3     1  LIG1       -0.0478
     19 C           1.4211    1.1761    1.6248 C.3     1  LIG1       -0.0489
     20 C           0.1187    1.8155    1.1490 C.3     1  LIG1       -0.0285
     21 C          -1.1710    1.1518    1.5581 C.2     1  LIG1       -0.0367
     22 C          -2.0102    1.8360    2.3663 C.2     1  LIG1       -0.0960
     23 H          -2.9370    0.2483   -3.1284 H       1  LIG1        0.0257
     24 H          -3.0113   -0.4886   -1.5565 H       1  LIG1        0.0257
     25 H          -2.4404   -1.4431   -2.9347 H       1  LIG1        0.0257
     26 H          -0.9215    0.7114   -4.2904 H       1  LIG1        0.0257
     27 H          -0.1174   -0.8498   -4.0426 H       1  LIG1        0.0257
     28 H           0.6503    0.6800   -3.5544 H       1  LIG1        0.0257
     29 H          -1.5570    1.8916   -2.2795 H       1  LIG1        0.2101
     30 H           0.1942   -1.3341    0.8806 H       1  LIG1        0.0308
     31 H          -1.1452   -2.1147    0.2177 H       1  LIG1        0.0308
     32 H          -2.4851    0.0480    0.3231 H       1  LIG1        0.0782
     33 H          -4.0654   -1.6024    3.8216 H       1  LIG1        0.0342
     34 H          -2.8066   -2.8806    3.7089 H       1  LIG1        0.0342
     35 H          -4.4072   -3.1347    2.9912 H       1  LIG1        0.0342
     36 H           1.6137   -1.4740   -2.2721 H       1  LIG1        0.0269
     37 H           1.7671   -1.6286   -0.5723 H       1  LIG1        0.0269
     38 H           1.5405    1.2234   -1.5863 H       1  LIG1        0.0269
     39 H           2.8126    0.2734   -2.2793 H       1  LIG1        0.0269
     40 H           3.9726    1.2918   -0.7240 H       1  LIG1        0.0323
     41 H           4.4380   -1.0562   -0.3376 H       1  LIG1        0.0560
     42 H           3.1774   -1.1666    0.9014 H       1  LIG1        0.0560
     43 H           5.3727    0.6169    1.0245 H       1  LIG1        0.2094
     44 H           2.3126    2.6270    0.2690 H       1  LIG1        0.0269
     45 H           3.3962    2.0089    1.4785 H       1  LIG1        0.0269
     46 H           1.5782    1.4524    2.6748 H       1  LIG1        0.0268
     47 H           1.3936    0.0891    1.6093 H       1  LIG1        0.0268
     48 H           0.1352    1.9295    0.0702 H       1  LIG1        0.0311
     49 H           0.1288    2.8514    1.5196 H       1  LIG1        0.0311
     50 H          -1.7615    2.8176    2.7571 H       1  LIG1        0.0536
     51 H          -2.9874    1.4445    2.6338 H       1  LIG1        0.0536
@<TRIPOS>BOND
     1     1     2    1
     2     2     3    1
     3     2     4    1
     4     2     5    1
     5     5     6    1
     6     5     7    1
     7     7     8    1
     8     8     9    1
     9     9    10    1
    10    10    11    1
    11    10    12    2
    12     5    13    1
    13    13    14    1
    14    14    15    1
    15    15    16    1
    16    16    17    1
    17    15    18    1
    18    18    19    1
    19    19    20    1
    20    20    21    1
    21     8    21    1
    22    21    22    2
    23     1    23    1
    24     1    24    1
    25     1    25    1
    26     3    26    1
    27     3    27    1
    28     3    28    1
    29     4    29    1
    30     7    30    1
    31     7    31    1
    32     8    32    1
    33    11    33    1
    34    11    34    1
    35    11    35    1
    36    13    36    1
    37    13    37    1
    38    14    38    1
    39    14    39    1
    40    15    40    1
    41    16    41    1
    42    16    42    1
    43    17    43    1
    44    18    44    1
    45    18    45    1
    46    19    46    1
    47    19    47    1
    48    20    48    1
    49    20    49    1
    50    22    50    1
    51    22    51    1
