@<TRIPOS>MOLECULE
NuBBE_1443
 51 53 0 0 0
SMALL
GASTEIGER

@<TRIPOS>ATOM
      1 O          -0.7744    0.6789    4.0301 O.2     1  LIG1       -0.2830
      2 C          -0.7627    0.7989    2.7450 C.ar    1  LIG1        0.2382
      3 C          -0.9245   -0.3770    1.8865 C.ar    1  LIG1        0.2107
      4 O          -1.8077   -1.3397    2.3144 O.3     1  LIG1       -0.4883
      5 C          -2.2080   -2.4124    1.4202 C.3     1  LIG1        0.0791
      6 C          -0.0039   -0.3026    0.8344 C.ar    1  LIG1        0.1811
      7 O           0.8296    0.8048    0.6527 O.2     1  LIG1       -0.4470
      8 C           0.3569    2.0480    1.0005 C.ar    1  LIG1        0.1881
      9 C          -0.5715    2.0905    2.0996 C.ar    1  LIG1        0.1131
     10 C          -1.1516    3.2838    2.4620 C.ar    1  LIG1        0.1383
     11 O          -2.1226    3.5186    3.4065 O.3     1  LIG1       -0.4942
     12 C          -3.1154    2.5142    3.5498 C.3     1  LIG1        0.0788
     13 C          -0.7333    4.4356    1.8208 C.ar    1  LIG1        0.0264
     14 C           0.2213    4.4166    0.7657 C.ar    1  LIG1        0.1687
     15 O           0.3993    5.7464    0.4019 O.3     1  LIG1       -0.4912
     16 C           1.0741    5.7679   -0.7954 C.3     1  LIG1        0.0790
     17 C           0.7847    3.2077    0.2821 C.ar    1  LIG1        0.2051
     18 O           1.7745    2.9803   -0.6849 O.3     1  LIG1       -0.4885
     19 C           1.9850    3.6186   -1.9771 C.3     1  LIG1        0.0791
     20 C           0.2777   -1.3003   -0.2019 C.ar    1  LIG1        0.0247
     21 C           0.5343   -0.9066   -1.5160 C.ar    1  LIG1       -0.0473
     22 C           0.7671   -1.8634   -2.4981 C.ar    1  LIG1       -0.0156
     23 C           0.7160   -3.2550   -2.2325 C.ar    1  LIG1        0.1615
     24 C           0.5210   -3.6635   -0.9039 C.ar    1  LIG1        0.1622
     25 O           0.3190   -4.8579   -0.2567 O.3     1  LIG1       -0.4914
     26 C           0.4041   -6.0834   -0.9283 C.3     1  LIG1        0.0790
     27 C           0.4589   -2.6553    0.0729 C.ar    1  LIG1       -0.0055
     28 O           0.8857   -3.9617   -3.3969 O.3     1  LIG1       -0.4915
     29 C           1.5410   -5.2033   -3.2968 C.3     1  LIG1        0.0790
     30 H          -1.3635   -3.0255    1.1840 H       1  LIG1        0.0660
     31 H          -2.7119   -2.0948    0.5039 H       1  LIG1        0.0660
     32 H          -2.8105   -3.1400    1.9738 H       1  LIG1        0.0660
     33 H          -3.9262    2.9172    4.1665 H       1  LIG1        0.0660
     34 H          -2.7419    1.6566    4.1011 H       1  LIG1        0.0660
     35 H          -3.5314    2.2130    2.5826 H       1  LIG1        0.0660
     36 H          -1.1529    5.3997    2.0993 H       1  LIG1        0.0692
     37 H           0.4147    5.2701   -1.5157 H       1  LIG1        0.0660
     38 H           2.0286    5.3355   -0.5019 H       1  LIG1        0.0660
     39 H           1.3576    6.7128   -1.2570 H       1  LIG1        0.0660
     40 H           2.7364    3.0893   -2.5726 H       1  LIG1        0.0660
     41 H           2.5016    4.5921   -1.9806 H       1  LIG1        0.0660
     42 H           1.0569    3.6876   -2.5517 H       1  LIG1        0.0660
     43 H           0.6030    0.1545   -1.7621 H       1  LIG1        0.0626
     44 H           1.0168   -1.5124   -3.4991 H       1  LIG1        0.0655
     45 H           1.4397   -6.2017   -1.2413 H       1  LIG1        0.0660
     46 H          -0.3901   -6.1322   -1.6805 H       1  LIG1        0.0660
     47 H           0.2656   -6.9682   -0.3004 H       1  LIG1        0.0660
     48 H           0.4768   -2.9734    1.1165 H       1  LIG1        0.0662
     49 H           1.8692   -5.6302   -4.2475 H       1  LIG1        0.0660
     50 H           0.7849   -5.9320   -3.0560 H       1  LIG1        0.0660
     51 H           2.4018   -5.1466   -2.6181 H       1  LIG1        0.0660
@<TRIPOS>BOND
     1     1     2    2
     2     2     3   ar
     3     3     4    1
     4     4     5    1
     5     3     6   ar
     6     6     7   ar
     7     7     8   ar
     8     8     9   ar
     9     2     9   ar
    10     9    10   ar
    11    10    11    1
    12    11    12    1
    13    10    13   ar
    14    13    14   ar
    15    14    15    1
    16    15    16    1
    17    14    17   ar
    18     8    17   ar
    19    17    18    1
    20    18    19    1
    21     6    20    1
    22    20    21   ar
    23    21    22   ar
    24    22    23   ar
    25    23    24   ar
    26    24    25    1
    27    25    26    1
    28    24    27   ar
    29    20    27   ar
    30    23    28    1
    31    28    29    1
    32     5    30    1
    33     5    31    1
    34     5    32    1
    35    12    33    1
    36    12    34    1
    37    12    35    1
    38    13    36    1
    39    16    37    1
    40    16    38    1
    41    16    39    1
    42    19    40    1
    43    19    41    1
    44    19    42    1
    45    21    43    1
    46    22    44    1
    47    26    45    1
    48    26    46    1
    49    26    47    1
    50    27    48    1
    51    29    49    1
    52    29    50    1
    53    29    51    1
