@<TRIPOS>MOLECULE
NuBBE_60
 77 80 0 0 0
SMALL
GASTEIGER

@<TRIPOS>ATOM
      1 O          -0.4978    3.9334   -1.0580 O.3     1  LIG1       -0.3877
      2 C          -0.2210    3.2836    0.1603 C.3     1  LIG1        0.0741
      3 H          -0.0285    4.0710    0.8986 H       1  LIG1        0.0638
      4 C          -1.4599    2.5716    0.5722 C.2     1  LIG1       -0.0499
      5 C          -1.5498    1.2351    0.6468 C.2     1  LIG1        0.0124
      6 C          -2.4400    0.4852    1.6133 C.3     1  LIG1        0.2315
      7 H          -3.2469   -0.0385    1.0980 H       1  LIG1        0.1111
      8 O          -1.5570   -0.5219    2.1602 O.3     1  LIG1       -0.2971
      9 C          -0.2519   -0.2324    1.6322 C.3     1  LIG1        0.2214
     10 H           0.1463    0.6200    2.2086 H       1  LIG1        0.1068
     11 O           0.6935   -1.2861    1.7939 O.3     1  LIG1       -0.4341
     12 C           1.1277   -1.3775    3.0735 C.2     1  LIG1        0.3061
     13 C           2.4334   -2.0994    3.1591 C.3     1  LIG1        0.0333
     14 O           0.6032   -0.8563    4.0711 O.2     1  LIG1       -0.2511
     15 O          -2.8873    1.3064    2.6847 O.3     1  LIG1       -0.4311
     16 C          -4.2371    1.4132    2.7691 C.2     1  LIG1        0.3063
     17 C          -4.6505    1.9124    4.1186 C.3     1  LIG1        0.0333
     18 O          -5.0302    1.1426    1.8850 O.2     1  LIG1       -0.2511
     19 C          -0.4916    0.2431    0.1607 C.3     1  LIG1        0.1001
     20 C          -1.2245   -0.8222   -0.7700 C.3     1  LIG1        0.1191
     21 H          -2.1384   -0.3294   -1.1329 H       1  LIG1        0.0745
     22 O          -1.6584   -2.0291   -0.0720 O.3     1  LIG1       -0.4567
     23 C          -2.9675   -2.3976   -0.2026 C.2     1  LIG1        0.3395
     24 C          -3.3743   -3.2684    0.9616 C.ar    1  LIG1        0.0590
     25 C          -2.4284   -4.0648    1.6199 C.ar    1  LIG1       -0.0478
     26 C          -2.7820   -4.7866    2.7631 C.ar    1  LIG1       -0.0610
     27 C          -4.0860   -4.7409    3.2537 C.ar    1  LIG1       -0.0617
     28 C          -5.0500   -3.9845    2.5867 C.ar    1  LIG1       -0.0610
     29 C          -4.7017   -3.2511    1.4455 C.ar    1  LIG1       -0.0478
     30 O          -3.7593   -2.0031   -1.0443 O.2     1  LIG1       -0.2450
     31 C          -0.4573   -1.1749   -2.0442 C.3     1  LIG1       -0.0115
     32 C          -0.1114    0.1342   -2.7640 C.3     1  LIG1       -0.0345
     33 H          -0.9885    0.7934   -2.6665 H       1  LIG1        0.0305
     34 C           0.0203   -0.0726   -4.2805 C.3     1  LIG1       -0.0618
     35 C           1.0764    0.8764   -2.0607 C.3     1  LIG1       -0.0219
     36 C           1.2026    2.2536   -2.7645 C.3     1  LIG1       -0.0587
     37 C           2.4691    0.1501   -2.3277 C.3     1  LIG1       -0.0283
     38 C           3.6973    0.7805   -1.6849 C.2     1  LIG1       -0.0806
     39 C           4.8395    1.1960   -2.2732 C.2     1  LIG1       -0.0549
     40 C           5.1366    1.1737   -3.7478 C.3     1  LIG1       -0.0400
     41 C           5.8967    1.7679   -1.4509 C.2     1  LIG1       -0.0662
     42 C           7.1468    1.2908   -1.3999 C.2     1  LIG1       -0.0985
     43 C           0.7991    0.9465   -0.4700 C.3     1  LIG1       -0.0137
     44 H           1.6140    0.3451   -0.0427 H       1  LIG1        0.0319
     45 C           1.0148    2.3653    0.1438 C.3     1  LIG1       -0.0188
     46 H           0.2043    4.5869   -1.2132 H       1  LIG1        0.2102
     47 H          -2.2302    3.1961    1.0151 H       1  LIG1        0.0599
     48 H           2.3200   -3.1280    2.8173 H       1  LIG1        0.0342
     49 H           2.7859   -2.1048    4.1966 H       1  LIG1        0.0342
     50 H           3.1713   -1.5596    2.5590 H       1  LIG1        0.0342
     51 H          -5.4322    1.2492    4.4974 H       1  LIG1        0.0342
     52 H          -5.0172    2.9371    4.0486 H       1  LIG1        0.0342
     53 H          -3.8129    1.8724    4.8229 H       1  LIG1        0.0342
     54 H          -1.4119   -4.1109    1.2512 H       1  LIG1        0.0626
     55 H          -2.0269   -5.3725    3.2802 H       1  LIG1        0.0618
     56 H          -4.3447   -5.2893    4.1570 H       1  LIG1        0.0618
     57 H          -6.0687   -3.9579    2.9739 H       1  LIG1        0.0618
     58 H          -5.4631   -2.6447    0.9558 H       1  LIG1        0.0626
     59 H          -1.0983   -1.8024   -2.6786 H       1  LIG1        0.0304
     60 H           0.4256   -1.7873   -1.8351 H       1  LIG1        0.0304
     61 H           0.8836   -0.6834   -4.5508 H       1  LIG1        0.0233
     62 H           0.0906    0.8842   -4.8098 H       1  LIG1        0.0233
     63 H          -0.8763   -0.5628   -4.6773 H       1  LIG1        0.0233
     64 H           0.2392    2.7609   -2.8034 H       1  LIG1        0.0235
     65 H           1.5176    2.1459   -3.8080 H       1  LIG1        0.0235
     66 H           1.9453    2.9136   -2.3121 H       1  LIG1        0.0235
     67 H           2.4151   -0.8817   -1.9617 H       1  LIG1        0.0313
     68 H           2.6347    0.0713   -3.4075 H       1  LIG1        0.0313
     69 H           3.6582    0.8432   -0.5981 H       1  LIG1        0.0575
     70 H           5.5909    0.2205   -4.0374 H       1  LIG1        0.0277
     71 H           5.8414    1.9717   -4.0163 H       1  LIG1        0.0277
     72 H           4.2404    1.3432   -4.3498 H       1  LIG1        0.0277
     73 H           5.6381    2.6572   -0.8795 H       1  LIG1        0.0614
     74 H           7.4470    0.4034   -1.9485 H       1  LIG1        0.0535
     75 H           7.9036    1.7836   -0.7972 H       1  LIG1        0.0535
     76 H           1.8727    2.8744   -0.3035 H       1  LIG1        0.0296
     77 H           1.3165    2.2168    1.1903 H       1  LIG1        0.0296
@<TRIPOS>BOND
     1     2     4    1
     2     4     5    2
     3     5     6    1
     4     6     8    1
     5     8     9    1
     6    11    12    1
     7    12    13    1
     8    12    14    2
     9    15    16    1
    10    16    17    1
    11    16    18    2
    12     5    19    1
    13    19    20    1
    14    22    23    1
    15    23    24    1
    16    24    25   ar
    17    25    26   ar
    18    26    27   ar
    19    27    28   ar
    20    28    29   ar
    21    24    29   ar
    22    23    30    2
    23    20    31    1
    24    31    32    1
    25    32    35    1
    26    37    38    1
    27    38    39    2
    28    39    40    1
    29    39    41    1
    30    41    42    2
    31     9    19    1
    32    19    43    1
    33    35    43    1
    34    43    45    1
    35     2    45    1
    36    43    44    1
    37     9    11    1
    38     9    10    1
    39     2     3    1
    40     2     1    1
    41     6    15    1
    42     6     7    1
    43    20    22    1
    44    20    21    1
    45    32    34    1
    46    32    33    1
    47    35    37    1
    48    35    36    1
    49     1    46    1
    50     4    47    1
    51    13    48    1
    52    13    49    1
    53    13    50    1
    54    17    51    1
    55    17    52    1
    56    17    53    1
    57    25    54    1
    58    26    55    1
    59    27    56    1
    60    28    57    1
    61    29    58    1
    62    31    59    1
    63    31    60    1
    64    34    61    1
    65    34    62    1
    66    34    63    1
    67    36    64    1
    68    36    65    1
    69    36    66    1
    70    37    67    1
    71    37    68    1
    72    38    69    1
    73    40    70    1
    74    40    71    1
    75    40    72    1
    76    41    73    1
    77    42    74    1
    78    42    75    1
    79    45    76    1
    80    45    77    1
