@<TRIPOS>MOLECULE
NuBBE_1060
 72 76 0 0 0
SMALL
GASTEIGER

@<TRIPOS>ATOM
      1 C           0.4733   -1.9688    2.3830 C.3     1  LIG1       -0.0521
      2 C           1.2133   -1.3682    1.1578 C.3     1  LIG1        0.0387
      3 C           0.1814   -0.5092    0.2364 C.3     1  LIG1        0.0176
      4 H          -0.2554   -1.2158   -0.4803 H       1  LIG1        0.0353
      5 C           0.9140    0.6094   -0.5680 C.3     1  LIG1        0.0162
      6 C           1.8939   -0.0490   -1.6001 C.3     1  LIG1       -0.0555
      7 C           1.6120    1.5674    0.4443 C.3     1  LIG1        0.1094
      8 O           2.5945    2.3365   -0.2639 O.3     1  LIG1       -0.4608
      9 C           2.1540    3.0129   -1.3604 C.2     1  LIG1        0.3077
     10 C           0.6592    2.9460   -1.6090 C.3     1  LIG1        0.0493
     11 C          -0.0048    1.5383   -1.4681 C.3     1  LIG1       -0.0096
     12 H           0.0040    1.1188   -2.4856 H       1  LIG1        0.0322
     13 C          -1.5212    1.5964   -1.0656 C.3     1  LIG1        0.0339
     14 C          -2.3399    0.5450   -1.9021 C.2     1  LIG1        0.1464
     15 C          -3.0019    0.9773   -3.2173 C.3     1  LIG1        0.0622
     16 H          -2.3747    1.7159   -3.7277 H       1  LIG1        0.0416
     17 C          -4.3807    1.5216   -2.9186 C.3     1  LIG1        0.1025
     18 O          -5.2213    1.2023   -4.0231 O.3     1  LIG1       -0.4639
     19 C          -4.6374    0.2372   -4.7636 C.2     1  LIG1        0.3079
     20 C          -3.3043   -0.1387   -4.2049 C.3     1  LIG1        0.0576
     21 O          -5.1596   -0.2589   -5.7570 O.2     1  LIG1       -0.2508
     22 O          -2.4624   -0.6176   -1.5152 O.2     1  LIG1       -0.2964
     23 C          -2.1623    2.9907   -1.3006 C.3     1  LIG1       -0.0524
     24 C          -1.6869    1.3421    0.4441 C.3     1  LIG1       -0.0030
     25 C          -1.0188    0.0964    1.0495 C.3     1  LIG1        0.1083
     26 H          -0.6403    0.4113    2.0284 H       1  LIG1        0.0737
     27 O          -1.9974   -0.9419    1.3050 O.3     1  LIG1       -0.4612
     28 C          -2.8702   -0.7288    2.3306 C.2     1  LIG1        0.3042
     29 C          -3.5475   -2.0010    2.7473 C.3     1  LIG1        0.0332
     30 O          -3.0198    0.3348    2.9163 O.2     1  LIG1       -0.2512
     31 O           2.9048    3.6900   -2.0513 O.2     1  LIG1       -0.2508
     32 H           0.9006    2.2988    0.8459 H       1  LIG1        0.0739
     33 C           2.2196    0.9320    1.7109 C.3     1  LIG1       -0.0112
     34 C           2.5055   -0.5505    1.5316 C.3     1  LIG1       -0.0224
     35 H           3.1999   -0.5676    0.6847 H       1  LIG1        0.0314
     36 C           3.3222   -1.2606    2.6390 C.3     1  LIG1       -0.0373
     37 H           2.6867   -1.4992    3.4972 H       1  LIG1        0.0302
     38 C           3.8826   -2.5643    2.0269 C.3     1  LIG1       -0.0170
     39 C           2.8833   -3.4103    1.2234 C.3     1  LIG1        0.1138
     40 H           2.3512   -4.0903    1.8962 H       1  LIG1        0.0673
     41 O           3.6306   -4.2310    0.3267 O.3     1  LIG1       -0.3843
     42 C           1.8094   -2.6032    0.4457 C.2     1  LIG1        0.1680
     43 O           1.4312   -2.9911   -0.6612 O.2     1  LIG1       -0.2941
     44 C           4.4759   -0.4242    3.2012 C.3     1  LIG1       -0.0620
     45 H          -0.4139   -2.5240    2.0623 H       1  LIG1        0.0239
     46 H           0.1878   -1.2033    3.1092 H       1  LIG1        0.0239
     47 H           1.0551   -2.7080    2.9398 H       1  LIG1        0.0239
     48 H           2.7538   -0.5518   -1.1659 H       1  LIG1        0.0236
     49 H           2.3076    0.6727   -2.3121 H       1  LIG1        0.0236
     50 H           1.3592   -0.7912   -2.2052 H       1  LIG1        0.0236
     51 H           0.4652    3.3240   -2.6201 H       1  LIG1        0.0381
     52 H           0.2439    3.6726   -0.9051 H       1  LIG1        0.0381
     53 H          -4.3617    2.6094   -2.8203 H       1  LIG1        0.0704
     54 H          -4.8227    1.0962   -2.0102 H       1  LIG1        0.0704
     55 H          -2.5639   -0.1540   -5.0112 H       1  LIG1        0.0385
     56 H          -3.3807   -1.1298   -3.7488 H       1  LIG1        0.0385
     57 H          -2.0304    3.3380   -2.3298 H       1  LIG1        0.0239
     58 H          -1.7595    3.7623   -0.6383 H       1  LIG1        0.0239
     59 H          -3.2330    2.9702   -1.0744 H       1  LIG1        0.0239
     60 H          -2.7540    1.3707    0.6922 H       1  LIG1        0.0310
     61 H          -1.2526    2.2052    0.9703 H       1  LIG1        0.0310
     62 H          -3.4381   -2.7805    1.9891 H       1  LIG1        0.0342
     63 H          -4.6134   -1.8132    2.8985 H       1  LIG1        0.0342
     64 H          -3.0940   -2.3513    3.6796 H       1  LIG1        0.0342
     65 H           1.5279    1.0525    2.5533 H       1  LIG1        0.0304
     66 H           3.1300    1.4817    1.9723 H       1  LIG1        0.0304
     67 H           4.3125   -3.1871    2.8231 H       1  LIG1        0.0297
     68 H           4.7345   -2.3153    1.3779 H       1  LIG1        0.0297
     69 H           3.0313   -4.4371   -0.4193 H       1  LIG1        0.2104
     70 H           5.1415   -0.0697    2.4076 H       1  LIG1        0.0233
     71 H           5.0724   -1.0145    3.9058 H       1  LIG1        0.0233
     72 H           4.0992    0.4444    3.7513 H       1  LIG1        0.0233
@<TRIPOS>BOND
     1     2     3    1
     2     3     5    1
     3     5     7    1
     4     7     8    1
     5     8     9    1
     6     9    10    1
     7    10    11    1
     8     5    11    1
     9    11    13    1
    10    15    17    1
    11    17    18    1
    12    18    19    1
    13    19    20    1
    14    15    20    1
    15    19    21    2
    16    14    22    2
    17    13    24    1
    18    24    25    1
    19     3    25    1
    20    27    28    1
    21    28    29    1
    22    28    30    2
    23     7    33    1
    24    33    34    1
    25     2    34    1
    26    34    36    1
    27    36    38    1
    28    38    39    1
    29    39    42    1
    30     2    42    1
    31     1     2    1
    32     3     4    1
    33     5     6    1
    34     7    32    1
    35     9    31    2
    36    11    12    1
    37    25    26    1
    38    25    27    1
    39    34    35    1
    40    42    43    2
    41    13    23    1
    42    13    14    1
    43    15    16    1
    44    15    14    1
    45    36    44    1
    46    36    37    1
    47    39    41    1
    48    39    40    1
    49     1    45    1
    50     1    46    1
    51     1    47    1
    52     6    48    1
    53     6    49    1
    54     6    50    1
    55    10    51    1
    56    10    52    1
    57    17    53    1
    58    17    54    1
    59    20    55    1
    60    20    56    1
    61    23    57    1
    62    23    58    1
    63    23    59    1
    64    24    60    1
    65    24    61    1
    66    29    62    1
    67    29    63    1
    68    29    64    1
    69    33    65    1
    70    33    66    1
    71    38    67    1
    72    38    68    1
    73    41    69    1
    74    44    70    1
    75    44    71    1
    76    44    72    1
