REMARK  Name = NuBBE_990
REMARK  7 active torsions:
REMARK  status: ('A' for Active; 'I' for Inactive)
REMARK    1  A    between atoms: C_1  and  C_2
REMARK    2  A    between atoms: C_9  and  O_23
REMARK    3  A    between atoms: C_11  and  O_19
REMARK    4  A    between atoms: O_19  and  C_20
REMARK    5  A    between atoms: C_20  and  C_21
REMARK    6  A    between atoms: O_23  and  C_24
REMARK    7  A    between atoms: C_24  and  C_25
REMARK                            x       y       z     vdW  Elec       q    Type
REMARK                         _______ _______ _______ _____ _____    ______ ____
ROOT
ATOM      1  C   LIG A   1      -1.849   2.047   2.998  0.00  0.00    +0.012 C 
ATOM      2  C   LIG A   1      -0.318   1.855   3.051  0.00  0.00    -0.022 C 
ATOM      3  C   LIG A   1       0.370   2.616   1.883  0.00  0.00    +0.006 C 
ATOM      4  C   LIG A   1       0.516   1.697   0.664  0.00  0.00    -0.003 C 
ATOM      5  C   LIG A   1       0.974   2.422  -0.599  0.00  0.00    +0.004 C 
ATOM      6  C   LIG A   1       0.762   1.507  -1.799  0.00  0.00    +0.004 C 
ATOM      7  C   LIG A   1       1.444   0.138  -1.635  0.00  0.00    +0.002 C 
ATOM      8  C   LIG A   1       1.115  -0.753  -2.852  0.00  0.00    +0.055 C 
ATOM      9  C   LIG A   1      -0.109  -1.647  -2.636  0.00  0.00    +0.248 C 
ATOM     10  C   LIG A   1       0.004  -2.333  -1.237  0.00  0.00    +0.253 C 
ATOM     11  C   LIG A   1      -0.167  -1.253  -0.172  0.00  0.00    +0.092 C 
ATOM     12  C   LIG A   1       1.192  -0.567  -0.241  0.00  0.00    +0.006 C 
ATOM     13  C   LIG A   1       1.426   0.459   0.908  0.00  0.00    +0.001 C 
ATOM     14  C   LIG A   1       1.280  -0.063   2.356  0.00  0.00    +0.005 C 
ATOM     15  C   LIG A   1      -0.039   0.328   3.018  0.00  0.00    +0.007 C 
ATOM     16  C   LIG A   1       2.059  -1.838  -0.207  0.00  0.00    +0.172 C 
ATOM     17  O   LIG A   1       1.338  -2.831  -0.979  0.00  0.00    -0.336 OA
ATOM     18  C   LIG A   1       1.692   3.184   2.409  0.00  0.00    +0.078 C 
ATOM     19  C   LIG A   1       1.536   3.112   3.899  0.00  0.00    +0.134 C 
ATOM     20  C   LIG A   1       0.223   2.526   4.327  0.00  0.00    +0.081 C 
ATOM     21  O   LIG A   1       2.379   3.523   4.686  0.00  0.00    -0.297 OA
ENDROOT
BRANCH  10  22
ATOM     22  O   LIG A   1      -1.013  -3.321  -1.022  0.00  0.00    -0.429 OA
BRANCH  22  23
ATOM     23  C   LIG A   1      -1.009  -4.392  -1.859  0.00  0.00    +0.306 C 
ATOM     24  C   LIG A   1      -2.170  -5.279  -1.547  0.00  0.00    +0.136 C 
ATOM     25  O   LIG A   1      -0.217  -4.606  -2.770  0.00  0.00    -0.251 OA
ENDBRANCH  22  23
ENDBRANCH  10  22
BRANCH   9  26
ATOM     26  O   LIG A   1      -1.370  -0.928  -2.679  0.00  0.00    -0.455 OA
BRANCH  26  27
ATOM     27  C   LIG A   1      -1.811  -0.494  -3.882  0.00  0.00    +0.304 C 
ATOM     28  C   LIG A   1      -3.272  -0.189  -3.812  0.00  0.00    +0.136 C 
ATOM     29  O   LIG A   1      -1.138  -0.427  -4.911  0.00  0.00    -0.251 OA
ENDBRANCH  26  27
ENDBRANCH   9  26
TORSDOF 4
