@<TRIPOS>MOLECULE
NuBBE_925
 29 30 0 0 0
SMALL
GASTEIGER

@<TRIPOS>ATOM
      1 C          -2.1693    0.0368   -0.5373 C.3     1  LIG1       -0.0567
      2 C          -0.6535    0.0317   -0.4751 C.3     1  LIG1       -0.0007
      3 C          -0.0020    0.0014    0.9419 C.3     1  LIG1       -0.0242
      4 C          -0.3131    1.2144    1.8425 C.3     1  LIG1       -0.0590
      5 C          -0.3061   -1.2481    1.7927 C.3     1  LIG1       -0.0590
      6 C           1.4240    0.0185    0.3276 C.3     1  LIG1       -0.0329
      7 H           2.2485    0.0070    1.0445 H       1  LIG1        0.0307
      8 C           1.4299   -1.1999   -0.6278 C.3     1  LIG1       -0.0230
      9 C          -0.0171   -1.2175   -1.1583 C.3     1  LIG1        0.0614
     10 H          -0.5237   -2.1383   -0.8510 H       1  LIG1        0.0599
     11 O          -0.0771   -1.1828   -2.5739 O.3     1  LIG1       -0.3912
     12 C           1.4147    1.2762   -0.5712 C.3     1  LIG1       -0.0490
     13 C          -0.0266    1.3054   -1.1076 C.3     1  LIG1       -0.0445
     14 H          -2.5897   -0.8569   -0.0649 H       1  LIG1        0.0236
     15 H          -2.5177    0.0600   -1.5753 H       1  LIG1        0.0236
     16 H          -2.5865    0.9113   -0.0275 H       1  LIG1        0.0236
     17 H          -1.3587    1.1935    2.1703 H       1  LIG1        0.0235
     18 H          -0.1519    2.1860    1.3714 H       1  LIG1        0.0235
     19 H           0.3169    1.1935    2.7394 H       1  LIG1        0.0235
     20 H          -1.3494   -1.2420    2.1283 H       1  LIG1        0.0235
     21 H           0.3301   -1.2635    2.6853 H       1  LIG1        0.0235
     22 H          -0.1471   -2.1995    1.2815 H       1  LIG1        0.0235
     23 H           1.6444   -2.1193   -0.0720 H       1  LIG1        0.0293
     24 H           2.1819   -1.1122   -1.4187 H       1  LIG1        0.0293
     25 H           0.6111   -0.5816   -2.9019 H       1  LIG1        0.2098
     26 H           2.1483    1.2167   -1.3821 H       1  LIG1        0.0268
     27 H           1.6346    2.1820    0.0036 H       1  LIG1        0.0268
     28 H          -0.0551    1.3092   -2.2012 H       1  LIG1        0.0272
     29 H          -0.5397    2.2178   -0.7832 H       1  LIG1        0.0272
@<TRIPOS>BOND
     1     1     2    1
     2     2     3    1
     3     3     4    1
     4     3     5    1
     5     3     6    1
     6     6     7    1
     7     6     8    1
     8     8     9    1
     9     2     9    1
    10     6    12    1
    11    12    13    1
    12     2    13    1
    13     9    11    1
    14     9    10    1
    15     1    14    1
    16     1    15    1
    17     1    16    1
    18     4    17    1
    19     4    18    1
    20     4    19    1
    21     5    20    1
    22     5    21    1
    23     5    22    1
    24     8    23    1
    25     8    24    1
    26    11    25    1
    27    12    26    1
    28    12    27    1
    29    13    28    1
    30    13    29    1
