@<TRIPOS>MOLECULE
NuBBE_2136
 33 33 0 0 0
SMALL
GASTEIGER

@<TRIPOS>ATOM
      1 C           0.1441    2.5504   -2.6452 C.3     1  LIG1       -0.0653
      2 C          -1.3527    2.4122   -2.8572 C.3     1  LIG1       -0.0559
      3 C          -1.9548    1.0210   -2.6230 C.3     1  LIG1       -0.0533
      4 C          -2.0157    0.4717   -1.1879 C.3     1  LIG1       -0.0531
      5 C          -0.6696    0.2179   -0.5067 C.3     1  LIG1       -0.0528
      6 C          -0.7630   -0.3952    0.8976 C.3     1  LIG1       -0.0502
      7 C           0.6380   -0.5771    1.5110 C.3     1  LIG1       -0.0410
      8 C           0.6217   -0.9928    2.9818 C.3     1  LIG1       -0.0502
      9 C           1.9665   -1.6834    3.1692 C.3     1  LIG1       -0.0528
     10 C           2.0903   -2.5141    1.9053 C.3     1  LIG1       -0.0528
     11 C           1.4941   -1.6370    0.8035 C.3     1  LIG1       -0.0502
     12 H           0.4323    3.6121   -2.7048 H       1  LIG1        0.0230
     13 H           0.7063    2.0055   -3.4102 H       1  LIG1        0.0230
     14 H           0.4938    2.2200   -1.6784 H       1  LIG1        0.0230
     15 H          -1.5508    2.6972   -3.8975 H       1  LIG1        0.0263
     16 H          -1.8842    3.1486   -2.2294 H       1  LIG1        0.0263
     17 H          -1.4685    0.2935   -3.2900 H       1  LIG1        0.0265
     18 H          -2.9987    1.0838   -2.9739 H       1  LIG1        0.0265
     19 H          -2.5705   -0.4752   -1.2221 H       1  LIG1        0.0265
     20 H          -2.6083    1.1569   -0.5675 H       1  LIG1        0.0265
     21 H          -0.1762    1.1668   -0.3411 H       1  LIG1        0.0265
     22 H          -0.0427   -0.3967   -1.1581 H       1  LIG1        0.0265
     23 H          -1.2972   -1.3509    0.8701 H       1  LIG1        0.0268
     24 H          -1.3449    0.2848    1.5388 H       1  LIG1        0.0268
     25 H           1.1743    0.3890    1.4483 H       1  LIG1        0.0301
     26 H          -0.1941   -1.6951    3.1839 H       1  LIG1        0.0268
     27 H           0.5107   -0.1364    3.6565 H       1  LIG1        0.0268
     28 H           2.0043   -2.2940    4.0750 H       1  LIG1        0.0265
     29 H           2.7757   -0.9442    3.2179 H       1  LIG1        0.0265
     30 H           1.4957   -3.4306    2.0050 H       1  LIG1        0.0265
     31 H           3.1222   -2.8076    1.6930 H       1  LIG1        0.0265
     32 H           0.9248   -2.2517    0.1003 H       1  LIG1        0.0268
     33 H           2.2972   -1.1492    0.2359 H       1  LIG1        0.0268
@<TRIPOS>BOND
     1     1     2    1
     2     2     3    1
     3     3     4    1
     4     4     5    1
     5     5     6    1
     6     6     7    1
     7     7     8    1
     8     8     9    1
     9     9    10    1
    10    10    11    1
    11     7    11    1
    12     1    12    1
    13     1    13    1
    14     1    14    1
    15     2    15    1
    16     2    16    1
    17     3    17    1
    18     3    18    1
    19     4    19    1
    20     4    20    1
    21     5    21    1
    22     5    22    1
    23     6    23    1
    24     6    24    1
    25     7    25    1
    26     8    26    1
    27     8    27    1
    28     9    28    1
    29     9    29    1
    30    10    30    1
    31    10    31    1
    32    11    32    1
    33    11    33    1
