@<TRIPOS>MOLECULE
NuBBE_1311
 52 54 0 0 0
SMALL
GASTEIGER

@<TRIPOS>ATOM
      1 O          -3.7577    1.2368    0.8603 O.2     1  LIG1       -0.2830
      2 C          -2.6032    1.2068    0.4848 C.ar    1  LIG1        0.2382
      3 C          -1.9068   -0.0906    0.1564 C.ar    1  LIG1        0.2107
      4 O          -2.6113   -1.2665   -0.0542 O.3     1  LIG1       -0.4883
      5 C          -3.9388   -1.1117   -0.5447 C.3     1  LIG1        0.0791
      6 C          -0.5614   -0.0861    0.1283 C.ar    1  LIG1        0.1812
      7 C           0.2633   -1.2868   -0.0704 C.ar    1  LIG1        0.0282
      8 C           0.6599   -1.6943   -1.3463 C.ar    1  LIG1       -0.0053
      9 C           1.5635   -2.7584   -1.5178 C.ar    1  LIG1        0.1658
     10 O           1.8355   -3.0344   -2.8355 O.3     1  LIG1       -0.4913
     11 C           2.1283   -4.3886   -3.1709 C.3     1  LIG1        0.0790
     12 C           2.1429   -3.3835   -0.3956 C.ar    1  LIG1        0.2035
     13 O           3.1794   -4.2566   -0.6379 O.3     1  LIG1       -0.4885
     14 C           3.3312   -5.3501    0.2621 C.3     1  LIG1        0.0791
     15 C           1.7175   -2.9967    0.8926 C.ar    1  LIG1        0.1658
     16 O           2.3679   -3.5311    1.9753 O.3     1  LIG1       -0.4913
     17 C           1.6031   -3.7287    3.1567 C.3     1  LIG1        0.0790
     18 C           0.7661   -1.9735    1.0422 C.ar    1  LIG1       -0.0053
     19 O           0.2072    1.0492    0.3265 O.2     1  LIG1       -0.4470
     20 C          -1.7895    2.4407    0.3548 C.ar    1  LIG1        0.1131
     21 C          -0.4119    2.2770    0.3105 C.ar    1  LIG1        0.1879
     22 C           0.4414    3.3829    0.2543 C.ar    1  LIG1        0.2026
     23 O           1.7902    3.1450    0.2297 O.3     1  LIG1       -0.5009
     24 C          -0.0841    4.6758    0.2262 C.ar    1  LIG1        0.1685
     25 O           0.6031    5.8600    0.1846 O.3     1  LIG1       -0.4912
     26 C           2.0240    5.7901    0.1784 C.3     1  LIG1        0.0790
     27 C          -1.4785    4.8367    0.2392 C.ar    1  LIG1        0.0264
     28 C          -2.3433    3.7316    0.2881 C.ar    1  LIG1        0.1383
     29 O          -3.7055    3.8641    0.3226 O.3     1  LIG1       -0.4942
     30 C          -4.2742    4.9671   -0.3768 C.3     1  LIG1        0.0788
     31 H          -4.1295   -1.9241   -1.2506 H       1  LIG1        0.0660
     32 H          -4.0985   -0.1755   -1.0913 H       1  LIG1        0.0660
     33 H          -4.6444   -1.2011    0.2866 H       1  LIG1        0.0660
     34 H           0.2897   -1.1739   -2.2275 H       1  LIG1        0.0662
     35 H           1.5378   -4.6512   -4.0546 H       1  LIG1        0.0660
     36 H           1.8665   -5.1188   -2.3992 H       1  LIG1        0.0660
     37 H           3.1871   -4.4711   -3.4355 H       1  LIG1        0.0660
     38 H           3.9164   -6.1232   -0.2458 H       1  LIG1        0.0660
     39 H           2.3670   -5.7922    0.5363 H       1  LIG1        0.0660
     40 H           3.9072   -5.0552    1.1438 H       1  LIG1        0.0660
     41 H           2.2299   -4.2898    3.8575 H       1  LIG1        0.0660
     42 H           0.7066   -4.3240    2.9558 H       1  LIG1        0.0660
     43 H           1.3542   -2.7783    3.6350 H       1  LIG1        0.0660
     44 H           0.4639   -1.6425    2.0307 H       1  LIG1        0.0662
     45 H           1.9207    2.1779    0.2440 H       1  LIG1        0.2924
     46 H           2.4139    6.8094    0.1102 H       1  LIG1        0.0660
     47 H           2.3895    5.2508   -0.7016 H       1  LIG1        0.0660
     48 H           2.3992    5.3592    1.1130 H       1  LIG1        0.0660
     49 H          -1.8675    5.8516    0.2394 H       1  LIG1        0.0692
     50 H          -5.3638    4.8763   -0.3135 H       1  LIG1        0.0660
     51 H          -3.9975    4.9450   -1.4363 H       1  LIG1        0.0660
     52 H          -4.0069    5.9242    0.0800 H       1  LIG1        0.0660
@<TRIPOS>BOND
     1     1     2    2
     2     2     3   ar
     3     3     4    1
     4     4     5    1
     5     3     6   ar
     6     6     7    1
     7     7     8   ar
     8     8     9   ar
     9     9    10    1
    10    10    11    1
    11     9    12   ar
    12    12    13    1
    13    13    14    1
    14    12    15   ar
    15    15    16    1
    16    16    17    1
    17    15    18   ar
    18     7    18   ar
    19     6    19   ar
    20     2    20   ar
    21    20    21   ar
    22    19    21   ar
    23    21    22   ar
    24    22    23    1
    25    22    24   ar
    26    24    25    1
    27    25    26    1
    28    24    27   ar
    29    27    28   ar
    30    20    28   ar
    31    28    29    1
    32    29    30    1
    33     5    31    1
    34     5    32    1
    35     5    33    1
    36     8    34    1
    37    11    35    1
    38    11    36    1
    39    11    37    1
    40    14    38    1
    41    14    39    1
    42    14    40    1
    43    17    41    1
    44    17    42    1
    45    17    43    1
    46    18    44    1
    47    23    45    1
    48    26    46    1
    49    26    47    1
    50    26    48    1
    51    27    49    1
    52    30    50    1
    53    30    51    1
    54    30    52    1
