REMARK  Name = NuBBE_312
REMARK  20 active torsions:
REMARK  status: ('A' for Active; 'I' for Inactive)
REMARK    1  A    between atoms: C_3  and  C_4
REMARK    2  A    between atoms: C_5  and  O_6
REMARK    3  A    between atoms: O_6  and  C_7
REMARK    4  A    between atoms: C_7  and  C_8
REMARK    5  A    between atoms: C_9  and  C_10
REMARK    6  A    between atoms: C_13  and  O_14
REMARK    7  A    between atoms: C_15  and  O_16
REMARK    8  A    between atoms: O_16  and  C_17
REMARK    9  A    between atoms: C_22  and  C_23
REMARK   10  A    between atoms: C_23  and  C_24
REMARK   11  A    between atoms: C_24  and  C_25
REMARK   12  A    between atoms: C_25  and  C_26
REMARK   13  A    between atoms: C_26  and  C_27
REMARK   14  A    between atoms: C_27  and  C_28
REMARK   15  A    between atoms: C_28  and  C_29
REMARK   16  A    between atoms: C_29  and  C_30
REMARK   17  A    between atoms: C_30  and  C_31
REMARK   18  A    between atoms: C_31  and  C_32
REMARK   19  A    between atoms: C_32  and  C_33
REMARK   20  A    between atoms: C_33  and  C_34
REMARK                            x       y       z     vdW  Elec       q    Type
REMARK                         _______ _______ _______ _____ _____    ______ ____
ROOT
ATOM      1  H   LIG A   1      -3.872   4.067  -0.689  0.00  0.00    +0.123 HD
ATOM      2  N   LIG A   1      -3.147   3.466  -0.296  0.00  0.00    -0.307 NA
ATOM      3  C   LIG A   1      -3.759   2.214   0.173  0.00  0.00    +0.092 C 
ATOM      4  C   LIG A   1      -4.958   2.593   1.059  0.00  0.00    +0.028 C 
ATOM      5  C   LIG A   1      -4.212   1.222  -0.934  0.00  0.00    +0.193 C 
ATOM      6  C   LIG A   1      -3.244   1.157  -2.121  0.00  0.00    +0.048 C 
ATOM      7  C   LIG A   1      -2.670   2.523  -2.493  0.00  0.00    +0.022 C 
ATOM      8  C   LIG A   1      -2.080   3.274  -1.294  0.00  0.00    +0.054 C 
ENDROOT
BRANCH   8   9
ATOM      9  C   LIG A   1      -0.811   2.659  -0.647  0.00  0.00    +0.019 C 
BRANCH   9  10
ATOM     10  C   LIG A   1       0.424   2.540  -1.562  0.00  0.00    +0.002 C 
BRANCH  10  11
ATOM     11  C   LIG A   1       1.629   1.928  -0.805  0.00  0.00    +0.000 C 
BRANCH  11  12
ATOM     12  C   LIG A   1       2.899   1.870  -1.676  0.00  0.00    -0.000 C 
BRANCH  12  13
ATOM     13  C   LIG A   1       4.130   1.250  -0.976  0.00  0.00    -0.000 C 
BRANCH  13  14
ATOM     14  C   LIG A   1       5.318   1.080  -1.947  0.00  0.00    -0.000 C 
BRANCH  14  15
ATOM     15  C   LIG A   1       6.590   0.516  -1.280  0.00  0.00    +0.000 C 
BRANCH  15  16
ATOM     16  C   LIG A   1       7.756   0.443  -2.280  0.00  0.00    +0.000 C 
BRANCH  16  17
ATOM     17  C   LIG A   1       9.036  -0.174  -1.706  0.00  0.00    +0.007 C 
BRANCH  17  18
ATOM     18  C   LIG A   1      10.155  -0.137  -2.752  0.00  0.00    +0.074 C 
BRANCH  18  19
ATOM     19  C   LIG A   1      11.464  -0.672  -2.204  0.00  0.00    +0.130 C 
ATOM     20  C   LIG A   1      12.732  -0.102  -2.787  0.00  0.00    +0.086 C 
ATOM     21  O   LIG A   1      11.502  -1.588  -1.383  0.00  0.00    -0.298 OA
ENDBRANCH  18  19
ENDBRANCH  17  18
ENDBRANCH  16  17
ENDBRANCH  15  16
ENDBRANCH  14  15
ENDBRANCH  13  14
ENDBRANCH  12  13
ENDBRANCH  11  12
ENDBRANCH  10  11
ENDBRANCH   9  10
ENDBRANCH   8   9
BRANCH   5  22
ATOM     22  O   LIG A   1      -4.258  -0.084  -0.296  0.00  0.00    -0.457 OA
BRANCH  22  23
ATOM     23  C   LIG A   1      -5.406  -0.779  -0.339  0.00  0.00    +0.332 C 
ATOM     24  O   LIG A   1      -6.328  -0.647  -1.150  0.00  0.00    -0.246 OA
BRANCH  23  25
ATOM     25  C   LIG A   1      -5.408  -1.672   0.843  0.00  0.00    +0.092 C 
ATOM     26  C   LIG A   1      -6.490  -2.403   1.157  0.00  0.00    +0.015 C 
BRANCH  26  27
ATOM     27  C   LIG A   1      -6.548  -3.222   2.370  0.00  0.00    -0.021 A 
ATOM     28  C   LIG A   1      -6.116  -4.548   2.331  0.00  0.00    +0.012 A 
ATOM     29  C   LIG A   1      -6.212  -5.352   3.468  0.00  0.00    +0.050 A 
ATOM     30  C   LIG A   1      -6.733  -4.834   4.657  0.00  0.00    +0.159 A 
ATOM     31  C   LIG A   1      -7.139  -3.495   4.729  0.00  0.00    +0.162 A 
ATOM     32  C   LIG A   1      -7.044  -2.700   3.573  0.00  0.00    +0.057 A 
BRANCH  30  33
ATOM     33  O   LIG A   1      -6.836  -5.675   5.731  0.00  0.00    -0.503 OA
ATOM     34  H   LIG A   1      -6.570  -6.570   5.468  0.00  0.00    +0.292 HD
ENDBRANCH  30  33
BRANCH  31  35
ATOM     35  O   LIG A   1      -7.639  -2.825   5.816  0.00  0.00    -0.491 OA
ATOM     36  C   LIG A   1      -7.789  -3.553   7.029  0.00  0.00    +0.277 C 
ENDBRANCH  31  35
ENDBRANCH  26  27
ENDBRANCH  23  25
ENDBRANCH  22  23
ENDBRANCH   5  22
TORSDOF 17
