REMARK  Name = NuBBE_1818
REMARK  6 active torsions:
REMARK  status: ('A' for Active; 'I' for Inactive)
REMARK    1  A    between atoms: O_1  and  C_2
REMARK    2  A    between atoms: C_6  and  C_11
REMARK    3  A    between atoms: C_7  and  C_8
REMARK    4  A    between atoms: C_8  and  C_10
REMARK    5  A    between atoms: C_13  and  O_17
REMARK    6  A    between atoms: C_15  and  O_16
REMARK                            x       y       z     vdW  Elec       q    Type
REMARK                         _______ _______ _______ _____ _____    ______ ____
ROOT
ATOM      1  C   LIG A   1      -1.002   0.381   0.011  0.00  0.00    +0.139 A 
ATOM      2  C   LIG A   1      -0.459  -0.934   0.020  0.00  0.00    +0.066 A 
ATOM      3  C   LIG A   1       0.937  -1.070   0.205  0.00  0.00    -0.007 A 
ATOM      4  C   LIG A   1       1.736   0.073   0.371  0.00  0.00    +0.013 A 
ATOM      5  C   LIG A   1       1.194   1.368   0.350  0.00  0.00    -0.036 A 
ATOM      6  C   LIG A   1      -0.192   1.517   0.171  0.00  0.00    +0.062 A 
ATOM      7  C   LIG A   1       2.113   2.544   0.544  0.00  0.00    +0.044 C 
ATOM      8  C   LIG A   1       1.525  -2.348   0.226  0.00  0.00    +0.054 A 
ATOM      9  C   LIG A   1       0.744  -3.487   0.066  0.00  0.00    +0.121 A 
ATOM     10  C   LIG A   1      -0.626  -3.389  -0.116  0.00  0.00    +0.091 A 
ATOM     11  C   LIG A   1      -1.216  -2.127  -0.136  0.00  0.00    +0.132 A 
ENDROOT
BRANCH   6  12
ATOM     12  C   LIG A   1      -0.800   2.876   0.172  0.00  0.00    +0.164 C 
ATOM     13  O   LIG A   1      -0.507   3.679   1.056  0.00  0.00    -0.292 OA
ATOM     14  C   LIG A   1      -1.737   3.244  -0.949  0.00  0.00    +0.091 C 
ENDBRANCH   6  12
BRANCH   1  15
ATOM     15  O   LIG A   1      -2.359   0.563  -0.132  0.00  0.00    -0.505 OA
ATOM     16  H   LIG A   1      -2.762  -0.328  -0.201  0.00  0.00    +0.292 HD
ENDBRANCH   1  15
BRANCH  11  17
ATOM     17  O   LIG A   1      -2.578  -2.031  -0.312  0.00  0.00    -0.506 OA
ATOM     18  H   LIG A   1      -2.938  -2.933  -0.396  0.00  0.00    +0.292 HD
ENDBRANCH  11  17
BRANCH   9  19
ATOM     19  O   LIG A   1       1.291  -4.735   0.082  0.00  0.00    -0.507 OA
ATOM     20  H   LIG A   1       2.249  -4.659   0.228  0.00  0.00    +0.292 HD
ENDBRANCH   9  19
TORSDOF 4
