@<TRIPOS>MOLECULE
NuBBE_1951
 20 20 0 0 0
SMALL
GASTEIGER

@<TRIPOS>ATOM
      1 C          -1.9191   -0.1799   -0.6401 C.2     1  LIG1        0.3221
      2 O          -2.8381    0.1246   -1.3910 O.2     1  LIG1       -0.2492
      3 O          -2.1546   -0.6976    0.5890 O.3     1  LIG1       -0.4795
      4 C          -0.4375   -0.0092   -0.9956 C.3     1  LIG1        0.1080
      5 H          -0.4136    0.3060   -2.0465 H       1  LIG1        0.0578
      6 N           0.3116    0.9914   -0.1981 N.3     1  LIG1       -0.2930
      7 C          -0.4048    1.7706    0.7949 C.3     1  LIG1       -0.0120
      8 C           1.5452    0.3800    0.2911 C.3     1  LIG1       -0.0006
      9 C           1.2595   -1.1069    0.3268 C.3     1  LIG1       -0.0383
     10 C           0.3429   -1.3197   -0.8657 C.3     1  LIG1       -0.0258
     11 H          -1.3342   -0.8483    1.0930 H       1  LIG1        0.2951
     12 H          -1.2931    2.2449    0.3650 H       1  LIG1        0.0391
     13 H           0.2303    2.5859    1.1600 H       1  LIG1        0.0391
     14 H          -0.7020    1.1750    1.6636 H       1  LIG1        0.0391
     15 H           1.8779    0.7586    1.2636 H       1  LIG1        0.0427
     16 H           2.3455    0.5859   -0.4301 H       1  LIG1        0.0427
     17 H           0.7471   -1.3744    1.2578 H       1  LIG1        0.0278
     18 H           2.1707   -1.7083    0.2576 H       1  LIG1        0.0278
     19 H          -0.2879   -2.2042   -0.7322 H       1  LIG1        0.0286
     20 H           0.9543   -1.4745   -1.7634 H       1  LIG1        0.0286
@<TRIPOS>BOND
     1     1     2    2
     2     1     3    1
     3     1     4    1
     4     4     5    1
     5     4     6    1
     6     6     7    1
     7     6     8    1
     8     8     9    1
     9     9    10    1
    10     4    10    1
    11     3    11    1
    12     7    12    1
    13     7    13    1
    14     7    14    1
    15     8    15    1
    16     8    16    1
    17     9    17    1
    18     9    18    1
    19    10    19    1
    20    10    20    1
