REMARK  Name = NuBBE_382
REMARK  11 active torsions:
REMARK  status: ('A' for Active; 'I' for Inactive)
REMARK    1  A    between atoms: C_3  and  O_4
REMARK    2  A    between atoms: C_5  and  C_6
REMARK    3  A    between atoms: C_12  and  C_13
REMARK    4  A    between atoms: C_15  and  C_27
REMARK    5  A    between atoms: C_17  and  O_19
REMARK    6  A    between atoms: C_20  and  C_21
REMARK    7  A    between atoms: C_20  and  C_22
REMARK    8  A    between atoms: C_22  and  O_23
REMARK    9  A    between atoms: O_23  and  C_24
REMARK   10  A    between atoms: C_30  and  C_31
REMARK   11  A    between atoms: C_34  and  C_35
REMARK                            x       y       z     vdW  Elec       q    Type
REMARK                         _______ _______ _______ _____ _____    ______ ____
ROOT
ATOM      1  O   LIG A   1      -6.961  -1.967   0.190  0.00  0.00    -0.284 OA
ATOM      2  C   LIG A   1      -5.878  -2.269   0.685  0.00  0.00    +0.221 C 
ATOM      3  C   LIG A   1      -5.748  -3.533   1.470  0.00  0.00    +0.167 C 
ATOM      4  C   LIG A   1      -4.549  -3.935   1.932  0.00  0.00    +0.002 C 
ATOM      5  C   LIG A   1      -4.396  -5.192   2.747  0.00  0.00    +0.048 C 
ATOM      6  C   LIG A   1      -3.359  -3.142   1.581  0.00  0.00    -0.014 C 
ATOM      7  C   LIG A   1      -2.108  -3.632   1.711  0.00  0.00    +0.009 C 
ATOM      8  C   LIG A   1      -0.952  -2.972   1.133  0.00  0.00    +0.005 C 
ATOM      9  C   LIG A   1      -1.000  -1.723   0.615  0.00  0.00    -0.034 C 
ATOM     10  C   LIG A   1       0.088  -1.136  -0.230  0.00  0.00    -0.038 C 
ATOM     11  C   LIG A   1       1.148  -1.826  -0.754  0.00  0.00    -0.068 C 
ATOM     12  C   LIG A   1       1.292  -3.330  -0.862  0.00  0.00    +0.039 C 
ATOM     13  C   LIG A   1       2.386  -1.164  -1.365  0.00  0.00    +0.037 C 
ATOM     14  C   LIG A   1       2.497   0.382  -1.357  0.00  0.00    -0.022 C 
ATOM     15  C   LIG A   1       3.878   0.805  -0.794  0.00  0.00    +0.039 C 
ATOM     16  C   LIG A   1       4.061   2.327  -0.749  0.00  0.00    +0.132 C 
ATOM     17  C   LIG A   1       2.929   3.058   0.018  0.00  0.00    +0.091 C 
ATOM     18  C   LIG A   1       3.109   2.925   1.547  0.00  0.00    +0.025 C 
ATOM     19  C   LIG A   1       1.512   2.526  -0.375  0.00  0.00    +0.025 C 
ATOM     20  C   LIG A   1       2.465   0.881  -2.831  0.00  0.00    +0.012 C 
ATOM     21  C   LIG A   1       1.420   0.985  -0.408  0.00  0.00    +0.007 C 
ATOM     22  C   LIG A   1      -0.013   0.368  -0.620  0.00  0.00    -0.003 C 
ATOM     23  C   LIG A   1      -0.490   0.448  -2.099  0.00  0.00    +0.016 C 
ATOM     24  C   LIG A   1      -1.052   1.161   0.204  0.00  0.00    +0.013 C 
ATOM     25  C   LIG A   1      -2.381   0.428   0.323  0.00  0.00    +0.017 C 
ATOM     26  C   LIG A   1      -2.223  -0.893   1.093  0.00  0.00    +0.019 C 
ATOM     27  C   LIG A   1      -2.004  -0.498   2.595  0.00  0.00    +0.021 C 
ATOM     28  C   LIG A   1      -3.502  -1.769   1.050  0.00  0.00    -0.026 C 
ATOM     29  C   LIG A   1      -4.704  -1.375   0.593  0.00  0.00    +0.059 C 
ENDROOT
BRANCH   3  30
ATOM     30  O   LIG A   1      -6.909  -4.258   1.676  0.00  0.00    -0.503 OA
ATOM     31  H   LIG A   1      -7.601  -3.765   1.186  0.00  0.00    +0.292 HD
ENDBRANCH   3  30
BRANCH  16  32
ATOM     32  O   LIG A   1       5.333   2.589  -0.154  0.00  0.00    -0.391 OA
ATOM     33  H   LIG A   1       6.021   2.243  -0.749  0.00  0.00    +0.210 HD
ENDBRANCH  16  32
BRANCH  17  34
ATOM     34  C   LIG A   1       3.055   4.546  -0.360  0.00  0.00    +0.315 C 
ATOM     35  O   LIG A   1       3.648   5.395   0.279  0.00  0.00    -0.250 OA
BRANCH  34  36
ATOM     36  O   LIG A   1       2.472   4.772  -1.577  0.00  0.00    -0.468 OA
ATOM     37  C   LIG A   1       2.683   6.070  -2.132  0.00  0.00    +0.280 C 
ENDBRANCH  34  36
ENDBRANCH  17  34
TORSDOF 4
