REMARK  Name = NuBBE_1369
REMARK  15 active torsions:
REMARK  status: ('A' for Active; 'I' for Inactive)
REMARK    1  A    between atoms: C_7  and  C_27
REMARK    2  A    between atoms: C_8  and  C_10
REMARK    3  A    between atoms: C_10  and  C_11
REMARK    4  A    between atoms: C_11  and  O_12
REMARK    5  A    between atoms: O_12  and  C_13
REMARK    6  A    between atoms: C_15  and  C_16
REMARK    7  A    between atoms: C_15  and  C_25
REMARK    8  A    between atoms: C_16  and  O_18
REMARK    9  A    between atoms: C_16  and  C_22
REMARK   10  A    between atoms: O_18  and  C_19
REMARK   11  A    between atoms: C_19  and  C_20
REMARK   12  A    between atoms: C_22  and  C_23
REMARK   13  A    between atoms: C_28  and  O_29
REMARK   14  A    between atoms: C_33  and  C_34
REMARK   15  A    between atoms: C_35  and  C_37
REMARK                            x       y       z     vdW  Elec       q    Type
REMARK                         _______ _______ _______ _____ _____    ______ ____
ROOT
ATOM      1  O   LIG A   1      -5.965   2.785   1.126  0.00  0.00    -0.246 OA
ATOM      2  C   LIG A   1      -5.137   2.308   0.360  0.00  0.00    +0.333 C 
ATOM      3  C   LIG A   1      -4.080   1.417   0.870  0.00  0.00    +0.099 C 
ATOM      4  C   LIG A   1      -3.075   0.998   0.090  0.00  0.00    +0.011 C 
ATOM      5  C   LIG A   1      -1.879   0.333   0.582  0.00  0.00    +0.128 C 
ATOM      6  C   LIG A   1      -0.970  -0.199  -0.237  0.00  0.00    -0.015 C 
ATOM      7  C   LIG A   1       0.382  -0.168   0.433  0.00  0.00    +0.062 C 
ATOM      8  C   LIG A   1       1.079  -1.566   0.523  0.00  0.00    +0.026 C 
ATOM      9  C   LIG A   1       1.263  -1.893   2.097  0.00  0.00    +0.022 C 
ATOM     10  C   LIG A   1       0.817  -3.358   2.342  0.00  0.00    +0.015 C 
ATOM     11  C   LIG A   1       0.160  -1.007   2.752  0.00  0.00    +0.090 C 
ATOM     12  C   LIG A   1       1.180   0.970  -0.225  0.00  0.00    +0.023 C 
ATOM     13  C   LIG A   1      -0.054   0.220   1.878  0.00  0.00    +0.220 C 
ATOM     14  O   LIG A   1      -1.450   0.601   1.869  0.00  0.00    -0.460 OA
ATOM     15  C   LIG A   1      -1.175  -0.413  -1.700  0.00  0.00    +0.036 C 
ATOM     16  C   LIG A   1      -2.546   0.091  -2.163  0.00  0.00    +0.020 C 
ATOM     17  C   LIG A   1      -3.033   1.357  -1.398  0.00  0.00    +0.038 C 
ATOM     18  C   LIG A   1      -2.065   2.560  -1.552  0.00  0.00    +0.020 C 
ATOM     19  C   LIG A   1      -4.462   1.734  -1.883  0.00  0.00    +0.220 C 
ATOM     20  O   LIG A   1      -5.093   2.641  -0.952  0.00  0.00    -0.453 OA
ENDROOT
BRANCH  19  21
ATOM     21  C   LIG A   1      -4.498   2.320  -3.283  0.00  0.00    +0.031 A 
ATOM     22  C   LIG A   1      -4.413   3.652  -3.650  0.00  0.00    +0.202 A 
ATOM     23  O   LIG A   1      -4.481   3.799  -4.997  0.00  0.00    -0.471 OA
ATOM     24  C   LIG A   1      -4.618   2.557  -5.522  0.00  0.00    +0.195 A 
ATOM     25  C   LIG A   1      -4.629   1.615  -4.520  0.00  0.00    +0.048 A 
ENDBRANCH  19  21
BRANCH  13  26
ATOM     26  O   LIG A   1       0.676   1.320   2.398  0.00  0.00    -0.355 OA
ATOM     27  H   LIG A   1       0.237   1.528   3.241  0.00  0.00    +0.214 HD
ENDBRANCH  13  26
BRANCH   8  28
ATOM     28  C   LIG A   1       2.311  -1.808  -0.383  0.00  0.00    +0.126 C 
BRANCH  28  29
ATOM     29  C   LIG A   1       2.092  -1.853  -1.926  0.00  0.00    +0.307 C 
ATOM     30  O   LIG A   1       1.314  -2.575  -2.503  0.00  0.00    -0.251 OA
BRANCH  29  31
ATOM     31  O   LIG A   1       3.036  -1.039  -2.518  0.00  0.00    -0.468 OA
ATOM     32  C   LIG A   1       3.264  -1.218  -3.926  0.00  0.00    +0.280 C 
ENDBRANCH  29  31
ENDBRANCH  28  29
ENDBRANCH   8  28
BRANCH   9  33
ATOM     33  C   LIG A   1       2.715  -1.664   2.741  0.00  0.00    +0.248 C 
BRANCH  33  34
ATOM     34  C   LIG A   1       2.820  -2.058   4.259  0.00  0.00    +0.171 C 
ATOM     35  C   LIG A   1       3.943  -2.984   4.705  0.00  0.00    +0.090 C 
ATOM     36  O   LIG A   1       2.073  -1.567   5.109  0.00  0.00    -0.294 OA
ENDBRANCH  33  34
BRANCH  33  37
ATOM     37  O   LIG A   1       3.130  -0.317   2.463  0.00  0.00    -0.453 OA
BRANCH  37  38
ATOM     38  C   LIG A   1       4.218   0.188   3.099  0.00  0.00    +0.305 C 
ATOM     39  C   LIG A   1       4.801   1.288   2.288  0.00  0.00    +0.136 C 
ATOM     40  O   LIG A   1       4.752  -0.246   4.120  0.00  0.00    -0.251 OA
ENDBRANCH  37  38
ENDBRANCH  33  37
ENDBRANCH   9  33
TORSDOF 9
