REMARK  Name = NuBBE_1682
REMARK  14 active torsions:
REMARK  status: ('A' for Active; 'I' for Inactive)
REMARK    1  A    between atoms: C_1  and  C_2
REMARK    2  A    between atoms: C_2  and  C_3
REMARK    3  A    between atoms: C_3  and  C_4
REMARK    4  A    between atoms: C_5  and  C_6
REMARK    5  A    between atoms: C_6  and  C_7
REMARK    6  A    between atoms: C_8  and  C_9
REMARK    7  A    between atoms: C_9  and  C_10
REMARK    8  A    between atoms: C_10  and  C_11
REMARK    9  A    between atoms: C_11  and  C_12
REMARK   10  A    between atoms: C_12  and  C_13
REMARK   11  A    between atoms: C_13  and  C_14
REMARK   12  A    between atoms: C_14  and  C_15
REMARK   13  A    between atoms: C_15  and  C_16
REMARK   14  A    between atoms: C_18  and  O_19
REMARK                            x       y       z     vdW  Elec       q    Type
REMARK                         _______ _______ _______ _____ _____    ______ ____
ROOT
ATOM      1  C   LIG A   1      -1.667   1.066  -0.830  0.00  0.00    +0.000 C 
ENDROOT
BRANCH   1   2
ATOM      2  C   LIG A   1      -0.599   1.325  -1.868  0.00  0.00    +0.000 C 
BRANCH   2   3
ATOM      3  C   LIG A   1       0.587   2.150  -1.446  0.00  0.00    +0.004 C 
BRANCH   3   4
ATOM      4  C   LIG A   1       1.455   1.481  -0.383  0.00  0.00    +0.027 C 
BRANCH   4   6
ATOM      5  C   LIG A   1       2.545  -0.774   0.001  0.00  0.00    -0.027 C 
ATOM      6  C   LIG A   1       1.890   0.101  -0.772  0.00  0.00    -0.031 C 
BRANCH   5   7
ATOM      7  C   LIG A   1       2.994  -0.607   1.429  0.00  0.00    +0.054 C 
BRANCH   7   9
ATOM      8  C   LIG A   1       4.726  -2.375   2.200  0.00  0.00    -0.031 C 
ATOM      9  C   LIG A   1       3.483  -1.934   1.940  0.00  0.00    -0.027 C 
BRANCH   8  10
ATOM     10  C   LIG A   1       6.058  -1.673   2.155  0.00  0.00    +0.026 C 
BRANCH  10  12
ATOM     11  C   LIG A   1       5.863  -0.194   0.069  0.00  0.00    +0.004 C 
ATOM     12  C   LIG A   1       6.630  -1.284   0.786  0.00  0.00    +0.001 C 
ENDBRANCH  10  12
ENDBRANCH   8  10
ENDBRANCH   7   9
ENDBRANCH   5   7
ENDBRANCH   4   6
ENDBRANCH   3   4
ENDBRANCH   2   3
ENDBRANCH   1   2
BRANCH   1  13
ATOM     13  C   LIG A   1      -1.525   0.357   0.515  0.00  0.00    +0.000 C 
BRANCH  13  14
ATOM     14  C   LIG A   1      -2.801   0.249   1.414  0.00  0.00    +0.005 C 
BRANCH  14  15
ATOM     15  C   LIG A   1      -4.024  -0.662   1.067  0.00  0.00    +0.035 C 
BRANCH  15  16
ATOM     16  C   LIG A   1      -5.058  -0.204   0.065  0.00  0.00    -0.044 A 
ATOM     17  C   LIG A   1      -4.663   0.402  -1.091  0.00  0.00    +0.049 A 
ATOM     18  C   LIG A   1      -5.458   0.849  -2.140  0.00  0.00    +0.117 A 
ATOM     19  C   LIG A   1      -6.807   0.589  -2.075  0.00  0.00    +0.045 A 
ATOM     20  C   LIG A   1      -7.289  -0.059  -0.933  0.00  0.00    +0.004 A 
ATOM     21  C   LIG A   1      -6.435  -0.444   0.129  0.00  0.00    +0.004 A 
BRANCH  18  22
ATOM     22  O   LIG A   1      -4.913   1.494  -3.204  0.00  0.00    -0.507 OA
ATOM     23  H   LIG A   1      -4.003   1.765  -2.985  0.00  0.00    +0.292 HD
ENDBRANCH  18  22
ENDBRANCH  15  16
ENDBRANCH  14  15
ENDBRANCH  13  14
ENDBRANCH   1  13
TORSDOF 13
