REMARK  Name = NuBBE_2018
REMARK  9 active torsions:
REMARK  status: ('A' for Active; 'I' for Inactive)
REMARK    1  A    between atoms: C_4  and  O_5
REMARK    2  A    between atoms: C_7  and  O_8
REMARK    3  A    between atoms: C_9  and  O_10
REMARK    4  A    between atoms: O_10  and  C_11
REMARK    5  A    between atoms: C_15  and  C_16
REMARK    6  A    between atoms: C_18  and  O_19
REMARK    7  A    between atoms: O_19  and  C_20
REMARK    8  A    between atoms: C_21  and  O_22
REMARK    9  A    between atoms: O_22  and  C_23
REMARK                            x       y       z     vdW  Elec       q    Type
REMARK                         _______ _______ _______ _____ _____    ______ ____
ROOT
ATOM      1  O   LIG A   1      -1.854  -1.371  -0.131  0.00  0.00    -0.286 OA
ATOM      2  C   LIG A   1      -0.622  -1.331  -0.140  0.00  0.00    +0.204 A 
ATOM      3  C   LIG A   1       0.119  -2.601  -0.154  0.00  0.00    +0.110 A 
ATOM      4  C   LIG A   1      -0.549  -3.828  -0.163  0.00  0.00    +0.135 A 
ATOM      5  C   LIG A   1       0.168  -5.017  -0.170  0.00  0.00    +0.095 A 
ATOM      6  C   LIG A   1       1.566  -4.990  -0.172  0.00  0.00    +0.166 A 
ATOM      7  C   LIG A   1       2.259  -3.769  -0.172  0.00  0.00    +0.205 A 
ATOM      8  C   LIG A   1       1.512  -2.573  -0.157  0.00  0.00    +0.187 A 
ATOM      9  O   LIG A   1       2.205  -1.385  -0.143  0.00  0.00    -0.458 OA
ATOM     10  C   LIG A   1       1.495  -0.210  -0.136  0.00  0.00    +0.208 A 
ATOM     11  C   LIG A   1       0.159  -0.062  -0.130  0.00  0.00    +0.065 A 
ENDROOT
BRANCH  11  12
ATOM     12  C   LIG A   1      -0.474   1.281  -0.146  0.00  0.00    -0.008 A 
ATOM     13  C   LIG A   1       0.140   2.397   0.445  0.00  0.00    +0.058 A 
ATOM     14  C   LIG A   1      -0.449   3.674   0.426  0.00  0.00    +0.162 A 
ATOM     15  C   LIG A   1      -1.684   3.862  -0.210  0.00  0.00    +0.162 A 
ATOM     16  C   LIG A   1      -2.305   2.757  -0.800  0.00  0.00    +0.050 A 
ATOM     17  C   LIG A   1      -1.713   1.489  -0.761  0.00  0.00    +0.012 A 
BRANCH  14  18
ATOM     18  O   LIG A   1       0.329   4.626   1.032  0.00  0.00    -0.491 OA
ATOM     19  C   LIG A   1      -0.346   5.708   1.660  0.00  0.00    +0.277 C 
ENDBRANCH  14  18
BRANCH  15  20
ATOM     20  O   LIG A   1      -2.191   5.130  -0.314  0.00  0.00    -0.491 OA
ATOM     21  C   LIG A   1      -3.612   5.231  -0.365  0.00  0.00    +0.277 C 
ENDBRANCH  15  20
ENDBRANCH  11  12
BRANCH   4  22
ATOM     22  O   LIG A   1      -1.913  -3.941  -0.163  0.00  0.00    -0.506 OA
ATOM     23  H   LIG A   1      -2.293  -3.032  -0.152  0.00  0.00    +0.292 HD
ENDBRANCH   4  22
BRANCH   6  24
ATOM     24  O   LIG A   1       2.224  -6.190  -0.173  0.00  0.00    -0.503 OA
ATOM     25  H   LIG A   1       1.575  -6.914  -0.190  0.00  0.00    +0.292 HD
ENDBRANCH   6  24
BRANCH   7  26
ATOM     26  O   LIG A   1       3.618  -3.584  -0.190  0.00  0.00    -0.488 OA
ATOM     27  C   LIG A   1       4.466  -4.721  -0.213  0.00  0.00    +0.277 C 
ENDBRANCH   7  26
TORSDOF 6
