REMARK  Name = NuBBE_2438
REMARK  4 active torsions:
REMARK  status: ('A' for Active; 'I' for Inactive)
REMARK    1  A    between atoms: C_3  and  O_4
REMARK    2  A    between atoms: O_4  and  C_5
REMARK    3  A    between atoms: C_17  and  C_18
REMARK    4  A    between atoms: C_17  and  C_19
REMARK                            x       y       z     vdW  Elec       q    Type
REMARK                         _______ _______ _______ _____ _____    ______ ____
ROOT
ATOM      1  O   LIG A   1       1.473  -0.880   0.220  0.00  0.00    -0.478 OA
ATOM      2  C   LIG A   1       0.343  -0.108   0.184  0.00  0.00    +0.174 A 
ATOM      3  C   LIG A   1      -0.887  -0.777   0.248  0.00  0.00    +0.205 A 
ATOM      4  C   LIG A   1      -2.073  -0.036   0.234  0.00  0.00    +0.184 A 
ATOM      5  O   LIG A   1      -3.304  -0.719   0.346  0.00  0.00    -0.418 OA
ATOM      6  C   LIG A   1      -4.518  -0.050   0.324  0.00  0.00    +0.337 A 
ATOM      7  O   LIG A   1      -5.593  -0.634   0.392  0.00  0.00    -0.245 OA
ATOM      8  C   LIG A   1      -4.465   1.416   0.206  0.00  0.00    +0.092 A 
ATOM      9  C   LIG A   1      -3.312   2.085   0.114  0.00  0.00    +0.019 A 
ATOM     10  C   LIG A   1      -2.054   1.355   0.130  0.00  0.00    +0.022 A 
ATOM     11  C   LIG A   1      -0.825   2.015   0.052  0.00  0.00    +0.023 A 
ATOM     12  C   LIG A   1       0.374   1.288   0.083  0.00  0.00    +0.021 A 
ATOM     13  C   LIG A   1       1.649   1.985   0.019  0.00  0.00    +0.011 C 
ATOM     14  C   LIG A   1       2.765   1.251   0.026  0.00  0.00    +0.020 C 
ATOM     15  C   LIG A   1       2.766  -0.259   0.095  0.00  0.00    +0.124 C 
ATOM     16  C   LIG A   1       3.399  -0.822  -1.183  0.00  0.00    +0.060 C 
ATOM     17  C   LIG A   1       3.578  -0.709   1.315  0.00  0.00    +0.060 C 
ENDROOT
BRANCH   3  18
ATOM     18  O   LIG A   1      -0.879  -2.141   0.400  0.00  0.00    -0.488 OA
ATOM     19  C   LIG A   1      -1.467  -2.810  -0.714  0.00  0.00    +0.277 C 
ENDBRANCH   3  18
TORSDOF 1
