@<TRIPOS>MOLECULE
NuBBE_1593
 42 45 0 0 0
SMALL
GASTEIGER

@<TRIPOS>ATOM
      1 C          -2.2210   -0.4249   -3.0418 C.3     1  LIG1        0.0791
      2 O          -1.4212   -0.1565   -1.8992 O.3     1  LIG1       -0.4885
      3 C          -1.0039   -1.1929   -1.0991 C.ar    1  LIG1        0.2051
      4 C          -1.2829   -2.5599   -1.2670 C.ar    1  LIG1        0.1687
      5 O          -2.0211   -2.9833   -2.3416 O.3     1  LIG1       -0.4912
      6 C          -2.8357   -4.1373   -2.1482 C.3     1  LIG1        0.0790
      7 C          -0.7146   -3.4870   -0.3832 C.ar    1  LIG1        0.0264
      8 C           0.0754   -3.0889    0.7001 C.ar    1  LIG1        0.1381
      9 O           0.6736   -4.0056    1.5229 O.3     1  LIG1       -0.4942
     10 C          -0.0692   -5.1897    1.7967 C.3     1  LIG1        0.0788
     11 C           0.3434   -1.7272    0.8822 C.ar    1  LIG1        0.1094
     12 C          -0.1933   -0.7905   -0.0099 C.ar    1  LIG1        0.1878
     13 O           0.0458    0.5648    0.1218 O.2     1  LIG1       -0.4507
     14 C           0.9220    1.0132    1.0980 C.ar    1  LIG1        0.1395
     15 C           1.1910    2.4716    1.0581 C.ar    1  LIG1        0.0211
     16 C           1.1110    3.1548   -0.1684 C.ar    1  LIG1       -0.0055
     17 C           1.3545    4.5131   -0.1883 C.ar    1  LIG1        0.1669
     18 C           1.6686    5.2122    0.9511 C.ar    1  LIG1        0.1663
     19 O           1.8660    6.5355    0.7115 O.3     1  LIG1       -0.4526
     20 C           1.6424    6.5888   -0.7131 C.3     1  LIG1        0.2332
     21 O           1.3165    5.3083   -1.2911 O.3     1  LIG1       -0.4526
     22 C           1.7552    4.5915    2.1756 C.ar    1  LIG1       -0.0155
     23 C           1.5091    3.2124    2.2260 C.ar    1  LIG1       -0.0474
     24 C           1.5036    0.2078    1.9926 C.ar    1  LIG1        0.0288
     25 C           1.1966   -1.2320    1.9892 C.ar    1  LIG1        0.1967
     26 O           1.6453   -1.9281    2.8829 O.2     1  LIG1       -0.2869
     27 H          -2.3323    0.5118   -3.5973 H       1  LIG1        0.0660
     28 H          -3.2232   -0.7527   -2.7466 H       1  LIG1        0.0660
     29 H          -1.7408   -1.1315   -3.7254 H       1  LIG1        0.0660
     30 H          -3.4150   -4.2905   -3.0636 H       1  LIG1        0.0660
     31 H          -3.5370   -3.9859   -1.3212 H       1  LIG1        0.0660
     32 H          -2.2414   -5.0435   -1.9989 H       1  LIG1        0.0660
     33 H          -0.8323   -4.5439   -0.5808 H       1  LIG1        0.0692
     34 H           0.4751   -5.7603    2.5545 H       1  LIG1        0.0660
     35 H          -0.1481   -5.8305    0.9132 H       1  LIG1        0.0660
     36 H          -1.0610   -4.9500    2.1950 H       1  LIG1        0.0660
     37 H           0.8673    2.6393   -1.0922 H       1  LIG1        0.0662
     38 H           2.5495    6.9697   -1.1961 H       1  LIG1        0.1166
     39 H           0.8185    7.2834   -0.9139 H       1  LIG1        0.1166
     40 H           1.9996    5.1534    3.0704 H       1  LIG1        0.0655
     41 H           1.5582    2.7250    3.1979 H       1  LIG1        0.0626
     42 H           2.2058    0.5360    2.7473 H       1  LIG1        0.0693
@<TRIPOS>BOND
     1     1     2    1
     2     2     3    1
     3     3     4   ar
     4     4     5    1
     5     5     6    1
     6     4     7   ar
     7     7     8   ar
     8     8     9    1
     9     9    10    1
    10     8    11   ar
    11    11    12   ar
    12     3    12   ar
    13    12    13   ar
    14    13    14   ar
    15    14    15    1
    16    15    16   ar
    17    16    17   ar
    18    17    18   ar
    19    18    19    1
    20    19    20    1
    21    20    21    1
    22    17    21    1
    23    18    22   ar
    24    22    23   ar
    25    15    23   ar
    26    14    24   ar
    27    24    25   ar
    28    11    25   ar
    29    25    26    2
    30     1    27    1
    31     1    28    1
    32     1    29    1
    33     6    30    1
    34     6    31    1
    35     6    32    1
    36     7    33    1
    37    10    34    1
    38    10    35    1
    39    10    36    1
    40    16    37    1
    41    20    38    1
    42    20    39    1
    43    22    40    1
    44    23    41    1
    45    24    42    1
