REMARK  Name = NuBBE_342
REMARK  11 active torsions:
REMARK  status: ('A' for Active; 'I' for Inactive)
REMARK    1  A    between atoms: O_1  and  C_2
REMARK    2  A    between atoms: C_3  and  C_4
REMARK    3  A    between atoms: C_4  and  C_5
REMARK    4  A    between atoms: C_6  and  C_7
REMARK    5  A    between atoms: C_6  and  C_8
REMARK    6  A    between atoms: C_8  and  C_9
REMARK    7  A    between atoms: C_9  and  C_10
REMARK    8  A    between atoms: C_11  and  C_12
REMARK    9  A    between atoms: C_11  and  C_13
REMARK   10  A    between atoms: C_16  and  C_17
REMARK   11  A    between atoms: C_17  and  O_18
REMARK                            x       y       z     vdW  Elec       q    Type
REMARK                         _______ _______ _______ _____ _____    ______ ____
ROOT
ATOM      1  C   LIG A   1       3.331  -0.674  -1.452  0.00  0.00    +0.128 A 
ATOM      2  C   LIG A   1       2.056  -0.173  -1.151  0.00  0.00    +0.064 A 
ATOM      3  C   LIG A   1       1.956   1.042  -0.461  0.00  0.00    +0.030 A 
ATOM      4  C   LIG A   1       3.102   1.766  -0.117  0.00  0.00    +0.060 A 
ATOM      5  C   LIG A   1       4.366   1.293  -0.479  0.00  0.00    +0.018 A 
ATOM      6  C   LIG A   1       4.478   0.065  -1.137  0.00  0.00    +0.047 A 
ENDROOT
BRANCH   1   7
ATOM      7  O   LIG A   1       3.543  -1.882  -2.058  0.00  0.00    -0.506 OA
ATOM      8  H   LIG A   1       2.701  -2.385  -2.054  0.00  0.00    +0.292 HD
ENDBRANCH   1   7
BRANCH   2   9
ATOM      9  C   LIG A   1       0.806  -0.904  -1.518  0.00  0.00    +0.190 C 
ATOM     10  O   LIG A   1       0.824  -2.124  -1.634  0.00  0.00    -0.287 OA
BRANCH   9  11
ATOM     11  C   LIG A   1      -0.398  -0.056  -1.801  0.00  0.00    +0.050 C 
ATOM     12  C   LIG A   1      -1.707  -0.368  -1.727  0.00  0.00    -0.069 C 
ATOM     13  C   LIG A   1      -2.730   0.694  -2.070  0.00  0.00    +0.039 C 
BRANCH  12  14
ATOM     14  C   LIG A   1      -2.287  -1.711  -1.332  0.00  0.00    +0.034 C 
BRANCH  14  15
ATOM     15  C   LIG A   1      -2.033  -2.161   0.118  0.00  0.00    +0.031 C 
BRANCH  15  16
ATOM     16  C   LIG A   1      -2.678  -1.276   1.153  0.00  0.00    -0.028 C 
ATOM     17  C   LIG A   1      -2.102  -0.582   2.154  0.00  0.00    -0.080 C 
ATOM     18  C   LIG A   1      -0.631  -0.520   2.468  0.00  0.00    +0.038 C 
ATOM     19  C   LIG A   1      -2.951   0.233   3.096  0.00  0.00    +0.038 C 
ENDBRANCH  15  16
ENDBRANCH  14  15
ENDBRANCH  12  14
ENDBRANCH   9  11
ENDBRANCH   2   9
BRANCH   4  20
ATOM     20  C   LIG A   1       2.969   3.026   0.634  0.00  0.00    +0.337 C 
ATOM     21  O   LIG A   1       3.752   3.966   0.618  0.00  0.00    -0.245 OA
BRANCH  20  22
ATOM     22  O   LIG A   1       1.880   3.020   1.415  0.00  0.00    -0.477 OA
ATOM     23  H   LIG A   1       1.907   3.865   1.907  0.00  0.00    +0.295 HD
ENDBRANCH  20  22
ENDBRANCH   4  20
TORSDOF 8
