@<TRIPOS>MOLECULE
NuBBE_112
 65 66 0 0 0
SMALL
GASTEIGER

@<TRIPOS>ATOM
      1 O           4.4060   -0.4367   -2.7997 O.2     1  LIG1       -0.2452
      2 C           4.0092    0.1111   -1.8013 C.2     1  LIG1        0.3381
      3 C           2.6207    0.0411   -1.2474 C.2     1  LIG1        0.0749
      4 C           2.2945    1.0098   -0.3612 C.2     1  LIG1        0.0981
      5 O           1.1450    1.1079    0.3690 O.2     1  LIG1       -0.4701
      6 C           0.1112    0.1610    0.0853 C.3     1  LIG1        0.2102
      7 H          -0.4706    0.0624    0.9971 H       1  LIG1        0.1060
      8 C           0.6907   -1.2387   -0.2873 C.3     1  LIG1        0.0659
      9 H          -0.1302   -1.9082   -0.5777 H       1  LIG1        0.0403
     10 C           1.5920   -1.0233   -1.5791 C.3     1  LIG1        0.0157
     11 H           0.9456   -0.5342   -2.3277 H       1  LIG1        0.0363
     12 C           1.9393   -2.3670   -2.2660 C.3     1  LIG1        0.0525
     13 C           2.6672   -2.2934   -3.5946 C.2     1  LIG1        0.3053
     14 O           3.5154   -3.3260   -3.7439 O.3     1  LIG1       -0.4806
     15 O           2.5126   -1.4634   -4.4733 O.2     1  LIG1       -0.2510
     16 C           1.4005   -1.8588    0.9970 C.3     1  LIG1        0.1093
     17 H           2.1935   -1.1823    1.3377 H       1  LIG1        0.0736
     18 C           0.4047   -2.0792    2.1578 C.3     1  LIG1       -0.0272
     19 O           2.0307   -3.1296    0.6755 O.3     1  LIG1       -0.4613
     20 C           2.7539   -3.7633    1.6512 C.2     1  LIG1        0.3042
     21 C           3.4216   -4.9884    1.1056 C.3     1  LIG1        0.0332
     22 O           2.8737   -3.4025    2.8138 O.2     1  LIG1       -0.2512
     23 O          -0.7971    0.6648   -0.9014 O.3     1  LIG1       -0.3094
     24 C          -1.4043    1.9059   -0.4657 C.3     1  LIG1        0.1919
     25 H          -0.6007    2.6431   -0.3444 H       1  LIG1        0.0939
     26 C          -2.3853    2.4007   -1.5647 C.3     1  LIG1        0.1343
     27 H          -2.4706    1.6557   -2.3626 H       1  LIG1        0.0671
     28 C          -3.7799    2.7204   -0.9951 C.3     1  LIG1        0.1141
     29 H          -4.3348    3.2951   -1.7474 H       1  LIG1        0.0648
     30 C          -3.6285    3.5807    0.2711 C.3     1  LIG1        0.1129
     31 H          -4.6022    3.8103    0.7180 H       1  LIG1        0.0647
     32 C          -2.6896    2.9167    1.3070 C.3     1  LIG1        0.1240
     33 H          -1.8972    3.6152    1.6061 H       1  LIG1        0.0658
     34 O          -2.0610    1.7292    0.7923 O.3     1  LIG1       -0.3393
     35 C          -3.4517    2.5083    2.5841 C.3     1  LIG1        0.1211
     36 O          -4.4874    1.5743    2.2294 O.3     1  LIG1       -0.4621
     37 C          -4.4840    0.3993    2.9110 C.2     1  LIG1        0.3040
     38 C          -5.1758   -0.6735    2.1259 C.3     1  LIG1        0.0332
     39 O          -3.9533    0.2080    3.9976 O.2     1  LIG1       -0.2512
     40 O          -3.0482    4.8489   -0.1084 O.3     1  LIG1       -0.3864
     41 O          -4.5134    1.5246   -0.7421 O.3     1  LIG1       -0.3864
     42 O          -1.8592    3.5959   -2.1875 O.3     1  LIG1       -0.3841
     43 O           4.7964    0.7793   -0.9147 O.3     1  LIG1       -0.4646
     44 C           6.2043    0.6014   -1.0458 C.3     1  LIG1        0.0820
     45 H           2.9410    1.8291   -0.0732 H       1  LIG1        0.1029
     46 H           2.5086   -3.0261   -1.6104 H       1  LIG1        0.0384
     47 H           0.9998   -2.8846   -2.5085 H       1  LIG1        0.0384
     48 H           4.0348   -3.0995   -4.5438 H       1  LIG1        0.2951
     49 H           0.9324   -2.2226    3.1059 H       1  LIG1        0.0265
     50 H          -0.2017   -2.9748    1.9928 H       1  LIG1        0.0265
     51 H          -0.2592   -1.2391    2.3531 H       1  LIG1        0.0265
     52 H           4.0970   -4.7042    0.2961 H       1  LIG1        0.0342
     53 H           2.6757   -5.7088    0.7631 H       1  LIG1        0.0342
     54 H           4.0172   -5.4582    1.8970 H       1  LIG1        0.0342
     55 H          -2.7418    2.0698    3.2947 H       1  LIG1        0.0724
     56 H          -3.9184    3.3801    3.0557 H       1  LIG1        0.0724
     57 H          -5.5720   -0.2798    1.1859 H       1  LIG1        0.0342
     58 H          -6.0022   -1.0876    2.7072 H       1  LIG1        0.0342
     59 H          -4.4469   -1.4532    1.8875 H       1  LIG1        0.0342
     60 H          -3.7520    5.3724   -0.5385 H       1  LIG1        0.2100
     61 H          -5.4547    1.7048   -0.9030 H       1  LIG1        0.2100
     62 H          -1.8747    4.2996   -1.5043 H       1  LIG1        0.2101
     63 H           6.6535    1.5079   -1.4585 H       1  LIG1        0.0661
     64 H           6.4670   -0.2690   -1.6539 H       1  LIG1        0.0661
     65 H           6.5930    0.4413   -0.0384 H       1  LIG1        0.0661
@<TRIPOS>BOND
     1     1     2    2
     2     2     3    1
     3     3     4    2
     4     4     5    1
     5     5     6    1
     6     6     8    1
     7     8    10    1
     8     3    10    1
     9    12    13    1
    10    13    14    1
    11    13    15    2
    12    16    17    1
    13    16    18    1
    14    16    19    1
    15    19    20    1
    16    20    21    1
    17    20    22    2
    18    23    24    1
    19    24    25    1
    20    24    26    1
    21    26    28    1
    22    28    30    1
    23    30    31    1
    24    30    32    1
    25    32    34    1
    26    24    34    1
    27    35    36    1
    28    36    37    1
    29    37    38    1
    30    37    39    2
    31    30    40    1
    32     2    43    1
    33    43    44    1
    34    10    12    1
    35    10    11    1
    36     6    23    1
    37     6     7    1
    38     8    16    1
    39     8     9    1
    40    26    42    1
    41    26    27    1
    42    28    41    1
    43    28    29    1
    44    32    35    1
    45    32    33    1
    46     4    45    1
    47    12    46    1
    48    12    47    1
    49    14    48    1
    50    18    49    1
    51    18    50    1
    52    18    51    1
    53    21    52    1
    54    21    53    1
    55    21    54    1
    56    35    55    1
    57    35    56    1
    58    38    57    1
    59    38    58    1
    60    38    59    1
    61    40    60    1
    62    41    61    1
    63    42    62    1
    64    44    63    1
    65    44    64    1
    66    44    65    1
