@<TRIPOS>MOLECULE
NuBBE_359
 68 73 0 0 0
SMALL
GASTEIGER

@<TRIPOS>ATOM
      1 O          -4.2250   -2.0605   -1.9229 O.3     1  LIG1       -0.5065
      2 C          -2.9016   -2.0820   -1.5975 C.ar    1  LIG1        0.1238
      3 C          -2.3270   -3.1735   -0.9572 C.ar    1  LIG1        0.0218
      4 C          -0.9680   -3.1324   -0.6442 C.ar    1  LIG1        0.1276
      5 O          -0.3732   -4.2062   -0.0392 O.3     1  LIG1       -0.5062
      6 C          -0.1794   -2.0113   -0.9487 C.ar    1  LIG1        0.0461
      7 C           1.2897   -1.9581   -0.5724 C.3     1  LIG1        0.0528
      8 H           1.6715   -2.9277   -0.9164 H       1  LIG1        0.0429
      9 C           1.6121   -1.8283    0.9248 C.ar    1  LIG1        0.0463
     10 C           2.7865   -2.4019    1.4496 C.ar    1  LIG1        0.1277
     11 O           3.6870   -3.1140    0.7046 O.3     1  LIG1       -0.5062
     12 C           3.1436   -2.2571    2.7910 C.ar    1  LIG1        0.0221
     13 C           2.3272   -1.5344    3.6484 C.ar    1  LIG1        0.1271
     14 O           2.6682   -1.3846    4.9626 O.3     1  LIG1       -0.5063
     15 C           1.1568   -0.9343    3.1850 C.ar    1  LIG1        0.0387
     16 C           0.8035   -1.0949    1.8284 C.ar    1  LIG1        0.1355
     17 O          -0.3076   -0.4641    1.3204 O.3     1  LIG1       -0.4808
     18 C          -1.3381   -0.1890    2.2831 C.3     1  LIG1        0.1513
     19 H          -1.6713   -1.1478    2.7073 H       1  LIG1        0.0811
     20 C          -2.5287    0.4320    1.5693 C.ar    1  LIG1       -0.0012
     21 C          -2.4000    1.6046    0.8037 C.ar    1  LIG1       -0.0098
     22 C          -3.5139    2.1488    0.1716 C.ar    1  LIG1        0.1586
     23 O          -3.4334    3.2949   -0.5709 O.3     1  LIG1       -0.5033
     24 C          -4.7570    1.5353    0.2806 C.ar    1  LIG1        0.1582
     25 O          -5.8432    2.0795   -0.3431 O.3     1  LIG1       -0.5033
     26 C          -4.9086    0.3725    1.0174 C.ar    1  LIG1       -0.0162
     27 C          -3.7963   -0.1776    1.6619 C.ar    1  LIG1       -0.0513
     28 C          -0.7539    0.6935    3.3983 C.3     1  LIG1        0.1004
     29 H          -1.5283    1.0298    4.0954 H       1  LIG1        0.0637
     30 O          -0.1133    1.8736    2.8779 O.3     1  LIG1       -0.3875
     31 C           0.2942   -0.1360    4.1385 C.3     1  LIG1        0.0092
     32 C           2.0223   -0.8815   -1.4044 C.3     1  LIG1        0.1074
     33 H           3.0146   -0.6748   -0.9860 H       1  LIG1        0.0643
     34 O           2.2668   -1.4157   -2.7239 O.3     1  LIG1       -0.3868
     35 C           1.1828    0.4094   -1.4553 C.3     1  LIG1        0.1518
     36 H           1.0389    0.8091   -0.4443 H       1  LIG1        0.0811
     37 C           1.8529    1.5135   -2.2700 C.ar    1  LIG1       -0.0012
     38 C           2.7789    2.3824   -1.6680 C.ar    1  LIG1       -0.0098
     39 C           3.3586    3.4005   -2.4214 C.ar    1  LIG1        0.1586
     40 O           4.2552    4.2818   -1.8816 O.3     1  LIG1       -0.5033
     41 C           3.0342    3.5612   -3.7664 C.ar    1  LIG1        0.1582
     42 O           3.6005    4.5688   -4.4928 O.3     1  LIG1       -0.5033
     43 C           2.1378    2.7073   -4.3843 C.ar    1  LIG1       -0.0162
     44 C           1.5526    1.6846   -3.6381 C.ar    1  LIG1       -0.0513
     45 O          -0.1229    0.1901   -2.0102 O.3     1  LIG1       -0.4811
     46 C          -0.7835   -0.9354   -1.6102 C.ar    1  LIG1        0.1323
     47 C          -2.1387   -0.9731   -1.9365 C.ar    1  LIG1        0.0221
     48 H          -4.6721   -2.8126   -1.5042 H       1  LIG1        0.2921
     49 H          -2.9262   -4.0425   -0.7135 H       1  LIG1        0.0691
     50 H          -1.0293   -4.9146    0.0686 H       1  LIG1        0.2921
     51 H           3.2559   -3.5138   -0.0674 H       1  LIG1        0.2921
     52 H           4.0619   -2.7174    3.1436 H       1  LIG1        0.0691
     53 H           3.5343   -1.7999    5.1126 H       1  LIG1        0.2921
     54 H          -1.4309    2.0818    0.7039 H       1  LIG1        0.0659
     55 H          -2.5083    3.5962   -0.5552 H       1  LIG1        0.2923
     56 H          -5.4867    2.8665   -0.8021 H       1  LIG1        0.2923
     57 H          -5.8825   -0.1017    1.0869 H       1  LIG1        0.0655
     58 H          -3.9294   -1.0944    2.2318 H       1  LIG1        0.0623
     59 H           0.4964    1.5667    2.1819 H       1  LIG1        0.2100
     60 H          -0.2077   -0.8433    4.8105 H       1  LIG1        0.0342
     61 H           0.9257    0.5312    4.7378 H       1  LIG1        0.0342
     62 H           1.4296   -1.3416   -3.2200 H       1  LIG1        0.2100
     63 H           3.0331    2.2616   -0.6185 H       1  LIG1        0.0659
     64 H           4.3993    4.0386   -0.9506 H       1  LIG1        0.2923
     65 H           4.1839    5.0286   -3.8575 H       1  LIG1        0.2923
     66 H           1.8915    2.8363   -5.4338 H       1  LIG1        0.0655
     67 H           0.8432    1.0235   -4.1351 H       1  LIG1        0.0623
     68 H          -2.6050   -0.1266   -2.4336 H       1  LIG1        0.0691
@<TRIPOS>BOND
     1     1     2    1
     2     2     3   ar
     3     3     4   ar
     4     4     5    1
     5     4     6   ar
     6     6     7    1
     7     7     8    1
     8     7     9    1
     9     9    10   ar
    10    10    11    1
    11    10    12   ar
    12    12    13   ar
    13    13    14    1
    14    13    15   ar
    15    15    16   ar
    16     9    16   ar
    17    16    17    1
    18    17    18    1
    19    18    19    1
    20    18    20    1
    21    20    21   ar
    22    21    22   ar
    23    22    23    1
    24    22    24   ar
    25    24    25    1
    26    24    26   ar
    27    26    27   ar
    28    20    27   ar
    29    18    28    1
    30    28    31    1
    31    15    31    1
    32     7    32    1
    33    32    35    1
    34    35    36    1
    35    35    37    1
    36    37    38   ar
    37    38    39   ar
    38    39    40    1
    39    39    41   ar
    40    41    42    1
    41    41    43   ar
    42    43    44   ar
    43    37    44   ar
    44    35    45    1
    45     6    46   ar
    46    45    46    1
    47    46    47   ar
    48     2    47   ar
    49    28    30    1
    50    28    29    1
    51    32    34    1
    52    32    33    1
    53     1    48    1
    54     3    49    1
    55     5    50    1
    56    11    51    1
    57    12    52    1
    58    14    53    1
    59    21    54    1
    60    23    55    1
    61    25    56    1
    62    26    57    1
    63    27    58    1
    64    30    59    1
    65    31    60    1
    66    31    61    1
    67    34    62    1
    68    38    63    1
    69    40    64    1
    70    42    65    1
    71    43    66    1
    72    44    67    1
    73    47    68    1
