REMARK  Name = NuBBE_1812
REMARK  3 active torsions:
REMARK  status: ('A' for Active; 'I' for Inactive)
REMARK    1  A    between atoms: C_1  and  C_5
REMARK    2  A    between atoms: C_2  and  C_3
REMARK    3  A    between atoms: C_3  and  O_4
REMARK                            x       y       z     vdW  Elec       q    Type
REMARK                         _______ _______ _______ _____ _____    ______ ____
ROOT
ATOM      1  C   LIG A   1      -0.214   0.073  -0.062  0.00  0.00    -0.022 A 
ATOM      2  C   LIG A   1       0.384   1.342  -0.073  0.00  0.00    +0.057 A 
ATOM      3  C   LIG A   1       1.763   1.416  -0.058  0.00  0.00    +0.167 A 
ATOM      4  C   LIG A   1       2.550   0.290  -0.041  0.00  0.00    +0.166 A 
ATOM      5  C   LIG A   1       2.005  -0.973  -0.045  0.00  0.00    +0.050 A 
ATOM      6  C   LIG A   1       0.609  -1.077  -0.063  0.00  0.00    +0.012 A 
ATOM      7  O   LIG A   1       3.878   0.582  -0.030  0.00  0.00    -0.453 OA
ATOM      8  C   LIG A   1       3.837   2.024  -0.043  0.00  0.00    +0.466 C 
ATOM      9  O   LIG A   1       2.498   2.561  -0.062  0.00  0.00    -0.453 OA
ENDROOT
BRANCH   1  10
ATOM     10  C   LIG A   1      -1.682  -0.022  -0.114  0.00  0.00    +0.006 C 
ATOM     11  C   LIG A   1      -2.393  -1.022   0.431  0.00  0.00    +0.001 C 
BRANCH  11  12
ATOM     12  C   LIG A   1      -3.880  -1.131   0.365  0.00  0.00    +0.183 C 
BRANCH  12  13
ATOM     13  O   LIG A   1      -4.205  -2.340  -0.302  0.00  0.00    -0.391 OA
ATOM     14  H   LIG A   1      -3.734  -2.327  -1.153  0.00  0.00    +0.210 HD
ENDBRANCH  12  13
ENDBRANCH  11  12
ENDBRANCH   1  10
TORSDOF 3
