REMARK  Name = NuBBE_2465
REMARK  8 active torsions:
REMARK  status: ('A' for Active; 'I' for Inactive)
REMARK    1  A    between atoms: C_1  and  O_2
REMARK    2  A    between atoms: O_2  and  C_3
REMARK    3  A    between atoms: C_5  and  C_6
REMARK    4  A    between atoms: C_14  and  C_18
REMARK    5  A    between atoms: C_20  and  O_21
REMARK    6  A    between atoms: O_21  and  C_22
REMARK    7  A    between atoms: C_23  and  O_24
REMARK    8  A    between atoms: C_29  and  O_30
REMARK                            x       y       z     vdW  Elec       q    Type
REMARK                         _______ _______ _______ _____ _____    ______ ____
ROOT
ATOM      1  C   LIG A   1       1.529   0.010   1.027  0.00  0.00    +0.154 C 
ATOM      2  C   LIG A   1       0.396  -0.132   0.000  0.00  0.00    +0.056 C 
ATOM      3  C   LIG A   1      -0.254   1.229  -0.040  0.00  0.00    +0.056 C 
ATOM      4  C   LIG A   1       0.846   2.155   0.415  0.00  0.00    +0.167 C 
ATOM      5  O   LIG A   1       1.628   1.413   1.351  0.00  0.00    -0.371 OA
ATOM      6  C   LIG A   1      -1.408   1.140   0.967  0.00  0.00    +0.154 C 
ATOM      7  O   LIG A   1      -1.527  -0.248   1.346  0.00  0.00    -0.371 OA
ATOM      8  C   LIG A   1      -0.720  -1.034   0.469  0.00  0.00    +0.167 C 
ENDROOT
BRANCH   1  11
ATOM      9  C   LIG A   1       4.208  -2.413  -0.301  0.00  0.00    +0.162 A 
ATOM     10  C   LIG A   1       2.990  -1.879   0.155  0.00  0.00    +0.055 A 
ATOM     11  C   LIG A   1       2.858  -0.526   0.515  0.00  0.00    -0.015 A 
ATOM     12  C   LIG A   1       3.990   0.291   0.419  0.00  0.00    +0.010 A 
ATOM     13  C   LIG A   1       5.207  -0.221  -0.036  0.00  0.00    +0.049 A 
ATOM     14  C   LIG A   1       5.318  -1.566  -0.395  0.00  0.00    +0.159 A 
BRANCH   9  16
ATOM     15  C   LIG A   1       5.311  -4.407  -1.033  0.00  0.00    +0.277 C 
ATOM     16  O   LIG A   1       4.129  -3.747  -0.598  0.00  0.00    -0.491 OA
ENDBRANCH   9  16
BRANCH  14  17
ATOM     17  O   LIG A   1       6.532  -2.016  -0.832  0.00  0.00    -0.503 OA
ATOM     18  H   LIG A   1       7.162  -1.276  -0.837  0.00  0.00    +0.292 HD
ENDBRANCH  14  17
ENDBRANCH   1  11
BRANCH   6  19
ATOM     19  C   LIG A   1      -2.717   1.673   0.397  0.00  0.00    -0.015 A 
ATOM     20  C   LIG A   1      -3.857   0.851   0.301  0.00  0.00    +0.055 A 
ATOM     21  C   LIG A   1      -5.058   1.341  -0.214  0.00  0.00    +0.162 A 
ATOM     22  C   LIG A   1      -5.119   2.674  -0.623  0.00  0.00    +0.159 A 
ATOM     23  C   LIG A   1      -4.014   3.512  -0.537  0.00  0.00    +0.049 A 
ATOM     24  C   LIG A   1      -2.815   3.012  -0.024  0.00  0.00    +0.010 A 
BRANCH  21  25
ATOM     25  O   LIG A   1      -6.219   0.627  -0.370  0.00  0.00    -0.491 OA
ATOM     26  C   LIG A   1      -6.191  -0.730   0.060  0.00  0.00    +0.277 C 
ENDBRANCH  21  25
BRANCH  22  27
ATOM     27  O   LIG A   1      -6.285   3.190  -1.119  0.00  0.00    -0.503 OA
ATOM     28  H   LIG A   1      -6.922   2.449  -1.077  0.00  0.00    +0.292 HD
ENDBRANCH  22  27
ENDBRANCH   6  19
TORSDOF 6
