@<TRIPOS>MOLECULE
NuBBE_1061
 80 84 0 0 0
SMALL
GASTEIGER

@<TRIPOS>ATOM
      1 C           4.3046   -2.2028    1.8001 C.3     1  LIG1       -0.0572
      2 C           3.6832   -1.5183    0.5429 C.3     1  LIG1       -0.0056
      3 C           2.8319   -2.6184   -0.1156 C.3     1  LIG1       -0.0572
      4 C           4.8769   -0.9450   -0.2661 C.3     1  LIG1        0.0606
      5 H           5.5347   -0.3909    0.4169 H       1  LIG1        0.0599
      6 O           5.6630   -1.9817   -0.8356 O.3     1  LIG1       -0.3912
      7 C           4.4708    0.0626   -1.3376 C.3     1  LIG1       -0.0258
      8 C           3.6037    1.2691   -0.7560 C.3     1  LIG1       -0.0443
      9 C           2.2502    0.7049   -0.1455 C.3     1  LIG1       -0.0182
     10 C           1.6713    0.2292   -1.5073 C.3     1  LIG1       -0.0586
     11 C           2.8520   -0.2790    0.9437 C.3     1  LIG1       -0.0274
     12 C           1.9438   -0.5021    2.1089 C.3     1  LIG1       -0.0486
     13 C           1.6039    0.8749    2.6237 C.3     1  LIG1       -0.0459
     14 C           0.1776    1.3918    2.1013 C.3     1  LIG1       -0.0127
     15 C          -1.2719    0.9536    1.5139 C.3     1  LIG1       -0.0043
     16 C          -1.4059   -0.6175    1.3773 C.3     1  LIG1       -0.0429
     17 C          -0.9434   -1.0714   -0.0306 C.3     1  LIG1       -0.0463
     18 C          -1.8463   -0.5243   -1.1925 C.3     1  LIG1       -0.0252
     19 C          -1.1190    0.0179   -2.4426 C.3     1  LIG1       -0.0590
     20 C          -2.6790    0.6266   -0.5721 C.3     1  LIG1       -0.0108
     21 C          -3.9288    1.0556   -1.3533 C.3     1  LIG1       -0.0343
     22 H          -4.5801    1.5875   -0.6426 H       1  LIG1        0.0307
     23 C          -3.6931    2.0641   -2.4711 C.3     1  LIG1       -0.0616
     24 C          -4.7128   -0.2440   -1.7757 C.3     1  LIG1       -0.0407
     25 H          -5.5614    0.0496   -2.4018 H       1  LIG1        0.0301
     26 C          -5.2820   -0.9989   -0.5472 C.3     1  LIG1       -0.0622
     27 C          -3.8501   -1.2397   -2.5669 C.3     1  LIG1       -0.0497
     28 C          -2.6512   -1.7092   -1.7487 C.3     1  LIG1       -0.0468
     29 C          -2.4568    1.6445    2.3732 C.3     1  LIG1       -0.0553
     30 C          -1.6832    1.5444    0.1621 C.2     1  LIG1       -0.0560
     31 C          -1.1905    2.7262   -0.2494 C.2     1  LIG1       -0.0188
     32 C          -0.2036    0.7267    3.5967 C.3     1  LIG1       -0.0581
     33 C           1.1269    1.7926    0.6430 C.3     1  LIG1        0.0333
     34 C           0.3015    2.6300   -0.3549 C.2     1  LIG1        0.1602
     35 O           0.8522    3.3156   -1.2508 O.2     1  LIG1       -0.2923
     36 H           4.9962   -3.0023    1.5188 H       1  LIG1        0.0236
     37 H           3.5463   -2.6698    2.4395 H       1  LIG1        0.0236
     38 H           4.8539   -1.4770    2.4107 H       1  LIG1        0.0236
     39 H           3.4480   -3.4379   -0.4965 H       1  LIG1        0.0236
     40 H           2.2210   -2.2775   -0.9433 H       1  LIG1        0.0236
     41 H           2.1366   -3.0576    0.6152 H       1  LIG1        0.0236
     42 H           6.3406   -2.2111   -0.1747 H       1  LIG1        0.2098
     43 H           3.9700   -0.5287   -2.1148 H       1  LIG1        0.0290
     44 H           5.3541    0.4507   -1.8546 H       1  LIG1        0.0290
     45 H           3.4115    1.9884   -1.5634 H       1  LIG1        0.0272
     46 H           4.1905    1.8036   -0.0030 H       1  LIG1        0.0272
     47 H           1.2364   -0.7568   -1.5278 H       1  LIG1        0.0235
     48 H           2.3329    0.2266   -2.3814 H       1  LIG1        0.0235
     49 H           1.0079    0.9891   -1.8844 H       1  LIG1        0.0235
     50 H           3.6288    0.3434    1.4214 H       1  LIG1        0.0312
     51 H           2.4435   -1.0121    2.9348 H       1  LIG1        0.0268
     52 H           1.1015   -1.1283    1.8420 H       1  LIG1        0.0268
     53 H           2.3964    1.6189    2.4364 H       1  LIG1        0.0271
     54 H           1.8078    0.9080    3.7144 H       1  LIG1        0.0271
     55 H          -2.4297   -0.9613    1.5694 H       1  LIG1        0.0274
     56 H          -0.8407   -1.1623    2.1329 H       1  LIG1        0.0274
     57 H          -0.8477   -2.1613   -0.0616 H       1  LIG1        0.0271
     58 H           0.0576   -0.6910   -0.1119 H       1  LIG1        0.0271
     59 H          -0.7574    1.0316   -2.3001 H       1  LIG1        0.0235
     60 H          -1.7645    0.1281   -3.3129 H       1  LIG1        0.0235
     61 H          -0.3355   -0.6565   -2.7891 H       1  LIG1        0.0235
     62 H          -3.2292    0.1963    0.2651 H       1  LIG1        0.0354
     63 H          -3.0762    1.6909   -3.2858 H       1  LIG1        0.0233
     64 H          -3.2169    2.9685   -2.0778 H       1  LIG1        0.0233
     65 H          -4.6488    2.3763   -2.9033 H       1  LIG1        0.0233
     66 H          -5.9067   -0.3472    0.0661 H       1  LIG1        0.0233
     67 H          -4.5069   -1.4036    0.1142 H       1  LIG1        0.0233
     68 H          -5.8749   -1.8613   -0.8690 H       1  LIG1        0.0233
     69 H          -3.5318   -0.7860   -3.5107 H       1  LIG1        0.0268
     70 H          -4.4333   -2.1208   -2.8559 H       1  LIG1        0.0268
     71 H          -1.9986   -2.3322   -2.3793 H       1  LIG1        0.0271
     72 H          -2.9694   -2.3782   -0.9424 H       1  LIG1        0.0271
     73 H          -2.2940    1.7808    3.4458 H       1  LIG1        0.0238
     74 H          -3.3988    1.0935    2.2748 H       1  LIG1        0.0238
     75 H          -2.6529    2.6774    2.0510 H       1  LIG1        0.0238
     76 H          -1.2182    3.5535    0.4746 H       1  LIG1        0.0652
     77 H          -0.0743    1.4595    4.4020 H       1  LIG1        0.0236
     78 H           0.2710   -0.2394    3.8609 H       1  LIG1        0.0236
     79 H          -1.2217    0.3410    3.7275 H       1  LIG1        0.0236
     80 H           1.7864    2.6098    0.9863 H       1  LIG1        0.0392
@<TRIPOS>BOND
     1     1     2    1
     2     2     3    1
     3     2     4    1
     4     4     5    1
     5     4     6    1
     6     4     7    1
     7     7     8    1
     8     8     9    1
     9     9    10    1
    10     9    11    1
    11     2    11    1
    12    11    12    1
    13    12    13    1
    14    13    14    1
    15    14    15    1
    16    15    16    1
    17    16    17    1
    18    17    18    1
    19    18    19    1
    20    18    20    1
    21    20    21    1
    22    21    24    1
    23    24    25    1
    24    24    26    1
    25    24    27    1
    26    27    28    1
    27    18    28    1
    28    15    29    1
    29    15    30    1
    30    20    30    1
    31    30    31    2
    32    14    32    1
    33    14    33    1
    34     9    33    1
    35    33    34    1
    36    31    34    1
    37    34    35    2
    38    21    23    1
    39    21    22    1
    40     1    36    1
    41     1    37    1
    42     1    38    1
    43     3    39    1
    44     3    40    1
    45     3    41    1
    46     6    42    1
    47     7    43    1
    48     7    44    1
    49     8    45    1
    50     8    46    1
    51    10    47    1
    52    10    48    1
    53    10    49    1
    54    11    50    1
    55    12    51    1
    56    12    52    1
    57    13    53    1
    58    13    54    1
    59    16    55    1
    60    16    56    1
    61    17    57    1
    62    17    58    1
    63    19    59    1
    64    19    60    1
    65    19    61    1
    66    20    62    1
    67    23    63    1
    68    23    64    1
    69    23    65    1
    70    26    66    1
    71    26    67    1
    72    26    68    1
    73    27    69    1
    74    27    70    1
    75    28    71    1
    76    28    72    1
    77    29    73    1
    78    29    74    1
    79    29    75    1
    80    31    76    1
    81    32    77    1
    82    32    78    1
    83    32    79    1
    84    33    80    1
