@<TRIPOS>MOLECULE
NuBBE_1907
 34 33 0 0 0
SMALL
GASTEIGER

@<TRIPOS>ATOM
      1 C           0.6803   -0.5897    1.1335 C.3     1  LIG1       -0.0527
      2 C          -0.0958    0.5017    0.3712 C.3     1  LIG1       -0.0530
      3 C          -0.3820    0.0844   -1.0866 C.3     1  LIG1       -0.0531
      4 C          -1.1929    1.1288   -1.8782 C.3     1  LIG1       -0.0531
      5 C          -1.4269    0.6892   -3.3360 C.3     1  LIG1       -0.0533
      6 C          -2.2434    1.7050   -4.1470 C.3     1  LIG1       -0.0559
      7 C          -2.4617    1.2393   -5.5837 C.3     1  LIG1       -0.0653
      8 C           1.0027   -0.2238    2.5936 C.3     1  LIG1       -0.0464
      9 C           1.7488   -1.3636    3.3000 C.3     1  LIG1        0.0055
     10 C           2.1000   -1.0576    4.7510 C.2     1  LIG1        0.1303
     11 O           1.8199    0.0040    5.2935 O.2     1  LIG1       -0.2977
     12 C           2.8407   -2.1429    5.5032 C.3     1  LIG1       -0.0061
     13 H           1.6177   -0.8003    0.6044 H       1  LIG1        0.0265
     14 H           0.0922   -1.5153    1.1256 H       1  LIG1        0.0265
     15 H           0.4820    1.4336    0.3769 H       1  LIG1        0.0265
     16 H          -1.0422    0.7014    0.8871 H       1  LIG1        0.0265
     17 H          -0.9287   -0.8667   -1.0874 H       1  LIG1        0.0265
     18 H           0.5700   -0.0940   -1.6015 H       1  LIG1        0.0265
     19 H          -0.6614    2.0876   -1.8705 H       1  LIG1        0.0265
     20 H          -2.1601    1.2889   -1.3871 H       1  LIG1        0.0265
     21 H          -1.9477   -0.2760   -3.3461 H       1  LIG1        0.0265
     22 H          -0.4588    0.5373   -3.8286 H       1  LIG1        0.0265
     23 H          -1.7293    2.6730   -4.1643 H       1  LIG1        0.0263
     24 H          -3.2200    1.8644   -3.6754 H       1  LIG1        0.0263
     25 H          -1.5093    1.1334   -6.1135 H       1  LIG1        0.0230
     26 H          -3.0718    1.9639   -6.1341 H       1  LIG1        0.0230
     27 H          -2.9792    0.2749   -5.6137 H       1  LIG1        0.0230
     28 H           0.0749   -0.0067    3.1368 H       1  LIG1        0.0269
     29 H           1.6098    0.6892    2.6274 H       1  LIG1        0.0269
     30 H           2.6843   -1.5823    2.7727 H       1  LIG1        0.0341
     31 H           1.1297   -2.2677    3.2980 H       1  LIG1        0.0341
     32 H           2.2787   -3.0784    5.4514 H       1  LIG1        0.0306
     33 H           2.9436   -1.8586    6.5542 H       1  LIG1        0.0306
     34 H           3.8360   -2.2767    5.0735 H       1  LIG1        0.0306
@<TRIPOS>BOND
     1     1     2    1
     2     2     3    1
     3     3     4    1
     4     4     5    1
     5     5     6    1
     6     6     7    1
     7     1     8    1
     8     8     9    1
     9     9    10    1
    10    10    11    2
    11    10    12    1
    12     1    13    1
    13     1    14    1
    14     2    15    1
    15     2    16    1
    16     3    17    1
    17     3    18    1
    18     4    19    1
    19     4    20    1
    20     5    21    1
    21     5    22    1
    22     6    23    1
    23     6    24    1
    24     7    25    1
    25     7    26    1
    26     7    27    1
    27     8    28    1
    28     8    29    1
    29     9    30    1
    30     9    31    1
    31    12    32    1
    32    12    33    1
    33    12    34    1
