@<TRIPOS>MOLECULE
NuBBE_2031
 28 28 0 0 0
SMALL
GASTEIGER

@<TRIPOS>ATOM
      1 C          -3.8202   -0.0493    0.3444 C.3     1  LIG1       -0.0396
      2 C          -2.3297   -0.1825    0.2384 C.ar    1  LIG1       -0.0470
      3 C          -1.5399    0.9267   -0.0949 C.ar    1  LIG1       -0.0168
      4 C          -0.1503    0.8067   -0.2404 C.ar    1  LIG1        0.1237
      5 O           0.6831    1.8514   -0.5527 O.3     1  LIG1       -0.4948
      6 C           0.0933    3.1261   -0.7676 C.3     1  LIG1        0.0788
      7 C           0.4700   -0.4484   -0.0614 C.ar    1  LIG1       -0.0031
      8 C           1.9831   -0.5952   -0.1952 C.3     1  LIG1       -0.0181
      9 C           2.6571   -0.3731    1.1610 C.3     1  LIG1       -0.0585
     10 C           2.4333   -1.9317   -0.7990 C.3     1  LIG1       -0.0585
     11 C          -0.3334   -1.5513    0.2791 C.ar    1  LIG1       -0.0546
     12 C          -1.7169   -1.4223    0.4135 C.ar    1  LIG1       -0.0583
     13 H          -4.0984    0.9410    0.7198 H       1  LIG1        0.0278
     14 H          -4.2310   -0.7875    1.0412 H       1  LIG1        0.0278
     15 H          -4.2790   -0.1978   -0.6380 H       1  LIG1        0.0278
     16 H          -2.0374    1.8806   -0.2341 H       1  LIG1        0.0657
     17 H          -0.3629    3.5069    0.1522 H       1  LIG1        0.0660
     18 H          -0.6308    3.0979   -1.5885 H       1  LIG1        0.0660
     19 H           0.8901    3.8186   -1.0557 H       1  LIG1        0.0660
     20 H           2.3497    0.1730   -0.8879 H       1  LIG1        0.0345
     21 H           2.3263   -1.1119    1.8998 H       1  LIG1        0.0235
     22 H           2.4256    0.6209    1.5595 H       1  LIG1        0.0235
     23 H           3.7461   -0.4503    1.0713 H       1  LIG1        0.0235
     24 H           2.2611   -2.7721   -0.1183 H       1  LIG1        0.0235
     25 H           3.5070   -1.9078   -1.0163 H       1  LIG1        0.0235
     26 H           1.9071   -2.1379   -1.7374 H       1  LIG1        0.0235
     27 H           0.1066   -2.5304    0.4461 H       1  LIG1        0.0622
     28 H          -2.3096   -2.3004    0.6609 H       1  LIG1        0.0620
@<TRIPOS>BOND
     1     1     2    1
     2     2     3   ar
     3     3     4   ar
     4     4     5    1
     5     5     6    1
     6     4     7   ar
     7     7     8    1
     8     8     9    1
     9     8    10    1
    10     7    11   ar
    11    11    12   ar
    12     2    12   ar
    13     1    13    1
    14     1    14    1
    15     1    15    1
    16     3    16    1
    17     6    17    1
    18     6    18    1
    19     6    19    1
    20     8    20    1
    21     9    21    1
    22     9    22    1
    23     9    23    1
    24    10    24    1
    25    10    25    1
    26    10    26    1
    27    11    27    1
    28    12    28    1
