@<TRIPOS>MOLECULE
NuBBE_393
 22 23 0 0 0
SMALL
GASTEIGER

@<TRIPOS>ATOM
      1 C          -1.9484    1.3268   -2.5813 C.3     1  LIG1        0.0790
      2 O          -1.0064    1.9707   -1.7309 O.3     1  LIG1       -0.4914
      3 C          -0.3837    1.1871   -0.7932 C.ar    1  LIG1        0.1621
      4 C           0.5237    1.8676    0.0325 C.ar    1  LIG1        0.1620
      5 O           0.7293    3.2105   -0.1339 O.3     1  LIG1       -0.5032
      6 C           1.2336    1.2161    1.0311 C.ar    1  LIG1        0.0265
      7 C           1.0261   -0.1474    1.2013 C.ar    1  LIG1        0.1427
      8 O           1.7555   -0.7903    2.2208 O.2     1  LIG1       -0.4220
      9 C           1.6105   -2.1492    2.4612 C.ar    1  LIG1        0.3372
     10 C           0.6631   -2.8808    1.6017 C.ar    1  LIG1        0.0236
     11 C          -0.0355   -2.2844    0.6308 C.ar    1  LIG1       -0.0442
     12 O           2.2319   -2.7323    3.3419 O.2     1  LIG1       -0.2452
     13 C           0.1324   -0.8581    0.3984 C.ar    1  LIG1        0.0213
     14 C          -0.5765   -0.1846   -0.6054 C.ar    1  LIG1       -0.0056
     15 H          -2.3569    2.0822   -3.2594 H       1  LIG1        0.0660
     16 H          -2.7812    0.9114   -2.0043 H       1  LIG1        0.0660
     17 H          -1.4657    0.5567   -3.1920 H       1  LIG1        0.0660
     18 H           0.1459    3.4698   -0.8735 H       1  LIG1        0.2923
     19 H           1.9304    1.7601    1.6597 H       1  LIG1        0.0692
     20 H           0.5667   -3.9401    1.8067 H       1  LIG1        0.0689
     21 H          -0.7263   -2.8467    0.0125 H       1  LIG1        0.0627
     22 H          -1.2685   -0.7449   -1.2248 H       1  LIG1        0.0662
@<TRIPOS>BOND
     1     1     2    1
     2     2     3    1
     3     3     4   ar
     4     4     5    1
     5     4     6   ar
     6     6     7   ar
     7     7     8   ar
     8     8     9   ar
     9     9    10   ar
    10    10    11   ar
    11     9    12    2
    12     7    13   ar
    13    11    13   ar
    14    13    14   ar
    15     3    14   ar
    16     1    15    1
    17     1    16    1
    18     1    17    1
    19     5    18    1
    20     6    19    1
    21    10    20    1
    22    11    21    1
    23    14    22    1
