REMARK  Name = NuBBE_941
REMARK  6 active torsions:
REMARK  status: ('A' for Active; 'I' for Inactive)
REMARK    1  A    between atoms: C_1  and  O_2
REMARK    2  A    between atoms: O_2  and  C_3
REMARK    3  A    between atoms: C_10  and  C_17
REMARK    4  A    between atoms: C_10  and  C_18
REMARK    5  A    between atoms: C_11  and  O_16
REMARK    6  A    between atoms: C_13  and  O_15
REMARK                            x       y       z     vdW  Elec       q    Type
REMARK                         _______ _______ _______ _____ _____    ______ ____
ROOT
ATOM      1  C   LIG A   1       0.569   3.323   0.307  0.00  0.00    +0.144 A 
ATOM      2  C   LIG A   1       0.024   2.056   0.033  0.00  0.00    +0.095 A 
ATOM      3  N   LIG A   1      -1.143   1.962  -0.740  0.00  0.00    -0.319 N 
ATOM      4  C   LIG A   1      -1.756   0.787  -1.054  0.00  0.00    +0.259 A 
ATOM      5  C   LIG A   1      -1.134  -0.463  -0.546  0.00  0.00    +0.090 A 
ATOM      6  C   LIG A   1       0.002  -0.413   0.173  0.00  0.00    +0.141 A 
ATOM      7  O   LIG A   1       0.684  -1.525   0.625  0.00  0.00    -0.482 OA
ATOM      8  C   LIG A   1       0.277  -2.811   0.107  0.00  0.00    +0.134 C 
ATOM      9  C   LIG A   1      -1.257  -2.898  -0.024  0.00  0.00    +0.191 C 
ATOM     10  C   LIG A   1      -1.796  -1.756  -0.898  0.00  0.00    +0.186 C 
ATOM     11  C   LIG A   1       1.015  -3.064  -1.218  0.00  0.00    +0.058 C 
ATOM     12  C   LIG A   1       0.765  -3.849   1.130  0.00  0.00    +0.058 C 
ATOM     13  O   LIG A   1      -2.784   0.746  -1.727  0.00  0.00    -0.267 OA
ATOM     14  H   LIG A   1      -1.561   2.822  -1.075  0.00  0.00    +0.169 HD
ATOM     15  C   LIG A   1       0.619   0.881   0.511  0.00  0.00    +0.044 A 
ATOM     16  C   LIG A   1       1.781   0.987   1.284  0.00  0.00    +0.014 A 
ATOM     17  C   LIG A   1       2.329   2.240   1.568  0.00  0.00    +0.004 A 
ATOM     18  C   LIG A   1       1.727   3.404   1.082  0.00  0.00    +0.048 A 
ENDROOT
BRANCH   1  20
ATOM     19  C   LIG A   1       0.446   5.682  -0.007  0.00  0.00    +0.277 C 
ATOM     20  O   LIG A   1      -0.109   4.391  -0.225  0.00  0.00    -0.493 OA
ENDBRANCH   1  20
BRANCH  10  21
ATOM     21  O   LIG A   1      -3.217  -1.720  -0.701  0.00  0.00    -0.384 OA
ATOM     22  H   LIG A   1      -3.541  -0.939  -1.200  0.00  0.00    +0.210 HD
ENDBRANCH  10  21
BRANCH   9  23
ATOM     23  O   LIG A   1      -1.681  -4.158  -0.562  0.00  0.00    -0.385 OA
ATOM     24  H   LIG A   1      -2.650  -4.074  -0.669  0.00  0.00    +0.210 HD
ENDBRANCH   9  23
TORSDOF 3
