REMARK  Name = NuBBE_1200
REMARK  3 active torsions:
REMARK  status: ('A' for Active; 'I' for Inactive)
REMARK    1  A    between atoms: O_1  and  C_2
REMARK    2  A    between atoms: C_5  and  C_6
REMARK    3  A    between atoms: C_6  and  O_7
REMARK                            x       y       z     vdW  Elec       q    Type
REMARK                         _______ _______ _______ _____ _____    ______ ____
ROOT
ATOM      1  C   LIG A   1      -1.901  -0.157   0.193  0.00  0.00    +0.117 A 
ATOM      2  C   LIG A   1      -1.240   1.068   0.174  0.00  0.00    +0.046 A 
ATOM      3  C   LIG A   1       0.150   1.097   0.029  0.00  0.00    +0.018 A 
ATOM      4  C   LIG A   1       0.870  -0.100  -0.096  0.00  0.00    +0.059 A 
ATOM      5  C   LIG A   1       0.190  -1.324  -0.075  0.00  0.00    +0.018 A 
ATOM      6  C   LIG A   1      -1.199  -1.351   0.070  0.00  0.00    +0.046 A 
ENDROOT
BRANCH   1   7
ATOM      7  O   LIG A   1      -3.255  -0.231   0.333  0.00  0.00    -0.507 OA
ATOM      8  H   LIG A   1      -3.612   0.669   0.408  0.00  0.00    +0.292 HD
ENDBRANCH   1   7
BRANCH   4   9
ATOM      9  C   LIG A   1       2.345  -0.118  -0.252  0.00  0.00    +0.337 C 
ATOM     10  O   LIG A   1       3.039  -1.111  -0.370  0.00  0.00    -0.245 OA
BRANCH   9  11
ATOM     11  O   LIG A   1       2.885   1.114  -0.251  0.00  0.00    -0.477 OA
ATOM     12  H   LIG A   1       3.845   0.946  -0.358  0.00  0.00    +0.295 HD
ENDBRANCH   9  11
ENDBRANCH   4   9
TORSDOF 3
