@<TRIPOS>MOLECULE
NuBBE_1
 43 43 0 0 0
SMALL
GASTEIGER

@<TRIPOS>ATOM
      1 O          -1.3505    3.3235   -0.7184 O.2     1  LIG1       -0.2449
      2 C          -0.6622    2.5178   -1.3782 C.2     1  LIG1        0.3396
      3 O          -1.0182    1.2676   -1.7307 O.3     1  LIG1       -0.4570
      4 C          -2.3067    0.8263   -1.3051 C.3     1  LIG1        0.1113
      5 C          -2.3742    0.7417    0.1972 C.2     1  LIG1       -0.0480
      6 C          -2.0416   -0.3241    0.9414 C.2     1  LIG1       -0.0731
      7 C          -1.5270   -1.5231    0.2585 C.3     1  LIG1       -0.0437
      8 C          -2.0369   -0.3236    2.4658 C.3     1  LIG1       -0.0285
      9 C          -0.9274   -1.1001    3.2483 C.3     1  LIG1       -0.0308
     10 C          -0.8708   -2.6063    3.0635 C.2     1  LIG1       -0.0850
     11 C          -0.1052   -3.3309    2.2109 C.2     1  LIG1       -0.0796
     12 C           0.9011   -2.8005    1.2161 C.3     1  LIG1       -0.0440
     13 C          -0.3232   -4.8077    2.0387 C.3     1  LIG1       -0.0440
     14 C           0.6652    2.8523   -1.9039 C.ar    1  LIG1        0.0627
     15 C           1.6054    1.8356   -2.1506 C.ar    1  LIG1       -0.0026
     16 C           2.8548    2.1805   -2.6355 C.ar    1  LIG1        0.1590
     17 O           3.8058    1.2323   -2.8927 O.3     1  LIG1       -0.5033
     18 C           3.1804    3.5137   -2.8735 C.ar    1  LIG1        0.1583
     19 O           4.4223    3.8341   -3.3383 O.3     1  LIG1       -0.5033
     20 C           2.2599    4.5274   -2.6370 C.ar    1  LIG1       -0.0158
     21 C           0.9963    4.1955   -2.1451 C.ar    1  LIG1       -0.0441
     22 H          -2.4887   -0.1385   -1.7886 H       1  LIG1        0.0743
     23 H          -3.0860    1.4920   -1.6858 H       1  LIG1        0.0743
     24 H          -2.6860    1.6536    0.6945 H       1  LIG1        0.0605
     25 H          -1.7171   -1.6847   -0.7988 H       1  LIG1        0.0274
     26 H          -1.8683   -2.4303    0.7531 H       1  LIG1        0.0274
     27 H          -0.4659   -1.3172    0.2916 H       1  LIG1        0.0274
     28 H          -3.0156   -0.6995    2.7846 H       1  LIG1        0.0313
     29 H          -1.9798    0.7211    2.8073 H       1  LIG1        0.0313
     30 H          -1.1352   -0.9349    4.3185 H       1  LIG1        0.0310
     31 H           0.0553   -0.6496    3.0795 H       1  LIG1        0.0310
     32 H          -1.5950   -3.1418    3.6816 H       1  LIG1        0.0572
     33 H           1.1267   -1.7416    1.3778 H       1  LIG1        0.0274
     34 H           0.5092   -2.9487    0.1967 H       1  LIG1        0.0274
     35 H           1.8436   -3.3428    1.2185 H       1  LIG1        0.0274
     36 H          -0.9561   -5.2335    2.8201 H       1  LIG1        0.0274
     37 H           0.6441   -5.3162    2.0544 H       1  LIG1        0.0274
     38 H          -0.7991   -5.0055    1.0690 H       1  LIG1        0.0274
     39 H           1.3503    0.8026   -1.9451 H       1  LIG1        0.0663
     40 H           3.4323    0.3608   -2.6722 H       1  LIG1        0.2923
     41 H           4.8883    2.9765   -3.4045 H       1  LIG1        0.2923
     42 H           2.5270    5.5625   -2.8297 H       1  LIG1        0.0655
     43 H           0.2686    4.9838   -1.9538 H       1  LIG1        0.0627
@<TRIPOS>BOND
     1     1     2    2
     2     2     3    1
     3     3     4    1
     4     4     5    1
     5     5     6    2
     6     6     7    1
     7     6     8    1
     8     8     9    1
     9     9    10    1
    10    10    11    2
    11    11    12    1
    12    11    13    1
    13     2    14    1
    14    14    15   ar
    15    15    16   ar
    16    16    17    1
    17    16    18   ar
    18    18    19    1
    19    18    20   ar
    20    20    21   ar
    21    14    21   ar
    22     4    22    1
    23     4    23    1
    24     5    24    1
    25     7    25    1
    26     7    26    1
    27     7    27    1
    28     8    28    1
    29     8    29    1
    30     9    30    1
    31     9    31    1
    32    10    32    1
    33    12    33    1
    34    12    34    1
    35    12    35    1
    36    13    36    1
    37    13    37    1
    38    13    38    1
    39    15    39    1
    40    17    40    1
    41    19    41    1
    42    20    42    1
    43    21    43    1
