REMARK  Name = NuBBE_1902
REMARK  4 active torsions:
REMARK  status: ('A' for Active; 'I' for Inactive)
REMARK    1  A    between atoms: C_1  and  C_2
REMARK    2  A    between atoms: C_1  and  C_3
REMARK    3  A    between atoms: C_1  and  C_4
REMARK    4  A    between atoms: C_7  and  C_10
REMARK                            x       y       z     vdW  Elec       q    Type
REMARK                         _______ _______ _______ _____ _____    ______ ____
ROOT
ATOM      1  C   LIG A   1      -0.580   0.307   0.091  0.00  0.00    -0.067 C 
ATOM      2  C   LIG A   1       0.125   1.437   0.283  0.00  0.00    -0.001 C 
ATOM      3  C   LIG A   1       1.562   1.435   0.417  0.00  0.00    -0.001 C 
ATOM      4  C   LIG A   1       2.299   0.347   0.140  0.00  0.00    -0.072 C 
ATOM      5  C   LIG A   1       1.642  -0.938  -0.302  0.00  0.00    +0.035 C 
ATOM      6  C   LIG A   1       0.134  -1.026   0.000  0.00  0.00    +0.035 C 
ATOM      7  C   LIG A   1       3.795   0.343   0.224  0.00  0.00    +0.039 C 
ENDROOT
BRANCH   1   8
ATOM      8  C   LIG A   1      -2.097   0.332  -0.006  0.00  0.00    +0.009 C 
ATOM      9  C   LIG A   1      -2.578  -0.008  -1.418  0.00  0.00    +0.012 C 
ATOM     10  C   LIG A   1      -2.756  -0.586   1.027  0.00  0.00    +0.012 C 
ENDBRANCH   1   8
TORSDOF 1
