REMARK  Name = NuBBE_2459
REMARK  18 active torsions:
REMARK  status: ('A' for Active; 'I' for Inactive)
REMARK    1  A    between atoms: C_1  and  O_2
REMARK    2  A    between atoms: O_2  and  C_3
REMARK    3  A    between atoms: C_4  and  O_5
REMARK    4  A    between atoms: O_5  and  C_6
REMARK    5  A    between atoms: C_6  and  C_7
REMARK    6  A    between atoms: C_11  and  C_13
REMARK    7  A    between atoms: C_16  and  O_17
REMARK    8  A    between atoms: O_17  and  C_18
REMARK    9  A    between atoms: C_19  and  O_20
REMARK   10  A    between atoms: O_20  and  C_21
REMARK   11  A    between atoms: C_23  and  C_25
REMARK   12  A    between atoms: C_25  and  O_26
REMARK   13  A    between atoms: O_26  and  C_27
REMARK   14  A    between atoms: C_27  and  C_28
REMARK   15  A    between atoms: C_30  and  C_32
REMARK   16  A    between atoms: C_32  and  O_33
REMARK   17  A    between atoms: O_33  and  C_34
REMARK   18  A    between atoms: C_34  and  C_35
REMARK                            x       y       z     vdW  Elec       q    Type
REMARK                         _______ _______ _______ _____ _____    ______ ____
ROOT
ATOM      1  C   LIG A   1      -0.737  -2.102  -3.574  0.00  0.00    +0.163 A 
ATOM      2  C   LIG A   1      -0.133  -2.748  -2.487  0.00  0.00    +0.173 A 
ATOM      3  C   LIG A   1       0.448  -2.002  -1.462  0.00  0.00    +0.054 A 
ATOM      4  C   LIG A   1       0.393  -0.599  -1.457  0.00  0.00    -0.033 A 
ATOM      5  C   LIG A   1       0.978   0.173  -0.273  0.00  0.00    +0.056 C 
ATOM      6  C   LIG A   1       0.946   1.728  -0.452  0.00  0.00    +0.045 C 
ATOM      7  C   LIG A   1      -0.170   2.247  -1.412  0.00  0.00    +0.038 C 
ATOM      8  C   LIG A   1      -0.115   1.530  -2.753  0.00  0.00    +0.042 C 
ATOM      9  C   LIG A   1      -0.136   0.041  -2.592  0.00  0.00    -0.040 A 
ATOM     10  C   LIG A   1      -0.670  -0.713  -3.647  0.00  0.00    +0.053 A 
ENDROOT
BRANCH   5  11
ATOM     11  C   LIG A   1       0.559  -0.269   1.145  0.00  0.00    -0.036 A 
ATOM     12  C   LIG A   1       1.448  -0.051   2.211  0.00  0.00    +0.008 A 
ATOM     13  C   LIG A   1       1.170  -0.502   3.510  0.00  0.00    +0.050 A 
ATOM     14  C   LIG A   1      -0.013  -1.188   3.803  0.00  0.00    +0.162 A 
ATOM     15  C   LIG A   1      -0.909  -1.436   2.745  0.00  0.00    +0.162 A 
ATOM     16  C   LIG A   1      -0.633  -0.941   1.448  0.00  0.00    +0.053 A 
BRANCH  14  17
ATOM     17  O   LIG A   1      -0.301  -1.616   5.077  0.00  0.00    -0.491 OA
ATOM     18  C   LIG A   1       0.281  -0.870   6.152  0.00  0.00    +0.277 C 
ENDBRANCH  14  17
BRANCH  15  19
ATOM     19  O   LIG A   1      -2.127  -2.067   2.810  0.00  0.00    -0.491 OA
ATOM     20  C   LIG A   1      -2.235  -3.184   3.681  0.00  0.00    +0.277 C 
ENDBRANCH  15  19
ENDBRANCH   5  11
BRANCH   1  22
ATOM     21  C   LIG A   1      -2.149  -3.836  -4.270  0.00  0.00    +0.277 C 
ATOM     22  O   LIG A   1      -1.384  -2.690  -4.627  0.00  0.00    -0.491 OA
ENDBRANCH   1  22
BRANCH   2  23
ATOM     23  O   LIG A   1      -0.019  -4.160  -2.522  0.00  0.00    -0.422 OA
BRANCH  23  24
ATOM     24  C   LIG A   1       0.387  -4.963  -1.446  0.00  0.00    +0.309 C 
ATOM     25  C   LIG A   1       0.672  -6.340  -1.951  0.00  0.00    +0.136 C 
ATOM     26  O   LIG A   1       0.479  -4.648  -0.282  0.00  0.00    -0.251 OA
ENDBRANCH  23  24
ENDBRANCH   2  23
BRANCH   6  27
ATOM     27  C   LIG A   1       2.347   2.190  -0.936  0.00  0.00    +0.237 C 
BRANCH  27  28
ATOM     28  O   LIG A   1       2.357   3.621  -1.098  0.00  0.00    -0.465 OA
BRANCH  28  29
ATOM     29  C   LIG A   1       3.263   4.322  -0.366  0.00  0.00    +0.304 C 
ATOM     30  C   LIG A   1       3.002   5.795  -0.495  0.00  0.00    +0.136 C 
ATOM     31  O   LIG A   1       4.123   3.845   0.356  0.00  0.00    -0.251 OA
ENDBRANCH  28  29
ENDBRANCH  27  28
ENDBRANCH   6  27
BRANCH   7  32
ATOM     32  C   LIG A   1      -1.591   2.199  -0.815  0.00  0.00    +0.236 C 
BRANCH  32  33
ATOM     33  O   LIG A   1      -1.585   3.074   0.325  0.00  0.00    -0.465 OA
BRANCH  33  34
ATOM     34  C   LIG A   1      -2.457   4.119   0.303  0.00  0.00    +0.304 C 
ATOM     35  C   LIG A   1      -1.966   5.200   1.224  0.00  0.00    +0.136 C 
ATOM     36  O   LIG A   1      -3.444   4.217  -0.400  0.00  0.00    -0.251 OA
ENDBRANCH  33  34
ENDBRANCH  32  33
ENDBRANCH   7  32
TORSDOF 12
