@<TRIPOS>MOLECULE
NuBBE_2263
 38 39 0 0 0
SMALL
GASTEIGER

@<TRIPOS>ATOM
      1 C           0.0370    1.0835   -0.0633 C.3     1  LIG1        0.0000
      2 C          -1.2445    0.2939   -0.4568 C.3     1  LIG1        0.0000
      3 H          -1.1753    0.0669   -1.5468 H       1  LIG1        0.0000
      4 C          -1.2460   -1.0722    0.2572 C.3     1  LIG1        0.0000
      5 H          -1.2240   -0.9255    1.3575 H       1  LIG1        0.0000
      6 C           0.0025   -1.8242   -0.1412 C.2     1  LIG1        0.0000
      7 O          -0.0884   -2.9948   -0.4780 O.2     1  LIG1        0.0000
      8 C           1.3242   -1.1243   -0.1411 C.ar    1  LIG1        0.0000
      9 C           1.3376    0.2955   -0.0710 C.ar    1  LIG1        0.0000
     10 C           2.5797    0.9863   -0.0093 C.ar    1  LIG1        0.0000
     11 C           3.7740    0.2638   -0.0566 C.ar    1  LIG1        0.0000
     12 C           3.7668   -1.1204   -0.1540 C.ar    1  LIG1        0.0000
     13 C           2.5616   -1.8332   -0.1952 C.ar    1  LIG1        0.0000
     14 C           2.6322   -3.3386   -0.2692 C.3     1  LIG1        0.0000
     15 C           2.6837    2.4913    0.0955 C.3     1  LIG1        0.0000
     16 O          -2.3618   -1.8457   -0.1036 O.3     1  LIG1        0.0000
     17 AC         -2.2498   -3.9905    1.0959 Ac      1  LIG1        0.0000
     18 C          -2.5591    1.1369   -0.2342 C.3     1  LIG1        0.0000
     19 C          -3.8375    0.3586   -0.6233 C.3     1  LIG1        0.0000
     20 C          -2.6861    1.5902    1.2326 C.3     1  LIG1        0.0000
     21 O          -2.4739    2.2919   -1.0226 O.3     1  LIG1        0.0000
     22 AC         -4.5436    3.5627   -0.6361 Ac      1  LIG1        0.0000
     23 H          -0.0396    1.5230    0.9497 H       1  LIG1        0.0000
     24 H           0.1214    1.8908   -0.8183 H       1  LIG1        0.0000
     25 H           4.7239    0.7839   -0.0187 H       1  LIG1        0.0000
     26 H           4.7147   -1.6436   -0.1873 H       1  LIG1        0.0000
     27 H           3.6810   -3.7053   -0.2745 H       1  LIG1        0.0000
     28 H           2.1564   -3.7000   -1.2040 H       1  LIG1        0.0000
     29 H           2.1287   -3.7835    0.6149 H       1  LIG1        0.0000
     30 H           1.7156    3.0215    0.1552 H       1  LIG1        0.0000
     31 H           3.2298    2.8853   -0.7876 H       1  LIG1        0.0000
     32 H           3.2499    2.7561    1.0129 H       1  LIG1        0.0000
     33 H          -3.9968   -0.5274    0.0222 H       1  LIG1        0.0000
     34 H          -3.8090    0.0126   -1.6726 H       1  LIG1        0.0000
     35 H          -4.7346    1.0004   -0.5085 H       1  LIG1        0.0000
     36 H          -2.8233    0.7277    1.9473 H       1  LIG1        0.0000
     37 H          -3.5428    2.2469    1.3594 H       1  LIG1        0.0000
     38 H          -1.7847    2.1595    1.5733 H       1  LIG1        0.0000
@<TRIPOS>BOND
     1     1     2    1
     2     2     3    1
     3     2     4    1
     4     4     5    1
     5     4     6    1
     6     6     7    2
     7     6     8    1
     8     8     9   ar
     9     1     9    1
    10     9    10   ar
    11    10    11   ar
    12    11    12   ar
    13    12    13   ar
    14     8    13   ar
    15    13    14    1
    16    10    15    1
    17     4    16    1
    18    16    17    1
    19     2    18    1
    20    18    19    1
    21    18    20    1
    22    18    21    1
    23    21    22    1
    24     1    23    1
    25     1    24    1
    26    11    25    1
    27    12    26    1
    28    14    27    1
    29    14    28    1
    30    14    29    1
    31    15    30    1
    32    15    31    1
    33    15    32    1
    34    19    33    1
    35    19    34    1
    36    19    35    1
    37    20    36    1
    38    20    37    1
    39    20    38    1
