REMARK  Name = NuBBE_2514
REMARK  7 active torsions:
REMARK  status: ('A' for Active; 'I' for Inactive)
REMARK    1  A    between atoms: C_1  and  C_2
REMARK    2  A    between atoms: C_1  and  C_4
REMARK    3  A    between atoms: C_9  and  O_11
REMARK    4  A    between atoms: O_11  and  C_12
REMARK    5  A    between atoms: C_14  and  C_19
REMARK    6  A    between atoms: C_16  and  C_18
REMARK    7  A    between atoms: C_19  and  C_20
REMARK                            x       y       z     vdW  Elec       q    Type
REMARK                         _______ _______ _______ _____ _____    ______ ____
ROOT
ATOM      1  C   LIG A   1      -1.534   0.871  -0.569  0.00  0.00    +0.059 C 
ATOM      2  C   LIG A   1      -0.426   1.083   0.433  0.00  0.00    +0.113 C 
ATOM      3  C   LIG A   1      -0.106   2.255   0.982  0.00  0.00    +0.096 C 
ATOM      4  C   LIG A   1      -0.843   3.481   0.601  0.00  0.00    +0.223 C 
ATOM      5  O   LIG A   1      -0.648   4.506   1.235  0.00  0.00    -0.284 OA
ATOM      6  C   LIG A   1      -1.738   3.393  -0.618  0.00  0.00    +0.164 C 
ATOM      7  C   LIG A   1      -2.005   2.187  -1.150  0.00  0.00    +0.038 C 
ATOM      8  O   LIG A   1       0.434   0.002   0.547  0.00  0.00    -0.491 OA
ATOM      9  C   LIG A   1       0.167  -0.831  -0.601  0.00  0.00    +0.181 C 
ATOM     10  C   LIG A   1      -0.694   0.025  -1.554  0.00  0.00    +0.045 C 
ATOM     11  C   LIG A   1      -1.439  -0.825  -2.578  0.00  0.00    +0.012 C 
ENDROOT
BRANCH   6  12
ATOM     12  O   LIG A   1      -2.270   4.514  -1.244  0.00  0.00    -0.492 OA
ATOM     13  C   LIG A   1      -2.504   5.646  -0.412  0.00  0.00    +0.277 C 
ENDBRANCH   6  12
BRANCH   1  14
ATOM     14  C   LIG A   1      -2.754   0.090   0.035  0.00  0.00    +0.045 C 
BRANCH  14  15
ATOM     15  C   LIG A   1      -3.492   0.753   1.181  0.00  0.00    -0.033 C 
ATOM     16  C   LIG A   1      -4.809   1.000   1.212  0.00  0.00    +0.004 C 
ENDBRANCH  14  15
ENDBRANCH   1  14
BRANCH   9  17
ATOM     17  C   LIG A   1       1.493  -1.295  -1.230  0.00  0.00    +0.080 C 
BRANCH  17  18
ATOM     18  C   LIG A   1       2.324  -2.167  -0.309  0.00  0.00    -0.040 A 
ATOM     19  C   LIG A   1       3.615  -1.763   0.070  0.00  0.00    +0.053 A 
ATOM     20  C   LIG A   1       4.335  -2.582   0.916  0.00  0.00    +0.167 A 
ATOM     21  C   LIG A   1       3.827  -3.772   1.379  0.00  0.00    +0.166 A 
ATOM     22  C   LIG A   1       2.572  -4.210   1.021  0.00  0.00    +0.050 A 
ATOM     23  C   LIG A   1       1.817  -3.399   0.167  0.00  0.00    +0.007 A 
ATOM     24  O   LIG A   1       4.693  -4.424   2.200  0.00  0.00    -0.453 OA
ATOM     25  C   LIG A   1       5.796  -3.496   2.220  0.00  0.00    +0.466 C 
ATOM     26  O   LIG A   1       5.587  -2.336   1.388  0.00  0.00    -0.453 OA
ENDBRANCH  17  18
ENDBRANCH   9  17
TORSDOF 5
