REMARK  Name = NuBBE_2331
REMARK  13 active torsions:
REMARK  status: ('A' for Active; 'I' for Inactive)
REMARK    1  A    between atoms: O_1  and  C_2
REMARK    2  A    between atoms: C_2  and  C_3
REMARK    3  A    between atoms: C_5  and  C_6
REMARK    4  A    between atoms: C_6  and  C_7
REMARK    5  A    between atoms: C_8  and  C_9
REMARK    6  A    between atoms: C_8  and  C_10
REMARK    7  A    between atoms: C_14  and  O_16
REMARK    8  A    between atoms: C_17  and  C_18
REMARK    9  A    between atoms: C_17  and  C_24
REMARK   10  A    between atoms: C_18  and  C_19
REMARK   11  A    between atoms: C_19  and  C_20
REMARK   12  A    between atoms: C_21  and  C_22
REMARK   13  A    between atoms: C_21  and  C_23
REMARK                            x       y       z     vdW  Elec       q    Type
REMARK                         _______ _______ _______ _____ _____    ______ ____
ROOT
ATOM      1  C   LIG A   1      -1.635  -1.743   3.276  0.00  0.00    +0.060 A 
ATOM      2  C   LIG A   1      -1.698  -0.359   3.057  0.00  0.00    +0.022 A 
ATOM      3  C   LIG A   1      -0.899   0.250   2.068  0.00  0.00    -0.001 A 
ATOM      4  C   LIG A   1      -0.034  -0.561   1.300  0.00  0.00    +0.128 A 
ATOM      5  C   LIG A   1       0.030  -1.946   1.521  0.00  0.00    -0.002 A 
ATOM      6  C   LIG A   1       0.977  -2.826   0.761  0.00  0.00    +0.074 C 
ATOM      7  C   LIG A   1       1.443  -2.150  -0.516  0.00  0.00    +0.162 C 
ATOM      8  C   LIG A   1       1.801  -0.667  -0.265  0.00  0.00    +0.134 C 
ATOM      9  C   LIG A   1       3.035  -0.511   0.653  0.00  0.00    +0.058 C 
ATOM     10  O   LIG A   1       0.709   0.064   0.332  0.00  0.00    -0.483 OA
ATOM     11  C   LIG A   1      -0.772  -2.528   2.512  0.00  0.00    +0.022 A 
ENDROOT
BRANCH   1  12
ATOM     12  C   LIG A   1      -2.476  -2.340   4.342  0.00  0.00    +0.337 C 
ATOM     13  O   LIG A   1      -3.249  -1.733   5.063  0.00  0.00    -0.245 OA
BRANCH  12  14
ATOM     14  O   LIG A   1      -2.308  -3.668   4.468  0.00  0.00    -0.477 OA
ATOM     15  H   LIG A   1      -2.912  -3.916   5.199  0.00  0.00    +0.295 HD
ENDBRANCH  12  14
ENDBRANCH   1  12
BRANCH   7  16
ATOM     16  O   LIG A   1       2.547  -2.864  -1.075  0.00  0.00    -0.388 OA
ATOM     17  H   LIG A   1       2.216  -3.726  -1.381  0.00  0.00    +0.210 HD
ENDBRANCH   7  16
BRANCH   3  18
ATOM     18  C   LIG A   1      -0.925   1.766   1.928  0.00  0.00    +0.066 C 
BRANCH  18  19
ATOM     19  C   LIG A   1      -2.262   2.331   1.511  0.00  0.00    -0.023 C 
ATOM     20  C   LIG A   1      -3.036   3.231   2.155  0.00  0.00    -0.079 C 
ATOM     21  C   LIG A   1      -2.738   3.865   3.486  0.00  0.00    +0.038 C 
ATOM     22  C   LIG A   1      -4.334   3.707   1.550  0.00  0.00    +0.038 C 
ENDBRANCH  18  19
ENDBRANCH   3  18
BRANCH   8  23
ATOM     23  C   LIG A   1       2.123   0.031  -1.619  0.00  0.00    +0.054 C 
BRANCH  23  24
ATOM     24  C   LIG A   1       0.954   0.050  -2.619  0.00  0.00    +0.031 C 
BRANCH  24  25
ATOM     25  C   LIG A   1       1.355   0.690  -3.920  0.00  0.00    -0.028 C 
ATOM     26  C   LIG A   1       1.886   0.078  -4.998  0.00  0.00    -0.080 C 
ATOM     27  C   LIG A   1       2.181  -1.394  -5.101  0.00  0.00    +0.038 C 
ATOM     28  C   LIG A   1       2.280   0.872  -6.216  0.00  0.00    +0.038 C 
ENDBRANCH  24  25
ENDBRANCH  23  24
ENDBRANCH   8  23
TORSDOF 8
