REMARK  Name = NuBBE_2271
REMARK  6 active torsions:
REMARK  status: ('A' for Active; 'I' for Inactive)
REMARK    1  A    between atoms: C_1  and  C_18
REMARK    2  A    between atoms: C_4  and  C_7
REMARK    3  A    between atoms: C_11  and  C_14
REMARK    4  A    between atoms: C_14  and  C_15
REMARK    5  A    between atoms: C_14  and  C_16
REMARK    6  A    between atoms: C_14  and  O_17
REMARK                            x       y       z     vdW  Elec       q    Type
REMARK                         _______ _______ _______ _____ _____    ______ ____
ROOT
ATOM      1  C   LIG A   1       2.408  -0.837  -0.137  0.00  0.00    -0.047 A 
ATOM      2  C   LIG A   1       1.177  -0.136  -0.142  0.00  0.00    -0.033 A 
ATOM      3  C   LIG A   1       1.179   1.280  -0.098  0.00  0.00    +0.024 A 
ATOM      4  C   LIG A   1       2.400   1.988   0.000  0.00  0.00    -0.040 A 
ATOM      5  C   LIG A   1       3.602   1.267   0.042  0.00  0.00    +0.004 A 
ATOM      6  C   LIG A   1       3.606  -0.123  -0.028  0.00  0.00    +0.004 A 
ATOM      7  C   LIG A   1       2.487   3.491   0.057  0.00  0.00    +0.044 C 
ATOM      8  C   LIG A   1      -0.133   2.004  -0.174  0.00  0.00    +0.164 C 
ATOM      9  O   LIG A   1      -0.218   3.220  -0.024  0.00  0.00    -0.292 OA
ATOM     10  C   LIG A   1      -1.367   1.200  -0.503  0.00  0.00    +0.086 C 
ATOM     11  C   LIG A   1      -1.359  -0.142   0.229  0.00  0.00    +0.032 C 
ATOM     12  C   LIG A   1      -0.118  -0.916  -0.246  0.00  0.00    +0.042 C 
ATOM     13  C   LIG A   1       2.477  -2.340  -0.214  0.00  0.00    +0.044 C 
ENDROOT
BRANCH  11  14
ATOM     14  C   LIG A   1      -2.683  -0.943   0.028  0.00  0.00    +0.064 C 
ATOM     15  C   LIG A   1      -2.649  -2.313   0.723  0.00  0.00    +0.041 C 
ATOM     16  C   LIG A   1      -3.899  -0.169   0.559  0.00  0.00    +0.041 C 
BRANCH  14  17
ATOM     17  O   LIG A   1      -2.912  -1.149  -1.369  0.00  0.00    -0.389 OA
ATOM     18  H   LIG A   1      -2.398  -1.918  -1.667  0.00  0.00    +0.210 HD
ENDBRANCH  14  17
ENDBRANCH  11  14
TORSDOF 2
