@<TRIPOS>MOLECULE
NuBBE_225
 78 80 0 0 0
SMALL
GASTEIGER

@<TRIPOS>ATOM
      1 C           0.3775    2.1157    2.1171 C.3     1  LIG1       -0.0584
      2 C          -0.7733    1.1839    1.7178 C.3     1  LIG1        0.0018
      3 H          -1.6714    1.6641    2.1294 H       1  LIG1        0.0340
      4 C          -0.6056   -0.1585    2.4473 C.3     1  LIG1        0.1328
      5 H          -0.3254    0.0244    3.4938 H       1  LIG1        0.0763
      6 O          -1.8875   -0.8611    2.4990 O.3     1  LIG1       -0.4584
      7 C          -2.7925   -0.3924    3.4158 C.2     1  LIG1        0.3074
      8 C          -4.1413   -1.0690    3.2966 C.3     1  LIG1        0.0447
      9 C          -5.1932   -0.3491    2.4516 C.3     1  LIG1       -0.0458
     10 C          -5.5116    1.0903    2.8316 C.3     1  LIG1       -0.0648
     11 O          -2.5538    0.4764    4.2439 O.2     1  LIG1       -0.2508
     12 C           0.4856   -1.0710    1.8266 C.3     1  LIG1        0.1077
     13 H           0.0783   -2.0905    1.8216 H       1  LIG1        0.0641
     14 O           1.5913   -1.1554    2.7529 O.3     1  LIG1       -0.3870
     15 C           1.0455   -0.7274    0.3762 C.3     1  LIG1        0.0915
     16 C           1.3160   -2.0929   -0.2573 C.2     1  LIG1       -0.0009
     17 C           2.7038   -2.5179    0.0885 C.3     1  LIG1        0.1862
     18 H           2.7217   -2.9788    1.0802 H       1  LIG1        0.0962
     19 O           3.1705   -3.4249   -0.9030 O.3     1  LIG1       -0.3476
     20 C           4.5119   -3.8613   -0.7283 C.3     1  LIG1        0.0482
     21 C           4.6686   -4.7525    0.4900 C.3     1  LIG1       -0.0415
     22 O           3.4457   -1.3133    0.1087 O.3     1  LIG1       -0.3076
     23 C           2.5591   -0.2201    0.4158 C.3     1  LIG1        0.2196
     24 H           2.8165    0.1411    1.4156 H       1  LIG1        0.1068
     25 O           2.8382    0.8363   -0.5169 O.3     1  LIG1       -0.4341
     26 C           3.9353    1.5919   -0.2173 C.2     1  LIG1        0.3061
     27 C           4.1016    2.6799   -1.2483 C.3     1  LIG1        0.0333
     28 O           4.6363    1.4855    0.7497 O.2     1  LIG1       -0.2511
     29 C           0.4788   -2.7359   -1.0889 C.2     1  LIG1       -0.0511
     30 C          -0.7177   -2.0520   -1.6381 C.3     1  LIG1        0.0741
     31 H          -1.5929   -2.2151   -1.0057 H       1  LIG1        0.0638
     32 O          -1.0077   -2.5984   -2.9194 O.3     1  LIG1       -0.3877
     33 C          -0.3752   -0.5748   -1.8232 C.3     1  LIG1       -0.0188
     34 C           0.0915    0.1680   -0.5296 C.3     1  LIG1       -0.0146
     35 H           0.7349    0.9506   -0.9299 H       1  LIG1        0.0318
     36 C          -1.0365    1.0220    0.1731 C.3     1  LIG1       -0.0186
     37 C          -2.4292    0.3776   -0.0210 C.3     1  LIG1       -0.0586
     38 C          -1.1624    2.4743   -0.4677 C.3     1  LIG1       -0.0282
     39 C          -1.6293    2.5832   -1.9075 C.2     1  LIG1       -0.0806
     40 C          -0.9091    2.6304   -3.0479 C.2     1  LIG1       -0.0549
     41 C           0.5433    2.5915   -3.0686 C.2     1  LIG1       -0.0662
     42 C           1.2807    2.1260   -4.0859 C.2     1  LIG1       -0.0985
     43 C          -1.6033    2.6979   -4.3894 C.3     1  LIG1       -0.0400
     44 H           1.3289    1.8279    1.6748 H       1  LIG1        0.0234
     45 H           0.5054    2.1179    3.2074 H       1  LIG1        0.0234
     46 H           0.1648    3.1497    1.8354 H       1  LIG1        0.0234
     47 H          -4.5249   -1.2116    4.3143 H       1  LIG1        0.0377
     48 H          -3.9918   -2.0786    2.8959 H       1  LIG1        0.0377
     49 H          -6.1291   -0.9130    2.5519 H       1  LIG1        0.0268
     50 H          -4.9208   -0.3925    1.3925 H       1  LIG1        0.0268
     51 H          -5.8466    1.1594    3.8707 H       1  LIG1        0.0230
     52 H          -6.3312    1.4553    2.1992 H       1  LIG1        0.0230
     53 H          -4.6625    1.7648    2.6862 H       1  LIG1        0.0230
     54 H           1.2602   -1.4196    3.6301 H       1  LIG1        0.2100
     55 H           5.1991   -3.0094   -0.6980 H       1  LIG1        0.0558
     56 H           4.7669   -4.4452   -1.6203 H       1  LIG1        0.0558
     57 H           4.5434   -4.1815    1.4146 H       1  LIG1        0.0252
     58 H           5.6612   -5.2104    0.5095 H       1  LIG1        0.0252
     59 H           3.9102   -5.5421    0.4902 H       1  LIG1        0.0252
     60 H           3.4279    3.5101   -1.0091 H       1  LIG1        0.0342
     61 H           3.8995    2.2963   -2.2458 H       1  LIG1        0.0342
     62 H           5.1350    3.0338   -1.2256 H       1  LIG1        0.0342
     63 H           0.7499   -3.7100   -1.4868 H       1  LIG1        0.0599
     64 H          -1.2497   -3.5300   -2.7884 H       1  LIG1        0.2102
     65 H          -1.2032   -0.0761   -2.3306 H       1  LIG1        0.0296
     66 H           0.4423   -0.5097   -2.5591 H       1  LIG1        0.0296
     67 H          -2.4449   -0.6778    0.2471 H       1  LIG1        0.0235
     68 H          -2.7855    0.4371   -1.0523 H       1  LIG1        0.0235
     69 H          -3.1700    0.9075    0.5836 H       1  LIG1        0.0235
     70 H          -1.9130    3.0223    0.1236 H       1  LIG1        0.0313
     71 H          -0.2370    3.0444   -0.3384 H       1  LIG1        0.0313
     72 H          -2.7159    2.6025   -2.0079 H       1  LIG1        0.0575
     73 H           1.0626    2.9190   -2.1724 H       1  LIG1        0.0614
     74 H           0.8421    1.7253   -4.9935 H       1  LIG1        0.0535
     75 H           2.3612    2.0845   -4.0168 H       1  LIG1        0.0535
     76 H          -2.6886    2.8070   -4.2967 H       1  LIG1        0.0277
     77 H          -1.4219    1.7869   -4.9706 H       1  LIG1        0.0277
     78 H          -1.2377    3.5572   -4.9637 H       1  LIG1        0.0277
@<TRIPOS>BOND
     1     2     4    1
     2     6     7    1
     3     7     8    1
     4     8     9    1
     5     9    10    1
     6     7    11    2
     7     4    12    1
     8    12    15    1
     9    15    16    1
    10    16    17    1
    11    19    20    1
    12    20    21    1
    13    17    22    1
    14    22    23    1
    15    15    23    1
    16    25    26    1
    17    26    27    1
    18    26    28    2
    19    16    29    2
    20    29    30    1
    21    30    33    1
    22    33    34    1
    23    15    34    1
    24    34    36    1
    25     2    36    1
    26    38    39    1
    27    39    40    2
    28    40    41    1
    29    41    42    2
    30    40    43    1
    31    12    13    1
    32    12    14    1
    33    17    18    1
    34    17    19    1
    35    23    24    1
    36    23    25    1
    37    34    35    1
    38    36    37    1
    39    36    38    1
    40     4     6    1
    41     4     5    1
    42     2     3    1
    43     2     1    1
    44    30    32    1
    45    30    31    1
    46     1    44    1
    47     1    45    1
    48     1    46    1
    49     8    47    1
    50     8    48    1
    51     9    49    1
    52     9    50    1
    53    10    51    1
    54    10    52    1
    55    10    53    1
    56    14    54    1
    57    20    55    1
    58    20    56    1
    59    21    57    1
    60    21    58    1
    61    21    59    1
    62    27    60    1
    63    27    61    1
    64    27    62    1
    65    29    63    1
    66    32    64    1
    67    33    65    1
    68    33    66    1
    69    37    67    1
    70    37    68    1
    71    37    69    1
    72    38    70    1
    73    38    71    1
    74    39    72    1
    75    41    73    1
    76    42    74    1
    77    42    75    1
    78    43    76    1
    79    43    77    1
    80    43    78    1
