REMARK  Name = NuBBE_1189
REMARK  7 active torsions:
REMARK  status: ('A' for Active; 'I' for Inactive)
REMARK    1  A    between atoms: C_3  and  C_4
REMARK    2  A    between atoms: C_6  and  O_7
REMARK    3  A    between atoms: C_8  and  O_9
REMARK    4  A    between atoms: O_9  and  C_10
REMARK    5  A    between atoms: C_18  and  O_19
REMARK    6  A    between atoms: C_20  and  O_21
REMARK    7  A    between atoms: O_21  and  C_22
REMARK                            x       y       z     vdW  Elec       q    Type
REMARK                         _______ _______ _______ _____ _____    ______ ____
ROOT
ATOM      1  O   LIG A   1      -1.324  -0.853   0.246  0.00  0.00    -0.286 OA
ATOM      2  C   LIG A   1      -0.126  -0.613   0.190  0.00  0.00    +0.200 A 
ATOM      3  C   LIG A   1       0.433   0.776   0.123  0.00  0.00    +0.064 A 
ATOM      4  C   LIG A   1       1.771   0.884   0.088  0.00  0.00    +0.208 A 
ATOM      5  O   LIG A   1       2.686  -0.135   0.136  0.00  0.00    -0.462 OA
ATOM      6  C   LIG A   1       0.851  -1.717   0.188  0.00  0.00    +0.068 A 
ATOM      7  C   LIG A   1       2.204  -1.414   0.176  0.00  0.00    +0.142 A 
ATOM      8  C   LIG A   1       3.151  -2.432   0.200  0.00  0.00    +0.096 A 
ATOM      9  C   LIG A   1       2.738  -3.765   0.217  0.00  0.00    +0.162 A 
ATOM     10  C   LIG A   1       1.373  -4.091   0.205  0.00  0.00    +0.162 A 
ATOM     11  C   LIG A   1       0.431  -3.053   0.198  0.00  0.00    +0.064 A 
ENDROOT
BRANCH   3  12
ATOM     12  C   LIG A   1      -0.420   1.984   0.078  0.00  0.00    -0.008 A 
ATOM     13  C   LIG A   1      -1.672   1.954  -0.549  0.00  0.00    +0.058 A 
ATOM     14  C   LIG A   1      -2.502   3.081  -0.572  0.00  0.00    +0.159 A 
ATOM     15  C   LIG A   1      -2.085   4.280   0.012  0.00  0.00    +0.161 A 
ATOM     16  C   LIG A   1      -0.833   4.318   0.632  0.00  0.00    +0.050 A 
ATOM     17  C   LIG A   1      -0.014   3.187   0.675  0.00  0.00    +0.012 A 
BRANCH  14  18
ATOM     18  O   LIG A   1      -3.723   2.959  -1.178  0.00  0.00    -0.503 OA
ATOM     19  H   LIG A   1      -3.848   2.035  -1.453  0.00  0.00    +0.292 HD
ENDBRANCH  14  18
BRANCH  15  20
ATOM     20  O   LIG A   1      -2.747   5.474   0.073  0.00  0.00    -0.491 OA
ATOM     21  C   LIG A   1      -4.018   5.554  -0.555  0.00  0.00    +0.277 C 
ENDBRANCH  15  20
ENDBRANCH   3  12
BRANCH   9  22
ATOM     22  O   LIG A   1       3.708  -4.728   0.247  0.00  0.00    -0.503 OA
ATOM     23  H   LIG A   1       4.583  -4.308   0.267  0.00  0.00    +0.292 HD
ENDBRANCH   9  22
BRANCH  10  24
ATOM     24  O   LIG A   1       0.806  -5.338   0.199  0.00  0.00    -0.491 OA
ATOM     25  C   LIG A   1       1.679  -6.458   0.159  0.00  0.00    +0.277 C 
ENDBRANCH  10  24
TORSDOF 5
