REMARK  Name = NuBBE_1185
REMARK  16 active torsions:
REMARK  status: ('A' for Active; 'I' for Inactive)
REMARK    1  A    between atoms: O_1  and  C_2
REMARK    2  A    between atoms: C_3  and  O_45
REMARK    3  A    between atoms: C_17  and  O_18
REMARK    4  A    between atoms: O_18  and  C_19
REMARK    5  A    between atoms: C_22  and  C_36
REMARK    6  A    between atoms: C_24  and  O_35
REMARK    7  A    between atoms: C_26  and  O_31
REMARK    8  A    between atoms: C_28  and  O_30
REMARK    9  A    between atoms: O_31  and  C_32
REMARK   10  A    between atoms: C_32  and  C_33
REMARK   11  A    between atoms: C_36  and  O_37
REMARK   12  A    between atoms: O_37  and  C_38
REMARK   13  A    between atoms: C_38  and  C_39
REMARK   14  A    between atoms: C_41  and  O_42
REMARK   15  A    between atoms: O_42  and  C_43
REMARK   16  A    between atoms: O_45  and  C_46
REMARK                            x       y       z     vdW  Elec       q    Type
REMARK                         _______ _______ _______ _____ _____    ______ ____
ROOT
ATOM      1  C   LIG A   1      -4.192  -5.446   0.945  0.00  0.00    +0.202 A 
ATOM      2  C   LIG A   1      -5.306  -5.057   0.185  0.00  0.00    +0.166 A 
ATOM      3  C   LIG A   1      -5.216  -3.922  -0.619  0.00  0.00    +0.065 A 
ATOM      4  C   LIG A   1      -4.041  -3.163  -0.613  0.00  0.00    +0.074 A 
ATOM      5  C   LIG A   1      -2.927  -3.563   0.124  0.00  0.00    +0.047 A 
ATOM      6  C   LIG A   1      -3.002  -4.724   0.875  0.00  0.00    +0.185 A 
ATOM      7  O   LIG A   1      -1.871  -5.154   1.607  0.00  0.00    -0.418 OA
ATOM      8  C   LIG A   1      -0.633  -4.505   1.558  0.00  0.00    +0.345 A 
ATOM      9  O   LIG A   1       0.361  -4.954   2.115  0.00  0.00    -0.244 OA
ATOM     10  C   LIG A   1      -4.007  -1.892  -1.358  0.00  0.00    +0.345 A 
ATOM     11  O   LIG A   1      -2.897  -1.098  -1.116  0.00  0.00    -0.418 OA
ATOM     12  C   LIG A   1      -1.732  -1.502  -0.417  0.00  0.00    +0.186 A 
ATOM     13  C   LIG A   1      -1.734  -2.764   0.169  0.00  0.00    +0.047 A 
ATOM     14  C   LIG A   1      -0.600  -3.203   0.841  0.00  0.00    +0.074 A 
ATOM     15  C   LIG A   1       0.539  -2.388   0.881  0.00  0.00    +0.065 A 
ATOM     16  C   LIG A   1       0.511  -1.082   0.352  0.00  0.00    +0.170 A 
ATOM     17  C   LIG A   1      -0.643  -0.624  -0.312  0.00  0.00    +0.205 A 
ATOM     18  O   LIG A   1      -4.919  -1.538  -2.094  0.00  0.00    -0.244 OA
ENDROOT
BRANCH   1  19
ATOM     19  O   LIG A   1      -4.284  -6.487   1.827  0.00  0.00    -0.501 OA
ATOM     20  H   LIG A   1      -5.236  -6.623   1.988  0.00  0.00    +0.292 HD
ENDBRANCH   1  19
BRANCH  17  21
ATOM     21  O   LIG A   1      -0.682   0.673  -0.740  0.00  0.00    -0.488 OA
ATOM     22  C   LIG A   1      -1.448   0.975  -1.901  0.00  0.00    +0.277 C 
ENDBRANCH  17  21
BRANCH   2  23
ATOM     23  O   LIG A   1      -6.425  -5.843   0.287  0.00  0.00    -0.491 OA
ATOM     24  C   LIG A   1      -7.660  -5.200  -0.032  0.00  0.00    +0.277 C 
ENDBRANCH   2  23
BRANCH  16  25
ATOM     25  O   LIG A   1       1.693  -0.403   0.531  0.00  0.00    -0.457 OA
BRANCH  25  26
ATOM     26  C   LIG A   1       1.634   1.021   0.723  0.00  0.00    +0.341 C 
ATOM     27  O   LIG A   1       1.716   1.688  -0.529  0.00  0.00    -0.330 OA
ATOM     28  C   LIG A   1       1.532   3.096  -0.424  0.00  0.00    +0.192 C 
ATOM     29  C   LIG A   1       2.752   3.692   0.277  0.00  0.00    +0.190 C 
ATOM     30  C   LIG A   1       3.019   2.979   1.620  0.00  0.00    +0.242 C 
ATOM     31  C   LIG A   1       2.864   1.445   1.552  0.00  0.00    +0.226 C 
BRANCH  31  32
ATOM     32  O   LIG A   1       2.765   0.940   2.897  0.00  0.00    -0.382 OA
ATOM     33  H   LIG A   1       3.619   1.121   3.329  0.00  0.00    +0.210 HD
ENDBRANCH  31  32
BRANCH  29  34
ATOM     34  O   LIG A   1       2.568   5.104   0.440  0.00  0.00    -0.385 OA
ATOM     35  H   LIG A   1       2.324   5.306   1.364  0.00  0.00    +0.210 HD
ENDBRANCH  29  34
BRANCH  30  36
ATOM     36  O   LIG A   1       4.404   3.237   1.991  0.00  0.00    -0.456 OA
BRANCH  36  37
ATOM     37  C   LIG A   1       4.668   4.392   2.658  0.00  0.00    +0.304 C 
ATOM     38  C   LIG A   1       6.158   4.622   2.664  0.00  0.00    +0.136 C 
ATOM     39  O   LIG A   1       3.841   5.120   3.148  0.00  0.00    -0.251 OA
ENDBRANCH  36  37
ENDBRANCH  30  36
BRANCH  28  40
ATOM     40  C   LIG A   1       1.330   3.685  -1.832  0.00  0.00    +0.266 C 
BRANCH  40  41
ATOM     41  O   LIG A   1       2.472   3.466  -2.685  0.00  0.00    -0.462 OA
BRANCH  41  42
ATOM     42  C   LIG A   1       2.518   2.254  -3.309  0.00  0.00    +0.304 C 
ATOM     43  C   LIG A   1       3.723   2.161  -4.190  0.00  0.00    +0.136 C 
ATOM     44  O   LIG A   1       1.678   1.368  -3.231  0.00  0.00    -0.251 OA
ENDBRANCH  41  42
ENDBRANCH  40  41
ENDBRANCH  28  40
ENDBRANCH  25  26
ENDBRANCH  16  25
TORSDOF 12
