REMARK  Name = NuBBE_536
REMARK  11 active torsions:
REMARK  status: ('A' for Active; 'I' for Inactive)
REMARK    1  A    between atoms: O_1  and  C_2
REMARK    2  A    between atoms: C_2  and  C_4
REMARK    3  A    between atoms: C_2  and  C_12
REMARK    4  A    between atoms: C_5  and  C_6
REMARK    5  A    between atoms: C_12  and  C_13
REMARK    6  A    between atoms: C_13  and  C_15
REMARK    7  A    between atoms: C_13  and  O_28
REMARK    8  A    between atoms: C_15  and  C_16
REMARK    9  A    between atoms: C_16  and  C_18
REMARK   10  A    between atoms: C_16  and  O_27
REMARK   11  A    between atoms: C_18  and  C_19
REMARK                            x       y       z     vdW  Elec       q    Type
REMARK                         _______ _______ _______ _____ _____    ______ ____
ROOT
ATOM      1  C   LIG A   1       0.775   0.092  -0.344  0.00  0.00    +0.120 C 
ENDROOT
BRANCH   1   2
ATOM      2  O   LIG A   1       1.982   0.809  -0.617  0.00  0.00    -0.392 OA
ATOM      3  H   LIG A   1       2.671   0.424  -0.029  0.00  0.00    +0.210 HD
ENDBRANCH   1   2
BRANCH   1   4
ATOM      4  C   LIG A   1       0.601  -0.095   1.181  0.00  0.00    +0.067 C 
BRANCH   4   5
ATOM      5  C   LIG A   1       1.589  -1.125   1.767  0.00  0.00    +0.140 C 
BRANCH   5   6
ATOM      6  O   LIG A   1       2.899  -0.559   1.663  0.00  0.00    -0.388 OA
ATOM      7  H   LIG A   1       3.475  -1.034   2.288  0.00  0.00    +0.210 HD
ENDBRANCH   5   6
BRANCH   5   8
ATOM      8  C   LIG A   1       1.280  -1.406   3.217  0.00  0.00    +0.004 C 
ATOM      9  C   LIG A   1       0.925  -2.563   3.808  0.00  0.00    +0.006 C 
BRANCH   9  10
ATOM     10  C   LIG A   1       0.789  -3.885   3.187  0.00  0.00    -0.025 A 
ATOM     11  C   LIG A   1      -0.439  -4.302   2.661  0.00  0.00    +0.008 A 
ATOM     12  C   LIG A   1      -0.564  -5.566   2.073  0.00  0.00    +0.001 A 
ATOM     13  C   LIG A   1       0.536  -6.419   2.009  0.00  0.00    +0.000 A 
ATOM     14  C   LIG A   1       1.752  -6.026   2.565  0.00  0.00    +0.001 A 
ATOM     15  C   LIG A   1       1.875  -4.768   3.164  0.00  0.00    +0.008 A 
ENDBRANCH   9  10
ENDBRANCH   5   8
ENDBRANCH   4   5
ENDBRANCH   1   4
BRANCH   1  16
ATOM     16  C   LIG A   1      -0.419   0.862  -0.957  0.00  0.00    +0.062 C 
BRANCH  16  17
ATOM     17  C   LIG A   1      -0.346   1.066  -2.488  0.00  0.00    +0.120 C 
BRANCH  17  18
ATOM     18  O   LIG A   1       0.845   1.738  -2.882  0.00  0.00    -0.392 OA
ATOM     19  H   LIG A   1       1.554   1.475  -2.254  0.00  0.00    +0.210 HD
ENDBRANCH  17  18
BRANCH  17  20
ATOM     20  C   LIG A   1      -1.558   1.828  -3.076  0.00  0.00    +0.076 C 
BRANCH  20  21
ATOM     21  C   LIG A   1      -1.823   3.244  -2.526  0.00  0.00    +0.183 C 
ATOM     22  O   LIG A   1      -2.997   3.789  -3.176  0.00  0.00    -0.458 OA
ATOM     23  C   LIG A   1      -3.390   5.063  -2.868  0.00  0.00    +0.332 C 
ATOM     24  C   LIG A   1      -2.354   5.933  -2.253  0.00  0.00    +0.087 C 
ATOM     25  C   LIG A   1      -1.070   5.564  -2.221  0.00  0.00    -0.016 C 
ATOM     26  C   LIG A   1      -0.652   4.212  -2.704  0.00  0.00    +0.072 C 
ATOM     27  O   LIG A   1      -4.503   5.490  -3.096  0.00  0.00    -0.246 OA
ENDBRANCH  20  21
ENDBRANCH  17  20
ENDBRANCH  16  17
ENDBRANCH   1  16
TORSDOF 11
