REMARK  Name = NuBBE_1720
REMARK  6 active torsions:
REMARK  status: ('A' for Active; 'I' for Inactive)
REMARK    1  A    between atoms: O_1  and  C_2
REMARK    2  A    between atoms: O_1  and  C_3
REMARK    3  A    between atoms: C_10  and  C_13
REMARK    4  A    between atoms: C_10  and  C_14
REMARK    5  A    between atoms: C_21  and  O_25
REMARK    6  A    between atoms: C_22  and  O_24
REMARK                            x       y       z     vdW  Elec       q    Type
REMARK                         _______ _______ _______ _____ _____    ______ ____
ROOT
ATOM      1  C   LIG A   1      -1.981  -0.909  -0.202  0.00  0.00    +0.138 A 
ATOM      2  C   LIG A   1      -1.305   0.325  -0.287  0.00  0.00    +0.107 A 
ATOM      3  C   LIG A   1       0.096   0.368  -0.203  0.00  0.00    +0.153 A 
ATOM      4  C   LIG A   1       0.837  -0.816  -0.030  0.00  0.00    +0.060 A 
ATOM      5  C   LIG A   1       0.158  -2.032   0.062  0.00  0.00    +0.136 A 
ATOM      6  C   LIG A   1      -1.234  -2.079  -0.034  0.00  0.00    +0.092 A 
ATOM      7  O   LIG A   1       0.775  -3.242   0.220  0.00  0.00    -0.481 OA
ATOM      8  C   LIG A   1       2.170  -3.262   0.587  0.00  0.00    +0.123 C 
ATOM      9  C   LIG A   1       2.912  -1.971   0.337  0.00  0.00    +0.020 C 
ATOM     10  C   LIG A   1       2.296  -0.823   0.043  0.00  0.00    +0.015 C 
ATOM     11  C   LIG A   1       2.806  -4.382  -0.245  0.00  0.00    +0.060 C 
ATOM     12  C   LIG A   1       2.244  -3.620   2.076  0.00  0.00    +0.060 C 
ATOM     13  O   LIG A   1       0.827   1.535  -0.277  0.00  0.00    -0.454 OA
ATOM     14  C   LIG A   1       0.170   2.728  -0.394  0.00  0.00    +0.143 A 
ATOM     15  C   LIG A   1      -1.214   2.840  -0.488  0.00  0.00    +0.068 A 
ATOM     16  C   LIG A   1      -2.023   1.614  -0.458  0.00  0.00    +0.204 A 
ATOM     17  O   LIG A   1      -3.238   1.715  -0.569  0.00  0.00    -0.286 OA
ATOM     18  C   LIG A   1      -1.829   4.095  -0.605  0.00  0.00    +0.064 A 
ATOM     19  C   LIG A   1      -1.032   5.231  -0.623  0.00  0.00    +0.159 A 
ATOM     20  C   LIG A   1       0.354   5.119  -0.529  0.00  0.00    +0.162 A 
ATOM     21  C   LIG A   1       0.963   3.877  -0.416  0.00  0.00    +0.096 A 
ENDROOT
BRANCH   1  22
ATOM     22  O   LIG A   1      -3.346  -0.898  -0.294  0.00  0.00    -0.494 OA
ATOM     23  C   LIG A   1      -4.051  -2.116  -0.102  0.00  0.00    +0.277 C 
ENDBRANCH   1  22
BRANCH  20  24
ATOM     24  O   LIG A   1       1.130   6.241  -0.547  0.00  0.00    -0.503 OA
ATOM     25  H   LIG A   1       0.496   6.982  -0.630  0.00  0.00    +0.292 HD
ENDBRANCH  20  24
BRANCH  19  26
ATOM     26  O   LIG A   1      -1.563   6.485  -0.731  0.00  0.00    -0.503 OA
ATOM     27  H   LIG A   1      -2.532   6.402  -0.787  0.00  0.00    +0.292 HD
ENDBRANCH  19  26
TORSDOF 3
