@<TRIPOS>MOLECULE
NuBBE_2417
 50 52 0 0 0
SMALL
GASTEIGER

@<TRIPOS>ATOM
      1 O          -2.6540   -1.6309   -0.2794 O.3     1  LIG1       -0.4910
      2 C          -3.4586   -2.8015   -0.2418 C.3     1  LIG1        0.0790
      3 C          -1.2913   -1.7626   -0.3241 C.ar    1  LIG1        0.1685
      4 C          -0.5723   -0.5473   -0.3623 C.ar    1  LIG1        0.0050
      5 C           0.8482   -0.5776   -0.3420 C.ar    1  LIG1       -0.0470
      6 C           1.5982   -1.7759   -0.3182 C.ar    1  LIG1        0.0076
      7 C           0.8375   -2.9531   -0.3430 C.ar    1  LIG1        0.1661
      8 C          -0.5686   -2.9526   -0.3191 C.ar    1  LIG1        0.2014
      9 O          -1.1697   -4.1875   -0.2931 O.3     1  LIG1       -0.5009
     10 O           1.3813   -4.2130   -0.4047 O.3     1  LIG1       -0.5030
     11 C           3.1535   -1.7244   -0.2805 C.3     1  LIG1        0.0114
     12 C           3.6971   -1.6280   -1.7120 C.2     1  LIG1       -0.0811
     13 C           4.8088   -0.9825   -2.1223 C.2     1  LIG1       -0.1018
     14 C           3.6580   -0.5406    0.5950 C.3     1  LIG1       -0.0522
     15 C           3.7713   -2.9842    0.3755 C.3     1  LIG1       -0.0522
     16 C          -1.3320    0.7813   -0.3683 C.3     1  LIG1        0.0260
     17 H          -2.2889    0.6380   -0.8913 H       1  LIG1        0.0386
     18 C          -1.6376    1.2418    1.0623 C.3     1  LIG1       -0.0142
     19 C          -2.1645    2.6514    1.0843 C.ar    1  LIG1       -0.0048
     20 C          -2.0546    3.4831   -0.0369 C.ar    1  LIG1        0.1272
     21 O          -1.4934    3.0831   -1.2215 O.3     1  LIG1       -0.4910
     22 C          -0.6416    1.9356   -1.1042 C.3     1  LIG1        0.0968
     23 C          -2.5569    4.7852   -0.0079 C.ar    1  LIG1        0.0218
     24 C          -3.1416    5.2666    1.1585 C.ar    1  LIG1        0.1203
     25 C          -3.2420    4.4636    2.2878 C.ar    1  LIG1       -0.0197
     26 C          -2.7546    3.1564    2.2521 C.ar    1  LIG1       -0.0516
     27 O          -3.6309    6.5375    1.2368 O.3     1  LIG1       -0.5066
     28 H          -4.4955   -2.4839   -0.0939 H       1  LIG1        0.0660
     29 H          -3.2083   -3.4443    0.6075 H       1  LIG1        0.0660
     30 H          -3.4119   -3.3381   -1.1952 H       1  LIG1        0.0660
     31 H           1.3812    0.3695   -0.3301 H       1  LIG1        0.0626
     32 H          -0.4347   -4.8150   -0.1375 H       1  LIG1        0.2924
     33 H           1.8757   -4.2477   -1.2439 H       1  LIG1        0.2923
     34 H           3.1170   -2.1401   -2.4790 H       1  LIG1        0.0575
     35 H           5.4531   -0.4543   -1.4369 H       1  LIG1        0.0532
     36 H           5.0888   -0.9893   -3.1668 H       1  LIG1        0.0532
     37 H           3.4896    0.4348    0.1242 H       1  LIG1        0.0241
     38 H           4.7397   -0.6083    0.7772 H       1  LIG1        0.0241
     39 H           3.1718   -0.5328    1.5762 H       1  LIG1        0.0241
     40 H           3.6697   -3.8812   -0.2409 H       1  LIG1        0.0241
     41 H           3.3162   -3.1791    1.3540 H       1  LIG1        0.0241
     42 H           4.8507   -2.8681    0.5316 H       1  LIG1        0.0241
     43 H          -0.7297    1.2083    1.6786 H       1  LIG1        0.0321
     44 H          -2.3706    0.5660    1.5208 H       1  LIG1        0.0321
     45 H           0.2888    2.2519   -0.6165 H       1  LIG1        0.0703
     46 H          -0.3821    1.6288   -2.1241 H       1  LIG1        0.0703
     47 H          -2.4742    5.4046   -0.8946 H       1  LIG1        0.0691
     48 H          -3.7010    4.8527    3.1922 H       1  LIG1        0.0654
     49 H          -2.8424    2.5317    3.1380 H       1  LIG1        0.0623
     50 H          -3.4928    6.9726    0.3793 H       1  LIG1        0.2921
@<TRIPOS>BOND
     1     1     2    1
     2     1     3    1
     3     3     4   ar
     4     4     5   ar
     5     5     6   ar
     6     6     7   ar
     7     7     8   ar
     8     3     8   ar
     9     8     9    1
    10     7    10    1
    11     6    11    1
    12    11    12    1
    13    12    13    2
    14    11    14    1
    15    11    15    1
    16     4    16    1
    17    16    17    1
    18    16    18    1
    19    18    19    1
    20    19    20   ar
    21    20    21    1
    22    21    22    1
    23    16    22    1
    24    20    23   ar
    25    23    24   ar
    26    24    25   ar
    27    25    26   ar
    28    19    26   ar
    29    24    27    1
    30     2    28    1
    31     2    29    1
    32     2    30    1
    33     5    31    1
    34     9    32    1
    35    10    33    1
    36    12    34    1
    37    13    35    1
    38    13    36    1
    39    14    37    1
    40    14    38    1
    41    14    39    1
    42    15    40    1
    43    15    41    1
    44    15    42    1
    45    18    43    1
    46    18    44    1
    47    22    45    1
    48    22    46    1
    49    23    47    1
    50    25    48    1
    51    26    49    1
    52    27    50    1
