REMARK  Name = NuBBE_671
REMARK  3 active torsions:
REMARK  status: ('A' for Active; 'I' for Inactive)
REMARK    1  A    between atoms: O_1  and  C_2
REMARK    2  A    between atoms: C_5  and  O_6
REMARK    3  A    between atoms: C_7  and  C_8
REMARK                            x       y       z     vdW  Elec       q    Type
REMARK                         _______ _______ _______ _____ _____    ______ ____
ROOT
ATOM      1  C   LIG A   1      -1.629  -1.791  -0.052  0.00  0.00    +0.131 A 
ATOM      2  C   LIG A   1      -0.906  -0.590  -0.014  0.00  0.00    +0.106 A 
ATOM      3  C   LIG A   1       0.498  -0.626  -0.013  0.00  0.00    +0.002 A 
ATOM      4  C   LIG A   1       1.283   0.653   0.049  0.00  0.00    +0.186 C 
ATOM      5  C   LIG A   1       0.432   1.806  -0.498  0.00  0.00    +0.206 C 
ATOM      6  C   LIG A   1       1.071   3.168  -0.253  0.00  0.00    +0.055 C 
ATOM      7  O   LIG A   1      -0.864   1.827   0.140  0.00  0.00    -0.455 OA
ATOM      8  C   LIG A   1      -1.625   0.704   0.099  0.00  0.00    +0.343 C 
ATOM      9  O   LIG A   1      -2.842   0.734   0.216  0.00  0.00    -0.245 OA
ATOM     10  C   LIG A   1       1.158  -1.864  -0.024  0.00  0.00    +0.007 A 
ATOM     11  C   LIG A   1       0.428  -3.053  -0.058  0.00  0.00    +0.004 A 
ATOM     12  C   LIG A   1      -0.965  -3.016  -0.079  0.00  0.00    +0.046 A 
ENDROOT
BRANCH   1  13
ATOM     13  O   LIG A   1      -2.997  -1.851  -0.050  0.00  0.00    -0.506 OA
ATOM     14  H   LIG A   1      -3.354  -0.939   0.043  0.00  0.00    +0.292 HD
ENDBRANCH   1  13
BRANCH   4  15
ATOM     15  O   LIG A   1       1.670   0.866   1.403  0.00  0.00    -0.384 OA
ATOM     16  H   LIG A   1       0.860   1.006   1.925  0.00  0.00    +0.210 HD
ENDBRANCH   4  15
TORSDOF 2
