@<TRIPOS>MOLECULE
NuBBE_1195
 86 89 0 0 0
SMALL
GASTEIGER

@<TRIPOS>ATOM
      1 C          -1.6140   -3.0397    1.5850 C.3     1  LIG1       -0.0355
      2 C          -0.9959   -1.9423    2.4846 C.3     1  LIG1        0.0705
      3 O           0.3079   -1.6815    1.9369 O.3     1  LIG1       -0.3673
      4 C           1.3271   -2.3800    2.6831 C.3     1  LIG1        0.0876
      5 C           2.3509   -3.0714    1.7462 C.3     1  LIG1        0.0865
      6 C           3.4302   -3.7918    2.5503 C.3     1  LIG1       -0.0339
      7 O           1.6890   -4.0547    0.9373 O.3     1  LIG1       -0.3866
      8 C           3.0041   -2.0504    0.8173 C.3     1  LIG1       -0.0339
      9 H           1.8451   -1.6076    3.2667 H       1  LIG1        0.0625
     10 C           0.5989   -3.3111    3.6369 C.3     1  LIG1       -0.0213
     11 C          -0.6977   -2.5680    3.8662 C.3     1  LIG1       -0.0213
     12 C          -1.8458   -0.6065    2.6342 C.3     1  LIG1       -0.0064
     13 H          -2.7256   -0.9517    3.2043 H       1  LIG1        0.0332
     14 C          -1.1792    0.4935    3.5037 C.3     1  LIG1       -0.0206
     15 C          -1.2663    1.8571    2.7758 C.3     1  LIG1        0.0618
     16 H          -0.3193    2.3990    2.8420 H       1  LIG1        0.0599
     17 O          -2.2224    2.6486    3.4910 O.3     1  LIG1       -0.3912
     18 C          -1.7106    1.6071    1.2988 C.3     1  LIG1        0.0051
     19 C          -2.7820    2.6557    0.8678 C.3     1  LIG1       -0.0564
     20 C          -0.4914    1.5956    0.1867 C.3     1  LIG1        0.0052
     21 C          -0.9206    0.7537   -1.0842 C.3     1  LIG1       -0.0267
     22 C          -1.4854   -0.6032   -0.6710 C.3     1  LIG1       -0.0488
     23 C          -2.7438   -0.4590    0.1522 C.3     1  LIG1       -0.0490
     24 C          -2.4579    0.2270    1.4639 C.3     1  LIG1       -0.0272
     25 C           0.8159    1.1370    0.8736 C.3     1  LIG1       -0.0563
     26 C          -0.1749    2.9992   -0.4317 C.3     1  LIG1        0.0620
     27 H          -1.0301    3.3727   -1.0073 H       1  LIG1        0.0599
     28 O           0.0873    3.9534    0.5975 O.3     1  LIG1       -0.3912
     29 C           1.0470    2.9494   -1.3598 C.3     1  LIG1       -0.0193
     30 C           0.9882    1.9254   -2.5228 C.3     1  LIG1       -0.0124
     31 C           0.0887    0.6250   -2.3092 C.3     1  LIG1       -0.0216
     32 C           0.9715   -0.6465   -2.1624 C.3     1  LIG1       -0.0587
     33 C          -0.7606    0.3139   -3.6341 C.3     1  LIG1       -0.0367
     34 C          -1.7760    1.3793   -4.1064 C.3     1  LIG1        0.0453
     35 C          -2.4819    0.9416   -5.3859 C.2     1  LIG1        0.3047
     36 O          -2.2993    1.8331   -6.3982 O.3     1  LIG1       -0.4806
     37 O          -3.1771   -0.0362   -5.5343 O.2     1  LIG1       -0.2510
     38 C           2.4099    1.6839   -3.0939 C.2     1  LIG1       -0.0760
     39 C           3.5147    1.1741   -2.1896 C.3     1  LIG1       -0.0438
     40 C           2.7140    1.9201   -4.3835 C.2     1  LIG1       -0.0994
     41 H          -1.0151   -3.9576    1.6011 H       1  LIG1        0.0257
     42 H          -1.5929   -2.7891    0.5265 H       1  LIG1        0.0257
     43 H          -2.6367   -3.3004    1.8641 H       1  LIG1        0.0257
     44 H           4.1627   -4.2595    1.8829 H       1  LIG1        0.0258
     45 H           3.0004   -4.6025    3.1472 H       1  LIG1        0.0258
     46 H           3.9565   -3.1014    3.2164 H       1  LIG1        0.0258
     47 H           2.3025   -4.3345    0.2371 H       1  LIG1        0.2102
     48 H           3.7448   -2.5171    0.1583 H       1  LIG1        0.0258
     49 H           3.4890   -1.2392    1.3692 H       1  LIG1        0.0258
     50 H           2.2474   -1.6234    0.1675 H       1  LIG1        0.0258
     51 H           1.1640   -3.4833    4.5571 H       1  LIG1        0.0292
     52 H           0.4068   -4.2902    3.1858 H       1  LIG1        0.0292
     53 H          -0.5177   -1.8027    4.6284 H       1  LIG1        0.0294
     54 H          -1.4955   -3.2187    4.2377 H       1  LIG1        0.0294
     55 H          -0.1360    0.2595    3.7325 H       1  LIG1        0.0294
     56 H          -1.7019    0.5445    4.4697 H       1  LIG1        0.0294
     57 H          -1.7734    2.9752    4.2902 H       1  LIG1        0.2098
     58 H          -2.4084    3.6801    0.9579 H       1  LIG1        0.0236
     59 H          -3.6839    2.6024    1.4897 H       1  LIG1        0.0236
     60 H          -3.1124    2.5016   -0.1632 H       1  LIG1        0.0236
     61 H          -1.7734    1.3071   -1.4889 H       1  LIG1        0.0312
     62 H          -0.7038   -1.1197   -0.1196 H       1  LIG1        0.0268
     63 H          -1.7372   -1.2313   -1.5281 H       1  LIG1        0.0268
     64 H          -3.2388   -1.4196    0.3176 H       1  LIG1        0.0268
     65 H          -3.4735    0.1303   -0.4193 H       1  LIG1        0.0268
     66 H          -3.4608    0.4752    1.8531 H       1  LIG1        0.0311
     67 H           0.6494    0.3978    1.6369 H       1  LIG1        0.0236
     68 H           1.3140    1.9649    1.3941 H       1  LIG1        0.0236
     69 H           1.5534    0.7337    0.1883 H       1  LIG1        0.0236
     70 H           0.1319    4.8292    0.1763 H       1  LIG1        0.2098
     71 H           1.9407    2.8233   -0.7428 H       1  LIG1        0.0296
     72 H           1.1957    3.9514   -1.7892 H       1  LIG1        0.0296
     73 H           0.4730    2.5002   -3.3006 H       1  LIG1        0.0352
     74 H           1.6327   -0.5565   -1.3123 H       1  LIG1        0.0235
     75 H           1.5906   -0.8272   -3.0477 H       1  LIG1        0.0235
     76 H           0.3991   -1.5691   -2.0292 H       1  LIG1        0.0235
     77 H          -0.0712    0.0789   -4.4556 H       1  LIG1        0.0276
     78 H          -1.3249   -0.6153   -3.4762 H       1  LIG1        0.0276
     79 H          -1.2876    2.3304   -4.2992 H       1  LIG1        0.0378
     80 H          -2.5612    1.5387   -3.3817 H       1  LIG1        0.0378
     81 H          -2.8430    1.4705   -7.1271 H       1  LIG1        0.2951
     82 H           4.5044    1.4685   -2.5563 H       1  LIG1        0.0274
     83 H           3.5135    0.0825   -2.1414 H       1  LIG1        0.0274
     84 H           3.4407    1.5541   -1.1702 H       1  LIG1        0.0274
     85 H           3.7178    1.7363   -4.7624 H       1  LIG1        0.0534
     86 H           1.9855    2.2779   -5.1023 H       1  LIG1        0.0534
@<TRIPOS>BOND
     1     2     3    1
     2     3     4    1
     3     5     6    1
     4     5     7    1
     5     5     8    1
     6     4    10    1
     7    10    11    1
     8     2    11    1
     9    12    14    1
    10    14    15    1
    11    15    18    1
    12    18    20    1
    13    20    21    1
    14    21    22    1
    15    22    23    1
    16    23    24    1
    17    18    24    1
    18    12    24    1
    19    20    26    1
    20    26    29    1
    21    29    30    1
    22    30    31    1
    23    21    31    1
    24    33    34    1
    25    34    35    1
    26    35    36    1
    27    35    37    2
    28    38    39    1
    29    38    40    2
    30    12    13    1
    31    18    19    1
    32    20    25    1
    33    30    38    1
    34     4     9    1
    35     4     5    1
    36     2    12    1
    37     2     1    1
    38    15    17    1
    39    15    16    1
    40    26    28    1
    41    26    27    1
    42    31    33    1
    43    31    32    1
    44     1    41    1
    45     1    42    1
    46     1    43    1
    47     6    44    1
    48     6    45    1
    49     6    46    1
    50     7    47    1
    51     8    48    1
    52     8    49    1
    53     8    50    1
    54    10    51    1
    55    10    52    1
    56    11    53    1
    57    11    54    1
    58    14    55    1
    59    14    56    1
    60    17    57    1
    61    19    58    1
    62    19    59    1
    63    19    60    1
    64    21    61    1
    65    22    62    1
    66    22    63    1
    67    23    64    1
    68    23    65    1
    69    24    66    1
    70    25    67    1
    71    25    68    1
    72    25    69    1
    73    28    70    1
    74    29    71    1
    75    29    72    1
    76    30    73    1
    77    32    74    1
    78    32    75    1
    79    32    76    1
    80    33    77    1
    81    33    78    1
    82    34    79    1
    83    34    80    1
    84    36    81    1
    85    39    82    1
    86    39    83    1
    87    39    84    1
    88    40    85    1
    89    40    86    1
