@<TRIPOS>MOLECULE
NuBBE_1008
 22 23 0 0 0
SMALL
GASTEIGER

@<TRIPOS>ATOM
      1 O          -2.8088    1.0884    0.0004 O.2     1  LIG1       -0.2444
      2 C          -1.5805    1.0784    0.0008 C.ar    1  LIG1        0.3483
      3 C          -0.8499   -0.2080    0.0007 C.ar    1  LIG1        0.1081
      4 C          -1.5445   -1.4274   -0.0007 C.ar    1  LIG1        0.1349
      5 C          -0.8524   -2.6371   -0.0016 C.ar    1  LIG1        0.0222
      6 C           0.5376   -2.6223   -0.0008 C.ar    1  LIG1        0.1209
      7 C           1.2420   -1.4216    0.0012 C.ar    1  LIG1       -0.0119
      8 C           0.5486   -0.2060    0.0016 C.ar    1  LIG1       -0.0009
      9 C           1.2709    1.0566    0.0022 C.ar    1  LIG1       -0.0156
     10 C           0.5761    2.2000    0.0017 C.ar    1  LIG1        0.1067
     11 O          -0.8374    2.2238    0.0011 O.2     1  LIG1       -0.4270
     12 C           1.2091    3.5543    0.0013 C.3     1  LIG1       -0.0062
     13 O           1.2608   -3.7780   -0.0025 O.3     1  LIG1       -0.5066
     14 O          -2.9119   -1.5173   -0.0016 O.3     1  LIG1       -0.5058
     15 H          -1.4101   -3.5684   -0.0028 H       1  LIG1        0.0691
     16 H           2.3290   -1.4465    0.0019 H       1  LIG1        0.0660
     17 H           2.3557    1.0456    0.0026 H       1  LIG1        0.0657
     18 H           2.3024    3.4948    0.0008 H       1  LIG1        0.0308
     19 H           0.9024    4.1155    0.8895 H       1  LIG1        0.0308
     20 H           0.9018    4.1152   -0.8870 H       1  LIG1        0.0308
     21 H           0.6470   -4.5321   -0.0078 H       1  LIG1        0.2921
     22 H          -3.2879   -0.6079   -0.0009 H       1  LIG1        0.2922
@<TRIPOS>BOND
     1     1     2    2
     2     2     3   ar
     3     3     4   ar
     4     4     5   ar
     5     5     6   ar
     6     6     7   ar
     7     7     8   ar
     8     3     8   ar
     9     8     9   ar
    10     9    10   ar
    11    10    11   ar
    12     2    11   ar
    13    10    12    1
    14     6    13    1
    15     4    14    1
    16     5    15    1
    17     7    16    1
    18     9    17    1
    19    12    18    1
    20    12    19    1
    21    12    20    1
    22    13    21    1
    23    14    22    1
