REMARK  Name = NuBBE_1127
REMARK  10 active torsions:
REMARK  status: ('A' for Active; 'I' for Inactive)
REMARK    1  A    between atoms: O_1  and  C_2
REMARK    2  A    between atoms: C_5  and  O_12
REMARK    3  A    between atoms: O_12  and  C_13
REMARK    4  A    between atoms: C_13  and  C_14
REMARK    5  A    between atoms: C_14  and  O_16
REMARK    6  A    between atoms: C_14  and  C_17
REMARK    7  A    between atoms: C_17  and  N_18
REMARK    8  A    between atoms: N_18  and  C_19
REMARK    9  A    between atoms: C_19  and  C_20
REMARK   10  A    between atoms: C_19  and  C_21
REMARK                            x       y       z     vdW  Elec       q    Type
REMARK                         _______ _______ _______ _____ _____    ______ ____
ROOT
ATOM      1  C   LIG A   1      -1.431   3.972  -1.338  0.00  0.00    +0.125 A 
ATOM      2  C   LIG A   1      -0.495   3.971  -0.312  0.00  0.00    +0.049 A 
ATOM      3  C   LIG A   1       0.353   2.883  -0.161  0.00  0.00    +0.050 A 
ATOM      4  C   LIG A   1       0.281   1.789  -1.027  0.00  0.00    +0.129 A 
ATOM      5  C   LIG A   1      -0.695   1.768  -2.070  0.00  0.00    +0.027 A 
ATOM      6  C   LIG A   1      -0.856   0.683  -2.962  0.00  0.00    +0.012 A 
ATOM      7  C   LIG A   1      -1.823   0.700  -3.974  0.00  0.00    +0.001 A 
ATOM      8  C   LIG A   1      -2.648   1.806  -4.127  0.00  0.00    +0.001 A 
ATOM      9  C   LIG A   1      -2.512   2.889  -3.259  0.00  0.00    +0.012 A 
ATOM     10  C   LIG A   1      -1.554   2.888  -2.223  0.00  0.00    +0.027 A 
ENDROOT
BRANCH   1  11
ATOM     11  O   LIG A   1      -2.260   5.057  -1.480  0.00  0.00    -0.506 OA
ATOM     12  H   LIG A   1      -2.035   5.710  -0.793  0.00  0.00    +0.292 HD
ENDBRANCH   1  11
BRANCH   4  13
ATOM     13  O   LIG A   1       1.119   0.703  -0.944  0.00  0.00    -0.489 OA
BRANCH  13  14
ATOM     14  C   LIG A   1       2.098   0.676   0.101  0.00  0.00    +0.261 C 
BRANCH  14  15
ATOM     15  C   LIG A   1       1.534   0.038   1.378  0.00  0.00    +0.166 C 
BRANCH  15  16
ATOM     16  O   LIG A   1       2.521   0.085   2.415  0.00  0.00    -0.387 OA
ATOM     17  H   LIG A   1       2.241  -0.595   3.062  0.00  0.00    +0.210 HD
ENDBRANCH  15  16
BRANCH  15  18
ATOM     18  C   LIG A   1       1.142  -1.426   1.106  0.00  0.00    +0.115 C 
BRANCH  18  19
ATOM     19  N   LIG A   1       0.607  -2.078   2.319  0.00  0.00    -0.311 NA
ATOM     20  H   LIG A   1      -0.227  -1.567   2.618  0.00  0.00    +0.122 HD
BRANCH  19  21
ATOM     21  C   LIG A   1       0.215  -3.476   2.050  0.00  0.00    +0.048 C 
ATOM     22  C   LIG A   1       1.400  -4.338   1.607  0.00  0.00    +0.024 C 
ATOM     23  C   LIG A   1      -0.402  -4.081   3.314  0.00  0.00    +0.024 C 
ENDBRANCH  19  21
ENDBRANCH  18  19
ENDBRANCH  15  18
ENDBRANCH  14  15
ENDBRANCH  13  14
ENDBRANCH   4  13
TORSDOF 8
