REMARK  Name = NuBBE_420
REMARK  18 active torsions:
REMARK  status: ('A' for Active; 'I' for Inactive)
REMARK    1  A    between atoms: O_1  and  C_2
REMARK    2  A    between atoms: C_2  and  C_3
REMARK    3  A    between atoms: C_3  and  C_4
REMARK    4  A    between atoms: C_6  and  C_45
REMARK    5  A    between atoms: C_8  and  O_16
REMARK    6  A    between atoms: C_12  and  C_13
REMARK    7  A    between atoms: C_13  and  O_14
REMARK    8  A    between atoms: O_16  and  C_17
REMARK    9  A    between atoms: C_20  and  C_28
REMARK   10  A    between atoms: C_22  and  O_27
REMARK   11  A    between atoms: C_24  and  O_26
REMARK   12  A    between atoms: C_28  and  O_29
REMARK   13  A    between atoms: C_30  and  O_32
REMARK   14  A    between atoms: O_32  and  C_33
REMARK   15  A    between atoms: C_33  and  C_34
REMARK   16  A    between atoms: C_35  and  C_36
REMARK   17  A    between atoms: C_38  and  O_39
REMARK   18  A    between atoms: C_40  and  O_43
REMARK                            x       y       z     vdW  Elec       q    Type
REMARK                         _______ _______ _______ _____ _____    ______ ____
ROOT
ATOM      1  C   LIG A   1      -0.276  -0.609  -0.585  0.00  0.00    +0.298 C 
ATOM      2  O   LIG A   1      -0.369  -0.825  -1.998  0.00  0.00    -0.339 OA
ATOM      3  C   LIG A   1       0.117  -2.080  -2.493  0.00  0.00    +0.178 C 
ATOM      4  C   LIG A   1       0.156  -3.163  -1.414  0.00  0.00    +0.178 C 
ATOM      5  C   LIG A   1       1.189  -2.712  -0.381  0.00  0.00    +0.191 C 
ATOM      6  C   LIG A   1       0.967  -1.258   0.084  0.00  0.00    +0.263 C 
ENDROOT
BRANCH   4   7
ATOM      7  O   LIG A   1       0.559  -4.427  -1.942  0.00  0.00    -0.386 OA
ATOM      8  H   LIG A   1       0.809  -4.979  -1.176  0.00  0.00    +0.210 HD
ENDBRANCH   4   7
BRANCH   5   9
ATOM      9  O   LIG A   1       1.217  -3.643   0.712  0.00  0.00    -0.385 OA
ATOM     10  H   LIG A   1       0.316  -3.721   1.074  0.00  0.00    +0.210 HD
ENDBRANCH   5   9
BRANCH   3  11
ATOM     11  C   LIG A   1      -0.728  -2.473  -3.709  0.00  0.00    +0.190 C 
BRANCH  11  12
ATOM     12  O   LIG A   1      -2.097  -2.638  -3.346  0.00  0.00    -0.392 OA
ATOM     13  H   LIG A   1      -2.342  -1.810  -2.898  0.00  0.00    +0.209 HD
ENDBRANCH  11  12
ENDBRANCH   3  11
BRANCH   6  14
ATOM     14  O   LIG A   1       2.189  -0.572  -0.266  0.00  0.00    -0.450 OA
BRANCH  14  15
ATOM     15  C   LIG A   1       2.350   0.664   0.283  0.00  0.00    +0.332 C 
ATOM     16  O   LIG A   1       1.544   1.298   0.903  0.00  0.00    -0.246 OA
BRANCH  15  17
ATOM     17  C   LIG A   1       3.739   1.087  -0.029  0.00  0.00    +0.092 C 
ATOM     18  C   LIG A   1       4.053   2.378  -0.042  0.00  0.00    +0.015 C 
BRANCH  18  19
ATOM     19  C   LIG A   1       5.413   2.852  -0.352  0.00  0.00    -0.021 A 
ATOM     20  C   LIG A   1       5.562   4.086  -0.999  0.00  0.00    +0.057 A 
ATOM     21  C   LIG A   1       6.839   4.551  -1.294  0.00  0.00    +0.159 A 
ATOM     22  C   LIG A   1       7.961   3.801  -0.951  0.00  0.00    +0.158 A 
ATOM     23  C   LIG A   1       7.831   2.585  -0.304  0.00  0.00    +0.050 A 
ATOM     24  C   LIG A   1       6.554   2.114   0.005  0.00  0.00    +0.012 A 
BRANCH  22  25
ATOM     25  O   LIG A   1       9.209   4.268  -1.242  0.00  0.00    -0.503 OA
ATOM     26  H   LIG A   1       9.052   5.130  -1.675  0.00  0.00    +0.292 HD
ENDBRANCH  22  25
BRANCH  21  27
ATOM     27  O   LIG A   1       7.043   5.747  -1.925  0.00  0.00    -0.503 OA
ATOM     28  H   LIG A   1       6.178   6.168  -2.069  0.00  0.00    +0.292 HD
ENDBRANCH  21  27
ENDBRANCH  18  19
ENDBRANCH  15  17
ENDBRANCH  14  15
ENDBRANCH   6  14
BRANCH   1  29
ATOM     29  O   LIG A   1      -1.466  -1.075   0.072  0.00  0.00    -0.308 OA
BRANCH  29  32
ATOM     30  C   LIG A   1      -3.747  -0.489   1.910  0.00  0.00    +0.044 C 
ATOM     31  C   LIG A   1      -3.899  -0.833   0.389  0.00  0.00    +0.088 C 
ATOM     32  C   LIG A   1      -2.632  -0.347  -0.360  0.00  0.00    +0.317 C 
ATOM     33  O   LIG A   1      -2.496   1.081  -0.237  0.00  0.00    -0.470 OA
ATOM     34  C   LIG A   1      -2.536   1.525   1.058  0.00  0.00    +0.201 C 
ATOM     35  C   LIG A   1      -3.021   0.832   2.098  0.00  0.00    +0.074 C 
BRANCH  31  36
ATOM     36  C   LIG A   1      -5.105  -0.211  -0.313  0.00  0.00    -0.025 C 
ATOM     37  C   LIG A   1      -6.074  -0.882  -0.950  0.00  0.00    +0.004 C 
ENDBRANCH  31  36
BRANCH  35  38
ATOM     38  C   LIG A   1      -2.671   1.284   3.461  0.00  0.00    +0.336 C 
ATOM     39  O   LIG A   1      -2.725   0.607   4.471  0.00  0.00    -0.245 OA
BRANCH  38  40
ATOM     40  O   LIG A   1      -2.205   2.544   3.508  0.00  0.00    -0.477 OA
ATOM     41  H   LIG A   1      -1.923   2.650   4.439  0.00  0.00    +0.295 HD
ENDBRANCH  38  40
ENDBRANCH  35  38
BRANCH  30  42
ATOM     42  C   LIG A   1      -5.092  -0.540   2.684  0.00  0.00    +0.037 C 
BRANCH  42  43
ATOM     43  C   LIG A   1      -5.763  -1.910   2.664  0.00  0.00    +0.156 C 
BRANCH  43  44
ATOM     44  O   LIG A   1      -4.878  -2.874   3.217  0.00  0.00    -0.395 OA
ATOM     45  H   LIG A   1      -5.129  -3.743   2.856  0.00  0.00    +0.209 HD
ENDBRANCH  43  44
ENDBRANCH  42  43
ENDBRANCH  30  42
ENDBRANCH  29  32
ENDBRANCH   1  29
TORSDOF 18
