REMARK  Name = NuBBE_419
REMARK  16 active torsions:
REMARK  status: ('A' for Active; 'I' for Inactive)
REMARK    1  A    between atoms: C_4  and  O_12
REMARK    2  A    between atoms: C_8  and  C_9
REMARK    3  A    between atoms: C_9  and  O_10
REMARK    4  A    between atoms: O_12  and  C_13
REMARK    5  A    between atoms: C_16  and  C_24
REMARK    6  A    between atoms: C_18  and  O_23
REMARK    7  A    between atoms: C_20  and  O_22
REMARK    8  A    between atoms: C_24  and  O_25
REMARK    9  A    between atoms: C_26  and  O_28
REMARK   10  A    between atoms: O_28  and  C_29
REMARK   11  A    between atoms: C_29  and  C_30
REMARK   12  A    between atoms: C_31  and  C_32
REMARK   13  A    between atoms: C_35  and  O_38
REMARK   14  A    between atoms: O_38  and  C_39
REMARK   15  A    between atoms: C_43  and  O_48
REMARK   16  A    between atoms: C_45  and  C_47
REMARK                            x       y       z     vdW  Elec       q    Type
REMARK                         _______ _______ _______ _____ _____    ______ ____
ROOT
ATOM      1  C   LIG A   1      -0.762   0.216   0.006  0.00  0.00    +0.298 C 
ATOM      2  O   LIG A   1      -0.256   0.563  -1.290  0.00  0.00    -0.339 OA
ATOM      3  C   LIG A   1      -1.220   0.710  -2.345  0.00  0.00    +0.178 C 
ATOM      4  C   LIG A   1      -2.062  -0.565  -2.497  0.00  0.00    +0.178 C 
ATOM      5  C   LIG A   1      -2.719  -0.956  -1.165  0.00  0.00    +0.191 C 
ATOM      6  C   LIG A   1      -1.685  -1.029  -0.030  0.00  0.00    +0.263 C 
ENDROOT
BRANCH   5   7
ATOM      7  O   LIG A   1      -3.780  -0.043  -0.872  0.00  0.00    -0.385 OA
ATOM      8  H   LIG A   1      -4.230  -0.359  -0.067  0.00  0.00    +0.210 HD
ENDBRANCH   5   7
BRANCH   4   9
ATOM      9  O   LIG A   1      -1.223  -1.634  -2.967  0.00  0.00    -0.386 OA
ATOM     10  H   LIG A   1      -0.423  -1.644  -2.408  0.00  0.00    +0.210 HD
ENDBRANCH   4   9
BRANCH   1  11
ATOM     11  O   LIG A   1      -1.364   1.323   0.680  0.00  0.00    -0.308 OA
BRANCH  11  14
ATOM     12  C   LIG A   1      -1.638   3.173   3.041  0.00  0.00    +0.041 C 
ATOM     13  C   LIG A   1      -1.055   3.530   1.659  0.00  0.00    +0.071 C 
ATOM     14  C   LIG A   1      -0.376   2.319   1.013  0.00  0.00    +0.313 C 
ATOM     15  O   LIG A   1       0.668   1.797   1.858  0.00  0.00    -0.470 OA
ATOM     16  C   LIG A   1       0.336   1.658   3.181  0.00  0.00    +0.201 C 
ATOM     17  C   LIG A   1      -0.721   2.229   3.781  0.00  0.00    +0.074 C 
ATOM     18  C   LIG A   1      -1.814   4.555   3.707  0.00  0.00    +0.040 C 
ATOM     19  C   LIG A   1      -0.866   5.528   2.992  0.00  0.00    +0.118 C 
ATOM     20  C   LIG A   1      -0.079   4.681   1.990  0.00  0.00    +0.024 C 
ATOM     21  C   LIG A   1       0.433   5.432   0.769  0.00  0.00    +0.010 C 
BRANCH  17  22
ATOM     22  C   LIG A   1      -0.950   1.871   5.199  0.00  0.00    +0.336 C 
ATOM     23  O   LIG A   1      -0.147   1.367   5.961  0.00  0.00    -0.245 OA
BRANCH  22  24
ATOM     24  O   LIG A   1      -2.215   2.119   5.564  0.00  0.00    -0.477 OA
ATOM     25  H   LIG A   1      -2.246   1.802   6.490  0.00  0.00    +0.295 HD
ENDBRANCH  22  24
ENDBRANCH  17  22
BRANCH  19  26
ATOM     26  O   LIG A   1      -1.628   6.525   2.324  0.00  0.00    -0.392 OA
ATOM     27  H   LIG A   1      -2.027   7.092   3.007  0.00  0.00    +0.210 HD
ENDBRANCH  19  26
ENDBRANCH  11  14
ENDBRANCH   1  11
BRANCH   3  28
ATOM     28  C   LIG A   1      -2.034   2.013  -2.253  0.00  0.00    +0.190 C 
BRANCH  28  29
ATOM     29  O   LIG A   1      -2.967   2.131  -3.323  0.00  0.00    -0.392 OA
ATOM     30  H   LIG A   1      -3.767   1.641  -3.055  0.00  0.00    +0.209 HD
ENDBRANCH  28  29
ENDBRANCH   3  28
BRANCH   6  31
ATOM     31  O   LIG A   1      -0.864  -2.200  -0.284  0.00  0.00    -0.450 OA
BRANCH  31  32
ATOM     32  C   LIG A   1      -0.172  -2.697   0.756  0.00  0.00    +0.332 C 
ATOM     33  O   LIG A   1      -0.260  -2.365   1.929  0.00  0.00    -0.246 OA
BRANCH  32  34
ATOM     34  C   LIG A   1       0.769  -3.700   0.230  0.00  0.00    +0.092 C 
ATOM     35  C   LIG A   1       1.707  -3.301  -0.648  0.00  0.00    +0.015 C 
BRANCH  35  36
ATOM     36  C   LIG A   1       2.609  -4.184  -1.394  0.00  0.00    -0.025 A 
ATOM     37  C   LIG A   1       3.824  -3.666  -1.859  0.00  0.00    +0.011 A 
ATOM     38  C   LIG A   1       4.645  -4.426  -2.697  0.00  0.00    +0.046 A 
ATOM     39  C   LIG A   1       4.254  -5.701  -3.103  0.00  0.00    +0.120 A 
ATOM     40  C   LIG A   1       3.056  -6.232  -2.628  0.00  0.00    +0.046 A 
ATOM     41  C   LIG A   1       2.237  -5.476  -1.783  0.00  0.00    +0.011 A 
BRANCH  39  42
ATOM     42  O   LIG A   1       5.125  -6.342  -3.940  0.00  0.00    -0.495 OA
ATOM     43  C   LIG A   1       4.543  -7.312  -4.804  0.00  0.00    +0.277 C 
ENDBRANCH  39  42
ENDBRANCH  35  36
ENDBRANCH  32  34
ENDBRANCH  31  32
ENDBRANCH   6  31
TORSDOF 14
