REMARK  Name = NuBBE_1855
REMARK  6 active torsions:
REMARK  status: ('A' for Active; 'I' for Inactive)
REMARK    1  A    between atoms: O_1  and  C_2
REMARK    2  A    between atoms: C_4  and  C_5
REMARK    3  A    between atoms: C_6  and  C_7
REMARK    4  A    between atoms: C_9  and  O_10
REMARK    5  A    between atoms: C_11  and  O_12
REMARK    6  A    between atoms: C_16  and  O_17
REMARK                            x       y       z     vdW  Elec       q    Type
REMARK                         _______ _______ _______ _____ _____    ______ ____
ROOT
ATOM      1  C   LIG A   1      -0.342  -0.722   0.163  0.00  0.00    +0.009 C 
ATOM      2  C   LIG A   1       0.187   0.505   0.030  0.00  0.00    +0.008 C 
ENDROOT
BRANCH   1   5
ATOM      3  C   LIG A   1       0.799  -4.298   0.332  0.00  0.00    +0.121 A 
ATOM      4  C   LIG A   1       0.099  -3.149  -0.029  0.00  0.00    +0.053 A 
ATOM      5  C   LIG A   1       0.435  -1.913   0.543  0.00  0.00    -0.018 A 
ATOM      6  C   LIG A   1       1.461  -1.861   1.499  0.00  0.00    +0.053 A 
ATOM      7  C   LIG A   1       2.150  -3.024   1.844  0.00  0.00    +0.121 A 
ATOM      8  C   LIG A   1       1.827  -4.244   1.264  0.00  0.00    +0.090 A 
BRANCH   3   9
ATOM      9  O   LIG A   1       0.499  -5.513  -0.213  0.00  0.00    -0.507 OA
ATOM     10  H   LIG A   1      -0.234  -5.404  -0.840  0.00  0.00    +0.292 HD
ENDBRANCH   3   9
BRANCH   7  11
ATOM     11  O   LIG A   1       3.156  -3.005   2.766  0.00  0.00    -0.507 OA
ATOM     12  H   LIG A   1       3.258  -2.099   3.101  0.00  0.00    +0.292 HD
ENDBRANCH   7  11
ENDBRANCH   1   5
BRANCH   2  13
ATOM     13  C   LIG A   1      -0.584   1.694  -0.368  0.00  0.00    -0.021 A 
ATOM     14  C   LIG A   1       0.049   2.679  -1.143  0.00  0.00    +0.057 A 
ATOM     15  C   LIG A   1      -0.650   3.826  -1.506  0.00  0.00    +0.159 A 
ATOM     16  C   LIG A   1      -1.967   4.008  -1.098  0.00  0.00    +0.158 A 
ATOM     17  C   LIG A   1      -2.605   3.056  -0.320  0.00  0.00    +0.050 A 
ATOM     18  C   LIG A   1      -1.910   1.901   0.051  0.00  0.00    +0.012 A 
BRANCH  15  19
ATOM     19  O   LIG A   1      -0.079   4.811  -2.267  0.00  0.00    -0.503 OA
ATOM     20  H   LIG A   1       0.831   4.542  -2.478  0.00  0.00    +0.292 HD
ENDBRANCH  15  19
BRANCH  16  21
ATOM     21  O   LIG A   1      -2.644   5.137  -1.458  0.00  0.00    -0.503 OA
ATOM     22  H   LIG A   1      -2.002   5.649  -1.989  0.00  0.00    +0.292 HD
ENDBRANCH  16  21
ENDBRANCH   2  13
TORSDOF 6
