REMARK  Name = NuBBE_634
REMARK  12 active torsions:
REMARK  status: ('A' for Active; 'I' for Inactive)
REMARK    1  A    between atoms: C_1  and  C_2
REMARK    2  A    between atoms: C_2  and  C_3
REMARK    3  A    between atoms: C_4  and  C_5
REMARK    4  A    between atoms: C_5  and  N_6
REMARK    5  A    between atoms: N_8  and  C_9
REMARK    6  A    between atoms: C_9  and  C_10
REMARK    7  A    between atoms: C_11  and  C_12
REMARK    8  A    between atoms: C_11  and  C_13
REMARK    9  A    between atoms: N_15  and  C_16
REMARK   10  A    between atoms: C_16  and  C_17
REMARK   11  A    between atoms: C_18  and  C_19
REMARK   12  A    between atoms: C_18  and  C_20
REMARK                            x       y       z     vdW  Elec       q    Type
REMARK                         _______ _______ _______ _____ _____    ______ ____
ROOT
ATOM      1  N   LIG A   1      -1.210   0.311  -0.374  0.00  0.00    -0.109 NA
ATOM      2  C   LIG A   1       0.018  -0.053  -0.420  0.00  0.00    +0.382 C 
ATOM      3  N   LIG A   1       1.147   0.718  -0.356  0.00  0.00    -0.272 N 
ATOM      4  H   LIG A   1       0.955   1.707  -0.291  0.00  0.00    +0.258 HD
ATOM      5  N   LIG A   1       0.246  -1.397  -0.523  0.00  0.00    -0.272 N 
ATOM      6  H   LIG A   1      -0.648  -1.821  -0.763  0.00  0.00    +0.258 HD
ENDROOT
BRANCH   1   7
ATOM      7  C   LIG A   1      -1.558   1.711  -0.187  0.00  0.00    +0.271 C 
BRANCH   7  11
ATOM      8  C   LIG A   1      -5.317   2.513  -0.993  0.00  0.00    +0.038 C 
ATOM      9  C   LIG A   1      -3.814   2.546  -1.046  0.00  0.00    -0.077 C 
ATOM     10  C   LIG A   1      -3.224   3.436  -2.102  0.00  0.00    +0.038 C 
ATOM     11  C   LIG A   1      -3.060   1.812  -0.203  0.00  0.00    +0.012 C 
ENDBRANCH   7  11
ENDBRANCH   1   7
BRANCH   3  12
ATOM     12  C   LIG A   1       2.302   0.450  -1.192  0.00  0.00    +0.223 C 
BRANCH  12  13
ATOM     13  C   LIG A   1       3.355   1.472  -0.862  0.00  0.00    +0.008 C 
ATOM     14  C   LIG A   1       4.395   1.334  -0.014  0.00  0.00    -0.077 C 
ATOM     15  C   LIG A   1       4.655   0.106   0.814  0.00  0.00    +0.038 C 
ATOM     16  C   LIG A   1       5.391   2.445   0.186  0.00  0.00    +0.038 C 
ENDBRANCH  12  13
ENDBRANCH   3  12
BRANCH   5  17
ATOM     17  C   LIG A   1       0.781  -2.111   0.631  0.00  0.00    +0.223 C 
BRANCH  17  18
ATOM     18  C   LIG A   1      -0.364  -2.560   1.498  0.00  0.00    +0.008 C 
ATOM     19  C   LIG A   1      -1.012  -3.743   1.463  0.00  0.00    -0.077 C 
ATOM     20  C   LIG A   1      -0.709  -4.855   0.498  0.00  0.00    +0.038 C 
ATOM     21  C   LIG A   1      -2.148  -4.035   2.408  0.00  0.00    +0.038 C 
ENDBRANCH  17  18
ENDBRANCH   5  17
TORSDOF 6
