@<TRIPOS>MOLECULE
NuBBE_236
 85 87 0 0 0
SMALL
GASTEIGER

@<TRIPOS>ATOM
      1 C           0.0757    2.2803    2.5284 C.3     1  LIG1       -0.0584
      2 C          -0.7132    1.2302    1.7115 C.3     1  LIG1        0.0029
      3 H          -1.7057    1.2076    2.1784 H       1  LIG1        0.0340
      4 C          -0.0544   -0.1414    1.9580 C.3     1  LIG1        0.1438
      5 H           0.1130   -0.2688    3.0370 H       1  LIG1        0.0775
      6 O          -0.8484   -1.2788    1.5602 O.3     1  LIG1       -0.4573
      7 C          -1.8626   -1.6153    2.4099 C.2     1  LIG1        0.3074
      8 C          -2.1750   -3.0893    2.3372 C.3     1  LIG1        0.0447
      9 C          -1.3016   -3.8546    3.3315 C.3     1  LIG1       -0.0458
     10 C          -1.5780   -5.3497    3.3067 C.3     1  LIG1       -0.0648
     11 O          -2.3887   -0.8561    3.2165 O.2     1  LIG1       -0.2508
     12 C           1.3288   -0.1690    1.2687 C.3     1  LIG1        0.1554
     13 H           1.8550    0.7495    1.5486 H       1  LIG1        0.0783
     14 O           2.0832   -1.2838    1.8116 O.3     1  LIG1       -0.4567
     15 C           2.7431   -1.0133    2.9731 C.2     1  LIG1        0.3043
     16 C           3.0065   -2.2825    3.7414 C.3     1  LIG1        0.0332
     17 O           3.0588    0.0989    3.3782 O.2     1  LIG1       -0.2512
     18 C           1.2762   -0.1589   -0.2908 C.3     1  LIG1        0.1036
     19 C           1.1414   -1.5547   -0.8987 C.2     1  LIG1        0.0125
     20 C           2.5014   -2.1337   -1.1758 C.3     1  LIG1        0.2315
     21 H           2.9033   -2.7444   -0.3651 H       1  LIG1        0.1111
     22 O           2.5543   -2.8302   -2.4338 O.3     1  LIG1       -0.4311
     23 C           2.1726   -4.1323   -2.4082 C.2     1  LIG1        0.3063
     24 C           2.2807   -4.7468   -3.7741 C.3     1  LIG1        0.0333
     25 O           1.7297   -4.7208   -1.4395 O.2     1  LIG1       -0.2511
     26 O           3.3647   -1.0024   -1.3059 O.3     1  LIG1       -0.2971
     27 C           2.7505    0.1856   -0.7825 C.3     1  LIG1        0.2216
     28 H           3.3683    0.4944    0.0689 H       1  LIG1        0.1068
     29 O           2.8258    1.1825   -1.8118 O.3     1  LIG1       -0.4341
     30 C           4.1006    1.6716   -1.9983 C.2     1  LIG1        0.3061
     31 C           4.3141    1.9986   -3.4606 C.3     1  LIG1        0.0333
     32 O           4.9729    1.7223   -1.1651 O.2     1  LIG1       -0.2511
     33 C           0.0170   -2.0524   -1.4453 C.2     1  LIG1       -0.0497
     34 C          -1.1006   -1.1787   -1.8897 C.3     1  LIG1        0.0772
     35 H          -1.9318   -1.2788   -1.1901 H       1  LIG1        0.0640
     36 O          -1.5061   -1.7334   -3.1497 O.3     1  LIG1       -0.3757
     37 C          -2.6104   -1.0751   -3.7465 C.3     1  LIG1        0.0372
     38 C          -0.5184    0.2369   -2.0819 C.3     1  LIG1       -0.0185
     39 C           0.1437    0.8410   -0.8097 C.3     1  LIG1       -0.0135
     40 H           0.7132    1.6999   -1.1741 H       1  LIG1        0.0319
     41 C          -0.9316    1.5558    0.1843 C.3     1  LIG1       -0.0185
     42 C          -2.4087    1.1690   -0.1518 C.3     1  LIG1       -0.0586
     43 C          -0.8685    3.1276   -0.1207 C.3     1  LIG1       -0.0282
     44 C          -1.8275    4.0093    0.6586 C.2     1  LIG1       -0.0806
     45 C          -2.3936    5.1879    0.3370 C.2     1  LIG1       -0.0549
     46 C          -2.2176    5.8784   -0.9216 C.2     1  LIG1       -0.0662
     47 C          -2.5589    5.3569   -2.1056 C.2     1  LIG1       -0.0985
     48 C          -3.2540    5.9177    1.3442 C.3     1  LIG1       -0.0400
     49 H           0.9723    2.6300    2.0120 H       1  LIG1        0.0234
     50 H           0.3756    1.8739    3.5007 H       1  LIG1        0.0234
     51 H          -0.5289    3.1532    2.7753 H       1  LIG1        0.0234
     52 H          -2.0224   -3.4452    1.3133 H       1  LIG1        0.0377
     53 H          -3.2377   -3.2283    2.5689 H       1  LIG1        0.0377
     54 H          -1.4620   -3.4760    4.3494 H       1  LIG1        0.0268
     55 H          -0.2435   -3.6829    3.1017 H       1  LIG1        0.0268
     56 H          -2.5762   -5.5737    3.6967 H       1  LIG1        0.0230
     57 H          -0.8484   -5.8803    3.9278 H       1  LIG1        0.0230
     58 H          -1.5075   -5.7469    2.2895 H       1  LIG1        0.0230
     59 H           4.0344   -2.6218    3.6053 H       1  LIG1        0.0342
     60 H           2.3085   -3.0612    3.4217 H       1  LIG1        0.0342
     61 H           2.8089   -2.0907    4.8019 H       1  LIG1        0.0342
     62 H           3.2137   -4.4343   -4.2492 H       1  LIG1        0.0342
     63 H           1.4262   -4.4726   -4.3972 H       1  LIG1        0.0342
     64 H           2.3115   -5.8343   -3.6602 H       1  LIG1        0.0342
     65 H           3.3729    2.1913   -3.9783 H       1  LIG1        0.0342
     66 H           4.8068    1.1339   -3.9124 H       1  LIG1        0.0342
     67 H           4.9513    2.8799   -3.5585 H       1  LIG1        0.0342
     68 H          -0.0299   -3.0587   -1.8489 H       1  LIG1        0.0599
     69 H          -3.4258   -0.9398   -3.0309 H       1  LIG1        0.0524
     70 H          -2.9663   -1.6930   -4.5755 H       1  LIG1        0.0524
     71 H          -2.2977   -0.1133   -4.1601 H       1  LIG1        0.0524
     72 H          -1.2454    0.9226   -2.5182 H       1  LIG1        0.0296
     73 H           0.2536    0.1659   -2.8635 H       1  LIG1        0.0296
     74 H          -2.6166    0.1196    0.0503 H       1  LIG1        0.0235
     75 H          -2.6762    1.3956   -1.1886 H       1  LIG1        0.0235
     76 H          -3.1271    1.7327    0.4537 H       1  LIG1        0.0235
     77 H           0.1510    3.4837    0.0769 H       1  LIG1        0.0313
     78 H          -1.0279    3.2676   -1.1966 H       1  LIG1        0.0313
     79 H          -2.0875    3.6379    1.6448 H       1  LIG1        0.0575
     80 H          -1.8435    6.8995   -0.8719 H       1  LIG1        0.0614
     81 H          -2.9796    4.3595   -2.1843 H       1  LIG1        0.0535
     82 H          -2.4336    5.9257   -3.0200 H       1  LIG1        0.0535
     83 H          -3.2682    5.4125    2.3177 H       1  LIG1        0.0277
     84 H          -4.2899    5.9775    0.9942 H       1  LIG1        0.0277
     85 H          -2.8848    6.9344    1.5197 H       1  LIG1        0.0277
@<TRIPOS>BOND
     1     2     4    1
     2     6     7    1
     3     7     8    1
     4     8     9    1
     5     9    10    1
     6     7    11    2
     7     4    12    1
     8    14    15    1
     9    15    16    1
    10    15    17    2
    11    12    18    1
    12    18    19    1
    13    19    20    1
    14    22    23    1
    15    23    24    1
    16    23    25    2
    17    20    26    1
    18    26    27    1
    19    18    27    1
    20    29    30    1
    21    30    31    1
    22    30    32    2
    23    19    33    2
    24    33    34    1
    25    36    37    1
    26    34    38    1
    27    38    39    1
    28    18    39    1
    29    39    41    1
    30     2    41    1
    31    43    44    1
    32    44    45    2
    33    45    46    1
    34    46    47    2
    35    45    48    1
    36    20    21    1
    37    20    22    1
    38    27    28    1
    39    27    29    1
    40    39    40    1
    41    41    42    1
    42    41    43    1
    43     4     6    1
    44     4     5    1
    45     2     3    1
    46     2     1    1
    47    12    14    1
    48    12    13    1
    49    34    36    1
    50    34    35    1
    51     1    49    1
    52     1    50    1
    53     1    51    1
    54     8    52    1
    55     8    53    1
    56     9    54    1
    57     9    55    1
    58    10    56    1
    59    10    57    1
    60    10    58    1
    61    16    59    1
    62    16    60    1
    63    16    61    1
    64    24    62    1
    65    24    63    1
    66    24    64    1
    67    31    65    1
    68    31    66    1
    69    31    67    1
    70    33    68    1
    71    37    69    1
    72    37    70    1
    73    37    71    1
    74    38    72    1
    75    38    73    1
    76    42    74    1
    77    42    75    1
    78    42    76    1
    79    43    77    1
    80    43    78    1
    81    44    79    1
    82    46    80    1
    83    47    81    1
    84    47    82    1
    85    48    83    1
    86    48    84    1
    87    48    85    1
