@<TRIPOS>MOLECULE
NuBBE_1355
 90 94 0 0 0
SMALL
GASTEIGER

@<TRIPOS>ATOM
      1 C          -2.4520   -4.5762   -1.7519 C.3     1  LIG1       -0.0562
      2 C          -3.3004   -3.3971   -1.2165 C.3     1  LIG1        0.0058
      3 C          -4.7438   -3.7485   -1.7031 C.3     1  LIG1       -0.0562
      4 C          -3.2966   -3.4017    0.3425 C.3     1  LIG1        0.1084
      5 H          -3.7172   -4.3466    0.7109 H       1  LIG1        0.0739
      6 O          -1.9549   -3.2650    0.8742 O.3     1  LIG1       -0.4610
      7 C          -1.2971   -4.4059    1.2315 C.2     1  LIG1        0.3042
      8 C           0.0951   -4.1109    1.7140 C.3     1  LIG1        0.0332
      9 O          -1.7468   -5.5410    1.1449 O.2     1  LIG1       -0.2512
     10 C          -4.1630   -2.2845    0.9464 C.3     1  LIG1       -0.0144
     11 C          -4.3834   -1.0726    0.0418 C.3     1  LIG1       -0.0403
     12 C          -3.1926   -0.7284   -0.8915 C.3     1  LIG1       -0.0067
     13 C          -3.7247    0.4253   -1.7998 C.3     1  LIG1       -0.0555
     14 C          -2.8688   -1.9745   -1.8120 C.3     1  LIG1       -0.0234
     15 C          -1.4665   -1.9097   -2.4814 C.3     1  LIG1       -0.0480
     16 C          -0.6610   -0.6191   -2.2597 C.3     1  LIG1       -0.0428
     17 C          -0.5634   -0.2133   -0.7678 C.3     1  LIG1       -0.0011
     18 C           0.2480   -1.3274   -0.0741 C.3     1  LIG1       -0.0550
     19 C          -1.9739   -0.1674   -0.1199 C.2     1  LIG1       -0.0566
     20 C          -2.0919    0.5050    1.0509 C.2     1  LIG1       -0.0615
     21 C          -0.9731    1.1641    1.6896 C.2     1  LIG1       -0.0617
     22 C           0.1358    1.5083    1.0031 C.2     1  LIG1       -0.0587
     23 C           0.1538    1.2131   -0.5139 C.3     1  LIG1        0.0019
     24 C          -0.6452    2.3018   -1.3021 C.3     1  LIG1       -0.0549
     25 C           1.6231    1.2708   -0.9686 C.3     1  LIG1       -0.0052
     26 C           2.2707    2.6468   -0.7006 C.3     1  LIG1        0.1097
     27 H           1.8075    3.3679   -1.3848 H       1  LIG1        0.0740
     28 O           3.6678    2.6345   -1.0588 O.3     1  LIG1       -0.4609
     29 C           3.9130    2.7744   -2.3919 C.2     1  LIG1        0.3042
     30 C           4.6487    4.0554   -2.6462 C.3     1  LIG1        0.0332
     31 O           3.4836    2.0461   -3.2648 O.2     1  LIG1       -0.2512
     32 C           2.0849    3.1928    0.7739 C.3     1  LIG1        0.0118
     33 C           1.2384    4.5038    0.7159 C.3     1  LIG1       -0.0556
     34 C           1.3341    2.1754    1.7036 C.3     1  LIG1       -0.0075
     35 C           2.3197    1.2840    2.5782 C.3     1  LIG1       -0.0341
     36 H           2.4474    1.8513    3.5148 H       1  LIG1        0.0307
     37 C           1.7713   -0.0724    3.0303 C.3     1  LIG1       -0.0616
     38 C           3.7467    1.1505    1.9864 C.3     1  LIG1       -0.0407
     39 H           3.6791    0.6537    1.0147 H       1  LIG1        0.0301
     40 C           4.6976    0.2939    2.8377 C.3     1  LIG1       -0.0622
     41 C           4.3946    2.5225    1.7814 C.3     1  LIG1       -0.0496
     42 C           3.4141    3.6354    1.4408 C.3     1  LIG1       -0.0434
     43 H          -2.4674   -4.6098   -2.8469 H       1  LIG1        0.0236
     44 H          -2.8539   -5.5334   -1.3954 H       1  LIG1        0.0236
     45 H          -1.4093   -4.5402   -1.4305 H       1  LIG1        0.0236
     46 H          -5.1059   -4.6661   -1.2231 H       1  LIG1        0.0236
     47 H          -4.7599   -3.9190   -2.7860 H       1  LIG1        0.0236
     48 H          -5.4839   -2.9755   -1.5012 H       1  LIG1        0.0236
     49 H           0.7263   -3.7695    0.8920 H       1  LIG1        0.0342
     50 H           0.5474   -5.0295    2.0973 H       1  LIG1        0.0342
     51 H           0.0721   -3.3737    2.5198 H       1  LIG1        0.0342
     52 H          -5.1565   -2.6935    1.1750 H       1  LIG1        0.0301
     53 H          -3.7437   -1.9551    1.9044 H       1  LIG1        0.0301
     54 H          -4.6876   -0.2167    0.6570 H       1  LIG1        0.0275
     55 H          -5.2780   -1.2406   -0.5687 H       1  LIG1        0.0275
     56 H          -4.6273    0.1182   -2.3423 H       1  LIG1        0.0238
     57 H          -3.0075    0.7469   -2.5567 H       1  LIG1        0.0238
     58 H          -3.9903    1.3101   -1.2093 H       1  LIG1        0.0238
     59 H          -3.5403   -1.8614   -2.6784 H       1  LIG1        0.0315
     60 H          -1.5921   -2.0498   -3.5637 H       1  LIG1        0.0269
     61 H          -0.8338   -2.7444   -2.1813 H       1  LIG1        0.0269
     62 H          -1.0884    0.1669   -2.8825 H       1  LIG1        0.0274
     63 H           0.3474   -0.7816   -2.6629 H       1  LIG1        0.0274
     64 H           1.2952   -1.3475   -0.3845 H       1  LIG1        0.0238
     65 H          -0.1441   -2.3061   -0.3300 H       1  LIG1        0.0238
     66 H           0.2061   -1.2604    1.0130 H       1  LIG1        0.0238
     67 H          -3.0373    0.6302    1.5663 H       1  LIG1        0.0618
     68 H          -1.0711    1.3688    2.7523 H       1  LIG1        0.0617
     69 H          -1.7009    2.3417   -1.0218 H       1  LIG1        0.0238
     70 H          -0.5900    2.1307   -2.3815 H       1  LIG1        0.0238
     71 H          -0.2736    3.3132   -1.1580 H       1  LIG1        0.0238
     72 H           1.6794    1.0376   -2.0364 H       1  LIG1        0.0310
     73 H           2.2286    0.4999   -0.4873 H       1  LIG1        0.0310
     74 H           5.3666    4.2555   -1.8479 H       1  LIG1        0.0342
     75 H           3.9187    4.8690   -2.7027 H       1  LIG1        0.0342
     76 H           5.1908    3.9817   -3.5912 H       1  LIG1        0.0342
     77 H           0.1841    4.3199    0.5052 H       1  LIG1        0.0236
     78 H           1.6287    5.1945   -0.0397 H       1  LIG1        0.0236
     79 H           1.2561    5.0312    1.6774 H       1  LIG1        0.0236
     80 H           0.8563    2.7997    2.4790 H       1  LIG1        0.0355
     81 H           2.3445   -0.4559    3.8825 H       1  LIG1        0.0233
     82 H           1.8528   -0.8152    2.2348 H       1  LIG1        0.0233
     83 H           0.7386   -0.0136    3.3778 H       1  LIG1        0.0233
     84 H           4.3936   -0.7573    2.8456 H       1  LIG1        0.0233
     85 H           4.7333    0.6503    3.8732 H       1  LIG1        0.0233
     86 H           5.7167    0.3281    2.4357 H       1  LIG1        0.0233
     87 H           5.1623    2.4424    1.0021 H       1  LIG1        0.0268
     88 H           4.9387    2.8263    2.6864 H       1  LIG1        0.0268
     89 H           3.9228    4.3922    0.8292 H       1  LIG1        0.0272
     90 H           3.1769    4.1459    2.3858 H       1  LIG1        0.0272
@<TRIPOS>BOND
     1     1     2    1
     2     2     3    1
     3     2     4    1
     4     4     5    1
     5     4     6    1
     6     6     7    1
     7     7     8    1
     8     7     9    2
     9     4    10    1
    10    10    11    1
    11    11    12    1
    12    12    13    1
    13    12    14    1
    14     2    14    1
    15    14    15    1
    16    15    16    1
    17    16    17    1
    18    17    18    1
    19    17    19    1
    20    12    19    1
    21    19    20    2
    22    20    21    1
    23    21    22    2
    24    22    23    1
    25    23    24    1
    26    17    23    1
    27    23    25    1
    28    25    26    1
    29    28    29    1
    30    29    30    1
    31    29    31    2
    32    26    32    1
    33    32    33    1
    34    32    34    1
    35    22    34    1
    36    34    35    1
    37    35    38    1
    38    38    39    1
    39    38    40    1
    40    38    41    1
    41    41    42    1
    42    32    42    1
    43    26    28    1
    44    26    27    1
    45    35    37    1
    46    35    36    1
    47     1    43    1
    48     1    44    1
    49     1    45    1
    50     3    46    1
    51     3    47    1
    52     3    48    1
    53     8    49    1
    54     8    50    1
    55     8    51    1
    56    10    52    1
    57    10    53    1
    58    11    54    1
    59    11    55    1
    60    13    56    1
    61    13    57    1
    62    13    58    1
    63    14    59    1
    64    15    60    1
    65    15    61    1
    66    16    62    1
    67    16    63    1
    68    18    64    1
    69    18    65    1
    70    18    66    1
    71    20    67    1
    72    21    68    1
    73    24    69    1
    74    24    70    1
    75    24    71    1
    76    25    72    1
    77    25    73    1
    78    30    74    1
    79    30    75    1
    80    30    76    1
    81    33    77    1
    82    33    78    1
    83    33    79    1
    84    34    80    1
    85    37    81    1
    86    37    82    1
    87    37    83    1
    88    40    84    1
    89    40    85    1
    90    40    86    1
    91    41    87    1
    92    41    88    1
    93    42    89    1
    94    42    90    1
