@<TRIPOS>MOLECULE
NuBBE_1360
 62 66 0 0 0
SMALL
GASTEIGER

@<TRIPOS>ATOM
      1 O           4.4347    2.8631   -0.0159 O.2     1  LIG1       -0.2756
      2 C           3.6120    1.9457   -0.0412 C.2     1  LIG1        0.2162
      3 C           3.7679    0.7716    0.8989 C.3     1  LIG1        0.0127
      4 N           2.5070    1.9433   -0.9008 N.am    1  LIG1       -0.2782
      5 C           2.3372    3.1087   -1.7711 C.3     1  LIG1        0.0195
      6 C           1.4744    2.8124   -2.9906 C.3     1  LIG1       -0.0330
      7 C           0.1481    2.1839   -2.5748 C.3     1  LIG1       -0.0274
      8 C           0.3627    1.0747   -1.5786 C.2     1  LIG1       -0.0381
      9 C          -0.7568    0.0364   -1.4418 C.3     1  LIG1        0.0376
     10 H          -1.3097    0.0165   -2.3931 H       1  LIG1        0.0513
     11 C          -1.7914    0.4924   -0.3464 C.3     1  LIG1       -0.0055
     12 H          -2.2394    1.4351   -0.6902 H       1  LIG1        0.0334
     13 C          -1.1903    0.7313    1.0728 C.3     1  LIG1        0.0173
     14 C          -2.1152    1.5413    1.9967 C.3     1  LIG1       -0.0108
     15 C          -1.3326    2.0369    3.2205 C.3     1  LIG1        0.0578
     16 H          -0.9848    3.0611    3.0406 H       1  LIG1        0.0594
     17 O          -2.2249    2.0948    4.3334 O.3     1  LIG1       -0.3917
     18 C          -0.1235    1.1571    3.5524 C.3     1  LIG1       -0.0140
     19 C          -0.3948   -0.2995    3.1785 C.3     1  LIG1        0.0015
     20 N          -0.7371   -0.4959    1.7566 N.3     1  LIG1       -0.2986
     21 C          -1.6650   -1.6305    1.6179 C.3     1  LIG1        0.0034
     22 C          -2.9006   -0.5539   -0.2622 C.3     1  LIG1       -0.0416
     23 C          -2.2478   -1.8511    0.2085 C.3     1  LIG1       -0.0122
     24 H          -3.0331   -2.6145    0.2941 H       1  LIG1        0.0328
     25 C          -1.2511   -2.3236   -0.8772 C.3     1  LIG1        0.0150
     26 N          -0.2184   -1.3323   -1.2412 N.3     1  LIG1       -0.2921
     27 C           0.5370   -1.8056   -2.4202 C.3     1  LIG1       -0.0002
     28 C           1.2518   -3.1234   -2.1200 C.3     1  LIG1       -0.0401
     29 C           0.2775   -4.1887   -1.6372 C.3     1  LIG1       -0.0505
     30 C          -0.5737   -3.6519   -0.4902 C.3     1  LIG1       -0.0370
     31 C           1.4968    0.9986   -0.8560 C.2     1  LIG1       -0.0000
     32 H           4.7048    0.8748    1.4547 H       1  LIG1        0.0323
     33 H           3.8126   -0.1655    0.3375 H       1  LIG1        0.0323
     34 H           2.9464    0.7519    1.6210 H       1  LIG1        0.0323
     35 H           3.3197    3.4643   -2.1029 H       1  LIG1        0.0468
     36 H           1.8897    3.9067   -1.1658 H       1  LIG1        0.0468
     37 H           2.0106    2.1175   -3.6510 H       1  LIG1        0.0284
     38 H           1.2980    3.7279   -3.5656 H       1  LIG1        0.0284
     39 H          -0.3465    1.8008   -3.4748 H       1  LIG1        0.0311
     40 H          -0.5110    2.9413   -2.1347 H       1  LIG1        0.0311
     41 H          -0.3131    1.3695    0.9318 H       1  LIG1        0.0467
     42 H          -2.9839    0.9489    2.3100 H       1  LIG1        0.0305
     43 H          -2.5242    2.4105    1.4668 H       1  LIG1        0.0305
     44 H          -1.7401    2.4950    5.0758 H       1  LIG1        0.2098
     45 H           0.1249    1.2213    4.6180 H       1  LIG1        0.0302
     46 H           0.7545    1.5106    2.9969 H       1  LIG1        0.0302
     47 H          -1.1964   -0.6610    3.8366 H       1  LIG1        0.0427
     48 H           0.4918   -0.9029    3.4055 H       1  LIG1        0.0427
     49 H          -2.5220   -1.4834    2.2908 H       1  LIG1        0.0430
     50 H          -1.1696   -2.5449    1.9630 H       1  LIG1        0.0430
     51 H          -3.3794   -0.6911   -1.2396 H       1  LIG1        0.0273
     52 H          -3.6915   -0.2424    0.4293 H       1  LIG1        0.0273
     53 H          -1.8608   -2.5201   -1.7732 H       1  LIG1        0.0466
     54 H           1.3060   -1.0864   -2.7215 H       1  LIG1        0.0427
     55 H          -0.1311   -1.9308   -3.2826 H       1  LIG1        0.0427
     56 H           2.0201   -2.9555   -1.3544 H       1  LIG1        0.0278
     57 H           1.7697   -3.4762   -3.0191 H       1  LIG1        0.0278
     58 H          -0.3738   -4.4923   -2.4659 H       1  LIG1        0.0266
     59 H           0.8256   -5.0807   -1.3148 H       1  LIG1        0.0266
     60 H           0.0710   -3.5147    0.3866 H       1  LIG1        0.0280
     61 H          -1.3296   -4.3992   -0.2221 H       1  LIG1        0.0280
     62 H           1.6108    0.1719   -0.1585 H       1  LIG1        0.0784
@<TRIPOS>BOND
     1     1     2    2
     2     2     3    1
     3     2     4   am
     4     4     5    1
     5     5     6    1
     6     6     7    1
     7     7     8    1
     8     8     9    1
     9     9    10    1
    10     9    11    1
    11    11    12    1
    12    11    13    1
    13    13    14    1
    14    14    15    1
    15    15    18    1
    16    18    19    1
    17    19    20    1
    18    13    20    1
    19    20    21    1
    20    11    22    1
    21    22    23    1
    22    23    24    1
    23    21    23    1
    24    23    25    1
    25    25    26    1
    26     9    26    1
    27    26    27    1
    28    27    28    1
    29    28    29    1
    30    29    30    1
    31    25    30    1
    32     8    31    2
    33     4    31    1
    34    15    17    1
    35    15    16    1
    36     3    32    1
    37     3    33    1
    38     3    34    1
    39     5    35    1
    40     5    36    1
    41     6    37    1
    42     6    38    1
    43     7    39    1
    44     7    40    1
    45    13    41    1
    46    14    42    1
    47    14    43    1
    48    17    44    1
    49    18    45    1
    50    18    46    1
    51    19    47    1
    52    19    48    1
    53    21    49    1
    54    21    50    1
    55    22    51    1
    56    22    52    1
    57    25    53    1
    58    27    54    1
    59    27    55    1
    60    28    56    1
    61    28    57    1
    62    29    58    1
    63    29    59    1
    64    30    60    1
    65    30    61    1
    66    31    62    1
