REMARK  Name = NuBBE_1946
REMARK  5 active torsions:
REMARK  status: ('A' for Active; 'I' for Inactive)
REMARK    1  A    between atoms: C_1  and  C_2
REMARK    2  A    between atoms: C_1  and  C_3
REMARK    3  A    between atoms: C_1  and  C_4
REMARK    4  A    between atoms: C_8  and  C_12
REMARK    5  A    between atoms: C_15  and  C_17
REMARK                            x       y       z     vdW  Elec       q    Type
REMARK                         _______ _______ _______ _____ _____    ______ ____
ROOT
ATOM      1  C   LIG A   1      -0.724  -0.824  -0.201  0.00  0.00    -0.064 C 
ATOM      2  C   LIG A   1      -0.020   0.335  -0.193  0.00  0.00    -0.045 C 
ATOM      3  C   LIG A   1       1.508   0.396  -0.103  0.00  0.00    +0.022 C 
ATOM      4  C   LIG A   1       2.224  -0.974  -0.104  0.00  0.00    -0.006 C 
ATOM      5  C   LIG A   1       1.378  -2.028   0.608  0.00  0.00    +0.008 C 
ATOM      6  C   LIG A   1      -0.012  -2.154  -0.012  0.00  0.00    +0.031 C 
ATOM      7  C   LIG A   1       2.562  -1.413  -1.536  0.00  0.00    +0.008 C 
ATOM      8  C   LIG A   1       1.867   1.232   1.136  0.00  0.00    +0.013 C 
ATOM      9  C   LIG A   1       1.334   2.663   0.981  0.00  0.00    +0.031 C 
ATOM     10  C   LIG A   1      -0.019   2.741   0.311  0.00  0.00    -0.072 C 
ATOM     11  C   LIG A   1      -0.628   1.660  -0.215  0.00  0.00    +0.003 C 
ATOM     12  C   LIG A   1      -0.649   4.103   0.275  0.00  0.00    +0.039 C 
ENDROOT
BRANCH   1  13
ATOM     13  C   LIG A   1      -2.248  -0.920  -0.330  0.00  0.00    +0.009 C 
ATOM     14  C   LIG A   1      -2.679  -1.911  -1.417  0.00  0.00    +0.012 C 
ATOM     15  C   LIG A   1      -2.910  -1.262   1.008  0.00  0.00    +0.012 C 
ENDBRANCH   1  13
TORSDOF 1
