REMARK  Name = NuBBE_1717
REMARK  8 active torsions:
REMARK  status: ('A' for Active; 'I' for Inactive)
REMARK    1  A    between atoms: C_1  and  C_2
REMARK    2  A    between atoms: C_7  and  C_9
REMARK    3  A    between atoms: C_9  and  O_11
REMARK    4  A    between atoms: O_11  and  C_12
REMARK    5  A    between atoms: C_19  and  O_32
REMARK    6  A    between atoms: C_21  and  O_31
REMARK    7  A    between atoms: C_25  and  C_26
REMARK    8  A    between atoms: C_25  and  C_27
REMARK                            x       y       z     vdW  Elec       q    Type
REMARK                         _______ _______ _______ _____ _____    ______ ____
ROOT
ATOM      1  C   LIG A   1      -2.516  -0.264   1.627  0.00  0.00    +0.012 C 
ATOM      2  C   LIG A   1      -1.069   0.273   1.388  0.00  0.00    -0.023 C 
ATOM      3  C   LIG A   1      -0.882   0.655  -0.119  0.00  0.00    +0.009 C 
ATOM      4  C   LIG A   1      -1.165  -0.559  -1.088  0.00  0.00    +0.042 C 
ATOM      5  C   LIG A   1      -0.662  -0.284  -2.545  0.00  0.00    +0.137 C 
ATOM      6  C   LIG A   1      -1.210   1.042  -2.985  0.00  0.00    +0.008 A 
ATOM      7  C   LIG A   1      -1.630   1.995  -2.084  0.00  0.00    +0.109 A 
ATOM      8  C   LIG A   1      -1.669   1.917  -0.602  0.00  0.00    +0.079 C 
ATOM      9  O   LIG A   1      -2.094   3.098  -2.716  0.00  0.00    -0.468 OA
ATOM     10  C   LIG A   1      -1.962   2.852  -4.049  0.00  0.00    +0.195 A 
ATOM     11  C   LIG A   1      -1.430   1.598  -4.267  0.00  0.00    +0.045 A 
ATOM     12  C   LIG A   1      -0.778  -1.923  -0.506  0.00  0.00    +0.148 C 
ATOM     13  C   LIG A   1       0.281  -1.847   0.592  0.00  0.00    +0.147 C 
ATOM     14  C   LIG A   1      -0.007  -0.858   1.766  0.00  0.00    +0.032 C 
ATOM     15  C   LIG A   1       1.363  -0.370   2.431  0.00  0.00    -0.029 C 
ATOM     16  C   LIG A   1       1.962  -1.516   3.286  0.00  0.00    +0.011 C 
ATOM     17  C   LIG A   1       2.464   0.043   1.422  0.00  0.00    +0.011 C 
ATOM     18  C   LIG A   1       1.129   0.821   3.382  0.00  0.00    +0.007 C 
ATOM     19  C   LIG A   1       0.406   1.961   2.690  0.00  0.00    +0.001 C 
ATOM     20  C   LIG A   1      -0.991   1.503   2.338  0.00  0.00    +0.007 C 
ENDROOT
BRANCH   5  21
ATOM     21  C   LIG A   1       0.860  -0.267  -2.685  0.00  0.00    +0.315 C 
ATOM     22  O   LIG A   1       1.615   0.497  -2.084  0.00  0.00    -0.250 OA
BRANCH  21  23
ATOM     23  O   LIG A   1       1.260  -1.143  -3.649  0.00  0.00    -0.468 OA
ATOM     24  C   LIG A   1       2.610  -0.985  -4.086  0.00  0.00    +0.280 C 
ENDBRANCH  21  23
ENDBRANCH   5  21
BRANCH  13  25
ATOM     25  O   LIG A   1       0.469  -3.181   1.093  0.00  0.00    -0.389 OA
ATOM     26  H   LIG A   1      -0.319  -3.421   1.613  0.00  0.00    +0.210 HD
ENDBRANCH  13  25
BRANCH  12  27
ATOM     27  O   LIG A   1      -0.334  -2.810  -1.536  0.00  0.00    -0.389 OA
ATOM     28  H   LIG A   1       0.164  -3.521  -1.083  0.00  0.00    +0.210 HD
ENDBRANCH  12  27
TORSDOF 4
