@<TRIPOS>MOLECULE
NuBBE_1679
 61 61 0 0 0
SMALL
GASTEIGER

@<TRIPOS>ATOM
      1 C           1.2766   -8.3488   -0.6634 C.2     1  LIG1        0.3406
      2 O           0.2133   -8.8039   -0.7359 O.2     1  LIG1       -0.2450
      3 O           2.4011   -9.1321   -0.9400 O.3     1  LIG1       -0.4770
      4 C           1.6356   -6.9362   -0.2811 C.ar    1  LIG1        0.1032
      5 C           0.9250   -5.7650   -0.6999 C.ar    1  LIG1       -0.0299
      6 C          -0.4199   -5.6458   -1.4721 C.3     1  LIG1       -0.0268
      7 C          -1.0860   -4.1596   -1.8720 C.3     1  LIG1       -0.0490
      8 C          -1.3593   -3.0610   -0.7498 C.3     1  LIG1       -0.0528
      9 C          -1.9391   -1.5280   -0.9797 C.3     1  LIG1       -0.0530
     10 C          -1.1307   -0.4013   -1.8494 C.3     1  LIG1       -0.0531
     11 C          -1.6328    1.1393   -2.0207 C.3     1  LIG1       -0.0531
     12 C          -0.8788    2.1842   -2.9768 C.3     1  LIG1       -0.0531
     13 C          -1.4307    3.6433   -2.7975 C.3     1  LIG1       -0.0531
     14 C          -1.4576    4.1766   -1.3413 C.3     1  LIG1       -0.0531
     15 C          -0.0546    4.2713   -0.7062 C.3     1  LIG1       -0.0531
     16 C           0.0236    4.5158    0.8295 C.3     1  LIG1       -0.0531
     17 C          -0.5004    5.8774    1.3458 C.3     1  LIG1       -0.0531
     18 C          -0.5094    6.0949    2.9336 C.3     1  LIG1       -0.0533
     19 C           0.6901    6.4957    3.8803 C.3     1  LIG1       -0.0559
     20 C           0.5220    6.9259    5.3953 C.3     1  LIG1       -0.0653
     21 C           1.5189   -4.5346   -0.3447 C.ar    1  LIG1       -0.0576
     22 C           2.5934   -4.4171    0.5324 C.ar    1  LIG1       -0.0580
     23 C           3.2214   -5.5447    1.0144 C.ar    1  LIG1       -0.0193
     24 C           2.7745   -6.7945    0.5907 C.ar    1  LIG1        0.1311
     25 O           3.4573   -7.8809    1.0967 O.3     1  LIG1       -0.5059
     26 H           2.0481  -10.0210   -1.0968 H       1  LIG1        0.2954
     27 H          -1.1841   -6.2335   -0.9374 H       1  LIG1        0.0313
     28 H          -0.2776   -6.1613   -2.4360 H       1  LIG1        0.0313
     29 H          -2.0568   -4.3795   -2.3493 H       1  LIG1        0.0268
     30 H          -0.4539   -3.7427   -2.6626 H       1  LIG1        0.0268
     31 H          -0.4658   -2.9152   -0.1503 H       1  LIG1        0.0265
     32 H          -2.0569   -3.5601   -0.0580 H       1  LIG1        0.0265
     33 H          -2.0151   -1.1376    0.0538 H       1  LIG1        0.0265
     34 H          -2.9785   -1.6082   -1.3208 H       1  LIG1        0.0265
     35 H          -1.0136   -0.8153   -2.8486 H       1  LIG1        0.0265
     36 H          -0.1484   -0.3099   -1.3731 H       1  LIG1        0.0265
     37 H          -1.5594    1.5839   -1.0255 H       1  LIG1        0.0265
     38 H          -2.6874    1.1894   -2.3195 H       1  LIG1        0.0265
     39 H          -1.0177    1.9546   -4.0470 H       1  LIG1        0.0265
     40 H           0.2081    2.1983   -2.8184 H       1  LIG1        0.0265
     41 H          -2.4535    3.6519   -3.2020 H       1  LIG1        0.0265
     42 H          -0.8770    4.3588   -3.4294 H       1  LIG1        0.0265
     43 H          -2.1187    3.5440   -0.7416 H       1  LIG1        0.0265
     44 H          -1.9313    5.1661   -1.3414 H       1  LIG1        0.0265
     45 H           0.5118    5.0476   -1.2319 H       1  LIG1        0.0265
     46 H           0.4720    3.3262   -0.8928 H       1  LIG1        0.0265
     47 H           1.0699    4.3978    1.1321 H       1  LIG1        0.0265
     48 H          -0.5418    3.7108    1.3157 H       1  LIG1        0.0265
     49 H          -1.5705    5.8390    1.0832 H       1  LIG1        0.0265
     50 H          -0.1057    6.7147    0.7515 H       1  LIG1        0.0265
     51 H          -0.7690    5.0920    3.2787 H       1  LIG1        0.0265
     52 H          -1.3438    6.7778    3.1211 H       1  LIG1        0.0265
     53 H           1.2887    7.2883    3.4265 H       1  LIG1        0.0263
     54 H           1.2929    5.5874    3.9601 H       1  LIG1        0.0263
     55 H           0.5285    8.0185    5.5278 H       1  LIG1        0.0230
     56 H           1.4245    6.5975    5.9441 H       1  LIG1        0.0230
     57 H          -0.3194    6.5232    5.9773 H       1  LIG1        0.0230
     58 H           1.1533   -3.6102   -0.7599 H       1  LIG1        0.0621
     59 H           2.9271   -3.4276    0.8329 H       1  LIG1        0.0619
     60 H           4.0566   -5.4292    1.6981 H       1  LIG1        0.0654
     61 H           4.1112   -7.5874    1.7512 H       1  LIG1        0.2922
@<TRIPOS>BOND
     1     1     2    2
     2     1     3    1
     3     1     4    1
     4     4     5   ar
     5     5     6    1
     6     6     7    1
     7     7     8    1
     8     8     9    1
     9     9    10    1
    10    10    11    1
    11    11    12    1
    12    12    13    1
    13    13    14    1
    14    14    15    1
    15    15    16    1
    16    16    17    1
    17    17    18    1
    18    18    19    1
    19    19    20    1
    20     5    21   ar
    21    21    22   ar
    22    22    23   ar
    23    23    24   ar
    24     4    24   ar
    25    24    25    1
    26     3    26    1
    27     6    27    1
    28     6    28    1
    29     7    29    1
    30     7    30    1
    31     8    31    1
    32     8    32    1
    33     9    33    1
    34     9    34    1
    35    10    35    1
    36    10    36    1
    37    11    37    1
    38    11    38    1
    39    12    39    1
    40    12    40    1
    41    13    41    1
    42    13    42    1
    43    14    43    1
    44    14    44    1
    45    15    45    1
    46    15    46    1
    47    16    47    1
    48    16    48    1
    49    17    49    1
    50    17    50    1
    51    18    51    1
    52    18    52    1
    53    19    53    1
    54    19    54    1
    55    20    55    1
    56    20    56    1
    57    20    57    1
    58    21    58    1
    59    22    59    1
    60    23    60    1
    61    25    61    1
