REMARK  Name = NuBBE_1515
REMARK  21 active torsions:
REMARK  status: ('A' for Active; 'I' for Inactive)
REMARK    1  A    between atoms: C_7  and  C_11
REMARK    2  A    between atoms: C_8  and  O_9
REMARK    3  A    between atoms: O_9  and  C_10
REMARK    4  A    between atoms: C_11  and  C_12
REMARK    5  A    between atoms: C_12  and  C_13
REMARK    6  A    between atoms: C_13  and  C_14
REMARK    7  A    between atoms: C_14  and  C_15
REMARK    8  A    between atoms: C_15  and  C_16
REMARK    9  A    between atoms: C_16  and  C_17
REMARK   10  A    between atoms: C_17  and  C_18
REMARK   11  A    between atoms: C_18  and  C_19
REMARK   12  A    between atoms: C_19  and  C_20
REMARK   13  A    between atoms: C_20  and  C_21
REMARK   14  A    between atoms: C_21  and  C_22
REMARK   15  A    between atoms: C_22  and  C_23
REMARK   16  A    between atoms: C_23  and  C_24
REMARK   17  A    between atoms: C_24  and  C_25
REMARK   18  A    between atoms: C_24  and  C_28
REMARK   19  A    between atoms: C_24  and  O_29
REMARK   20  A    between atoms: C_25  and  C_26
REMARK   21  A    between atoms: C_25  and  C_27
REMARK                            x       y       z     vdW  Elec       q    Type
REMARK                         _______ _______ _______ _____ _____    ______ ____
ROOT
ATOM      1  C   LIG A   1      -1.425  -1.039  -2.695  0.00  0.00    +0.000 C 
ENDROOT
BRANCH   1   2
ATOM      2  C   LIG A   1      -0.729  -1.138  -1.333  0.00  0.00    +0.000 C 
BRANCH   2   3
ATOM      3  C   LIG A   1      -1.602  -1.580  -0.149  0.00  0.00    -0.000 C 
BRANCH   3   4
ATOM      4  C   LIG A   1      -2.683  -0.601   0.315  0.00  0.00    -0.000 C 
BRANCH   4   5
ATOM      5  C   LIG A   1      -2.246   0.841   0.629  0.00  0.00    -0.000 C 
BRANCH   5   6
ATOM      6  C   LIG A   1      -1.219   1.064   1.780  0.00  0.00    -0.000 C 
BRANCH   6   7
ATOM      7  C   LIG A   1       0.206   0.493   1.540  0.00  0.00    -0.000 C 
BRANCH   7   8
ATOM      8  C   LIG A   1       1.272   0.686   2.644  0.00  0.00    -0.000 C 
BRANCH   8   9
ATOM      9  C   LIG A   1       2.677   0.048   2.317  0.00  0.00    +0.000 C 
BRANCH   9  10
ATOM     10  C   LIG A   1       3.764   0.478   3.351  0.00  0.00    +0.003 C 
BRANCH  10  11
ATOM     11  C   LIG A   1       5.203  -0.093   3.181  0.00  0.00    +0.035 C 
BRANCH  11  12
ATOM     12  C   LIG A   1       6.331   0.312   4.229  0.00  0.00    +0.066 C 
ATOM     13  C   LIG A   1       7.670  -0.321   3.742  0.00  0.00    +0.041 C 
BRANCH  12  14
ATOM     14  C   LIG A   1       6.100  -0.071   5.745  0.00  0.00    +0.014 C 
ATOM     15  C   LIG A   1       7.258   0.347   6.691  0.00  0.00    +0.010 C 
ATOM     16  C   LIG A   1       4.831   0.502   6.378  0.00  0.00    +0.010 C 
ENDBRANCH  12  14
BRANCH  12  17
ATOM     17  O   LIG A   1       6.481   1.738   4.137  0.00  0.00    -0.389 OA
ATOM     18  H   LIG A   1       7.369   1.975   4.456  0.00  0.00    +0.210 HD
ENDBRANCH  12  17
ENDBRANCH  11  12
ENDBRANCH  10  11
ENDBRANCH   9  10
ENDBRANCH   8   9
ENDBRANCH   7   8
ENDBRANCH   6   7
ENDBRANCH   5   6
ENDBRANCH   4   5
ENDBRANCH   3   4
ENDBRANCH   2   3
ENDBRANCH   1   2
BRANCH   1  19
ATOM     19  C   LIG A   1      -2.036  -2.349  -3.204  0.00  0.00    +0.006 C 
BRANCH  19  20
ATOM     20  C   LIG A   1      -2.650  -2.226  -4.628  0.00  0.00    +0.057 C 
BRANCH  20  27
ATOM     21  O   LIG A   1      -5.519   1.124  -6.929  0.00  0.00    -0.283 OA
ATOM     22  C   LIG A   1      -5.046   0.562  -5.913  0.00  0.00    +0.231 A 
ATOM     23  C   LIG A   1      -5.573   1.000  -4.623  0.00  0.00    +0.049 A 
ATOM     24  C   LIG A   1      -5.296   0.206  -3.510  0.00  0.00    +0.051 A 
ATOM     25  N   LIG A   1      -4.564  -0.972  -3.671  0.00  0.00    -0.355 N 
ATOM     26  H   LIG A   1      -4.294  -1.440  -2.814  0.00  0.00    +0.166 HD
ATOM     27  C   LIG A   1      -3.769  -1.185  -4.798  0.00  0.00    +0.062 A 
ATOM     28  C   LIG A   1      -3.960  -0.482  -5.952  0.00  0.00    +0.186 A 
ATOM     29  C   LIG A   1      -5.793   0.606  -2.266  0.00  0.00    +0.026 A 
ATOM     30  C   LIG A   1      -6.537   1.784  -2.142  0.00  0.00    +0.002 A 
ATOM     31  C   LIG A   1      -6.803   2.570  -3.264  0.00  0.00    +0.001 A 
ATOM     32  C   LIG A   1      -6.322   2.179  -4.508  0.00  0.00    +0.014 A 
BRANCH  28  33
ATOM     33  O   LIG A   1      -3.132  -0.654  -7.056  0.00  0.00    -0.490 OA
ATOM     34  C   LIG A   1      -3.631  -0.373  -8.368  0.00  0.00    +0.277 C 
ENDBRANCH  28  33
ENDBRANCH  20  27
ENDBRANCH  19  20
ENDBRANCH   1  19
TORSDOF 17
