REMARK  Name = NuBBE_1908
REMARK  4 active torsions:
REMARK  status: ('A' for Active; 'I' for Inactive)
REMARK    1  A    between atoms: C_3  and  C_4
REMARK    2  A    between atoms: C_7  and  O_8
REMARK    3  A    between atoms: O_8  and  C_9
REMARK    4  A    between atoms: C_16  and  O_17
REMARK                            x       y       z     vdW  Elec       q    Type
REMARK                         _______ _______ _______ _____ _____    ______ ____
ROOT
ATOM      1  O   LIG A   1      -1.398  -1.433   0.151  0.00  0.00    -0.286 OA
ATOM      2  C   LIG A   1      -0.173  -1.349   0.120  0.00  0.00    +0.200 A 
ATOM      3  C   LIG A   1       0.561  -0.044   0.087  0.00  0.00    +0.064 A 
ATOM      4  C   LIG A   1       1.903  -0.128   0.072  0.00  0.00    +0.208 A 
ATOM      5  O   LIG A   1       2.672  -1.268   0.099  0.00  0.00    -0.462 OA
ATOM      6  C   LIG A   1       2.025  -2.475   0.117  0.00  0.00    +0.142 A 
ATOM      7  C   LIG A   1       2.818  -3.625   0.133  0.00  0.00    +0.092 A 
ATOM      8  C   LIG A   1       2.203  -4.874   0.147  0.00  0.00    +0.120 A 
ATOM      9  C   LIG A   1       0.816  -4.989   0.144  0.00  0.00    +0.046 A 
ATOM     10  C   LIG A   1       0.027  -3.839   0.131  0.00  0.00    +0.019 A 
ATOM     11  C   LIG A   1       0.638  -2.579   0.120  0.00  0.00    +0.065 A 
ENDROOT
BRANCH   3  12
ATOM     12  C   LIG A   1      -0.131   1.272   0.053  0.00  0.00    -0.011 A 
ATOM     13  C   LIG A   1       0.422   2.416   0.653  0.00  0.00    +0.012 A 
ATOM     14  C   LIG A   1      -0.248   3.647   0.623  0.00  0.00    +0.046 A 
ATOM     15  C   LIG A   1      -1.495   3.765   0.011  0.00  0.00    +0.120 A 
ATOM     16  C   LIG A   1      -2.059   2.642  -0.585  0.00  0.00    +0.046 A 
ATOM     17  C   LIG A   1      -1.380   1.416  -0.569  0.00  0.00    +0.012 A 
BRANCH  15  18
ATOM     18  O   LIG A   1      -2.054   5.012   0.066  0.00  0.00    -0.495 OA
ATOM     19  C   LIG A   1      -3.346   5.157  -0.513  0.00  0.00    +0.277 C 
ENDBRANCH  15  18
ENDBRANCH   3  12
BRANCH   8  20
ATOM     20  O   LIG A   1       2.931  -6.026   0.164  0.00  0.00    -0.507 OA
ATOM     21  H   LIG A   1       3.877  -5.805   0.167  0.00  0.00    +0.292 HD
ENDBRANCH   8  20
TORSDOF 3
