REMARK  Name = NuBBE_362
REMARK  12 active torsions:
REMARK  status: ('A' for Active; 'I' for Inactive)
REMARK    1  A    between atoms: O_1  and  C_2
REMARK    2  A    between atoms: C_5  and  C_9
REMARK    3  A    between atoms: C_7  and  O_8
REMARK    4  A    between atoms: C_10  and  C_11
REMARK    5  A    between atoms: C_11  and  O_12
REMARK    6  A    between atoms: O_12  and  C_13
REMARK    7  A    between atoms: C_15  and  O_28
REMARK    8  A    between atoms: C_17  and  O_27
REMARK    9  A    between atoms: C_20  and  O_21
REMARK   10  A    between atoms: C_20  and  C_23
REMARK   11  A    between atoms: C_23  and  O_24
REMARK   12  A    between atoms: O_24  and  C_25
REMARK                            x       y       z     vdW  Elec       q    Type
REMARK                         _______ _______ _______ _____ _____    ______ ____
ROOT
ATOM      1  C   LIG A   1      -2.525   1.402   0.167  0.00  0.00    +0.211 C 
ATOM      2  C   LIG A   1      -2.534   2.872  -0.287  0.00  0.00    +0.184 C 
ATOM      3  C   LIG A   1      -1.761   3.052  -1.603  0.00  0.00    +0.150 C 
ATOM      4  C   LIG A   1      -2.329   2.165  -2.708  0.00  0.00    +0.080 C 
ATOM      5  C   LIG A   1      -2.440   0.692  -2.307  0.00  0.00    +0.168 C 
ATOM      6  C   LIG A   1      -3.090   0.491  -0.933  0.00  0.00    +0.093 C 
ENDROOT
BRANCH   5   7
ATOM      7  O   LIG A   1      -3.308   0.074  -3.282  0.00  0.00    -0.377 OA
ATOM      8  H   LIG A   1      -3.225  -0.891  -3.149  0.00  0.00    +0.211 HD
ENDBRANCH   5   7
BRANCH   5   9
ATOM      9  C   LIG A   1      -1.065  -0.014  -2.406  0.00  0.00    +0.339 C 
ATOM     10  O   LIG A   1       0.026   0.520  -2.275  0.00  0.00    -0.248 OA
BRANCH   9  11
ATOM     11  O   LIG A   1      -1.268  -1.331  -2.719  0.00  0.00    -0.466 OA
ATOM     12  C   LIG A   1      -0.136  -2.027  -3.243  0.00  0.00    +0.280 C 
ENDBRANCH   9  11
ENDBRANCH   5   9
BRANCH   3  13
ATOM     13  O   LIG A   1      -1.894   4.417  -2.025  0.00  0.00    -0.389 OA
ATOM     14  H   LIG A   1      -1.280   4.949  -1.487  0.00  0.00    +0.210 HD
ENDBRANCH   3  13
BRANCH   2  15
ATOM     15  O   LIG A   1      -3.883   3.321  -0.466  0.00  0.00    -0.386 OA
ATOM     16  H   LIG A   1      -3.836   4.080  -1.084  0.00  0.00    +0.210 HD
ENDBRANCH   2  15
BRANCH   1  17
ATOM     17  O   LIG A   1      -1.171   1.027   0.490  0.00  0.00    -0.456 OA
BRANCH  17  18
ATOM     18  C   LIG A   1      -1.013  -0.116   1.200  0.00  0.00    +0.332 C 
ATOM     19  O   LIG A   1      -1.904  -0.852   1.607  0.00  0.00    -0.246 OA
BRANCH  18  21
ATOM     20  C   LIG A   1       0.880  -1.270   2.244  0.00  0.00    +0.015 C 
ATOM     21  C   LIG A   1       0.428  -0.357   1.366  0.00  0.00    +0.092 C 
BRANCH  20  25
ATOM     22  C   LIG A   1       5.016  -2.183   2.846  0.00  0.00    +0.158 A 
ATOM     23  C   LIG A   1       4.590  -1.738   1.599  0.00  0.00    +0.050 A 
ATOM     24  C   LIG A   1       3.241  -1.439   1.397  0.00  0.00    +0.012 A 
ATOM     25  C   LIG A   1       2.309  -1.565   2.440  0.00  0.00    -0.021 A 
ATOM     26  C   LIG A   1       2.750  -2.031   3.688  0.00  0.00    +0.057 A 
ATOM     27  C   LIG A   1       4.101  -2.330   3.887  0.00  0.00    +0.159 A 
BRANCH  22  28
ATOM     28  O   LIG A   1       6.333  -2.481   3.057  0.00  0.00    -0.503 OA
ATOM     29  H   LIG A   1       6.824  -2.343   2.233  0.00  0.00    +0.292 HD
ENDBRANCH  22  28
BRANCH  27  30
ATOM     30  O   LIG A   1       4.541  -2.771   5.104  0.00  0.00    -0.503 OA
ATOM     31  H   LIG A   1       3.804  -2.770   5.733  0.00  0.00    +0.292 HD
ENDBRANCH  27  30
ENDBRANCH  20  25
ENDBRANCH  18  21
ENDBRANCH  17  18
ENDBRANCH   1  17
TORSDOF 11
