REMARK  Name = NuBBE_2057
REMARK  8 active torsions:
REMARK  status: ('A' for Active; 'I' for Inactive)
REMARK    1  A    between atoms: C_6  and  O_7
REMARK    2  A    between atoms: O_7  and  C_8
REMARK    3  A    between atoms: C_8  and  C_9
REMARK    4  A    between atoms: C_9  and  C_10
REMARK    5  A    between atoms: C_9  and  O_14
REMARK    6  A    between atoms: C_10  and  C_11
REMARK    7  A    between atoms: C_10  and  C_12
REMARK    8  A    between atoms: C_10  and  O_13
REMARK                            x       y       z     vdW  Elec       q    Type
REMARK                         _______ _______ _______ _____ _____    ______ ____
ROOT
ATOM      1  O   LIG A   1      -5.462   2.549   0.846  0.00  0.00    -0.245 OA
ATOM      2  C   LIG A   1      -4.288   2.760   0.582  0.00  0.00    +0.337 A 
ATOM      3  O   LIG A   1      -3.352   1.739   0.502  0.00  0.00    -0.422 OA
ATOM      4  C   LIG A   1      -2.001   2.012   0.215  0.00  0.00    +0.146 A 
ATOM      5  C   LIG A   1      -1.145   0.905   0.165  0.00  0.00    +0.096 A 
ATOM      6  C   LIG A   1       0.215   1.074  -0.115  0.00  0.00    +0.169 A 
ATOM      7  C   LIG A   1       0.656   2.378  -0.319  0.00  0.00    +0.208 A 
ATOM      8  O   LIG A   1       1.936   2.768  -0.588  0.00  0.00    -0.449 OA
ATOM      9  C   LIG A   1       1.782   4.195  -0.716  0.00  0.00    +0.467 C 
ATOM     10  O   LIG A   1       0.430   4.644  -0.504  0.00  0.00    -0.452 OA
ATOM     11  C   LIG A   1      -0.207   3.462  -0.268  0.00  0.00    +0.180 A 
ATOM     12  C   LIG A   1      -1.556   3.311  -0.005  0.00  0.00    +0.063 A 
ATOM     13  C   LIG A   1      -2.518   4.398   0.053  0.00  0.00    +0.022 A 
ATOM     14  C   LIG A   1      -3.800   4.128   0.330  0.00  0.00    +0.093 A 
ENDROOT
BRANCH   6  15
ATOM     15  O   LIG A   1       1.123   0.048  -0.203  0.00  0.00    -0.485 OA
BRANCH  15  16
ATOM     16  C   LIG A   1       0.569  -1.268   0.001  0.00  0.00    +0.263 C 
BRANCH  16  17
ATOM     17  C   LIG A   1       1.667  -2.335  -0.119  0.00  0.00    +0.183 C 
BRANCH  17  18
ATOM     18  C   LIG A   1       1.120  -3.781   0.054  0.00  0.00    +0.089 C 
ATOM     19  C   LIG A   1       2.245  -4.818  -0.053  0.00  0.00    +0.044 C 
ATOM     20  C   LIG A   1       0.367  -3.984   1.372  0.00  0.00    +0.044 C 
BRANCH  18  21
ATOM     21  O   LIG A   1       0.190  -4.047  -1.008  0.00  0.00    -0.387 OA
ATOM     22  H   LIG A   1       0.634  -3.738  -1.824  0.00  0.00    +0.210 HD
ENDBRANCH  18  21
ENDBRANCH  17  18
BRANCH  17  23
ATOM     23  O   LIG A   1       2.252  -2.231  -1.432  0.00  0.00    -0.386 OA
ATOM     24  H   LIG A   1       2.460  -1.284  -1.556  0.00  0.00    +0.210 HD
ENDBRANCH  17  23
ENDBRANCH  16  17
ENDBRANCH  15  16
ENDBRANCH   6  15
TORSDOF 6
