@<TRIPOS>MOLECULE
NuBBE_1736
 23 23 0 0 0
SMALL
GASTEIGER

@<TRIPOS>ATOM
      1 O          -0.7402    0.3764   -0.4212 O.3     1  LIG1       -0.4883
      2 C          -1.4067   -0.8724   -0.6117 C.3     1  LIG1        0.0895
      3 C          -2.7647   -0.8384    0.0870 C.3     1  LIG1       -0.0215
      4 C          -2.6086   -0.7121    1.5973 C.3     1  LIG1       -0.0622
      5 C           0.6313    0.3780   -0.4351 C.ar    1  LIG1        0.1617
      6 C           1.2288    1.6214   -0.2010 C.ar    1  LIG1        0.1584
      7 O           0.4540    2.7352   -0.0133 O.3     1  LIG1       -0.5033
      8 C           2.6108    1.7735   -0.1504 C.ar    1  LIG1       -0.0165
      9 C           3.4252    0.6574   -0.3382 C.ar    1  LIG1       -0.0581
     10 C           2.8508   -0.5865   -0.5847 C.ar    1  LIG1       -0.0581
     11 C           1.4589   -0.7286   -0.6429 C.ar    1  LIG1       -0.0163
     12 H          -0.8527   -1.7153   -0.1887 H       1  LIG1        0.0696
     13 H          -1.5436   -1.0333   -1.6868 H       1  LIG1        0.0696
     14 H          -3.3062   -1.7639   -0.1398 H       1  LIG1        0.0295
     15 H          -3.3647    0.0014   -0.2802 H       1  LIG1        0.0295
     16 H          -1.9866   -1.5217    1.9941 H       1  LIG1        0.0231
     17 H          -3.5851   -0.7649    2.0878 H       1  LIG1        0.0231
     18 H          -2.1427    0.2403    1.8687 H       1  LIG1        0.0231
     19 H          -0.4654    2.4160   -0.0992 H       1  LIG1        0.2923
     20 H           3.0459    2.7492    0.0352 H       1  LIG1        0.0655
     21 H           4.5065    0.7624   -0.2961 H       1  LIG1        0.0619
     22 H           3.4865   -1.4569   -0.7327 H       1  LIG1        0.0619
     23 H           1.0687   -1.7171   -0.8482 H       1  LIG1        0.0655
@<TRIPOS>BOND
     1     1     2    1
     2     2     3    1
     3     3     4    1
     4     1     5    1
     5     5     6   ar
     6     6     7    1
     7     6     8   ar
     8     8     9   ar
     9     9    10   ar
    10    10    11   ar
    11     5    11   ar
    12     2    12    1
    13     2    13    1
    14     3    14    1
    15     3    15    1
    16     4    16    1
    17     4    17    1
    18     4    18    1
    19     7    19    1
    20     8    20    1
    21     9    21    1
    22    10    22    1
    23    11    23    1
