REMARK  Name = NuBBE_951
REMARK  14 active torsions:
REMARK  status: ('A' for Active; 'I' for Inactive)
REMARK    1  A    between atoms: C_5  and  O_6
REMARK    2  A    between atoms: O_6  and  C_7
REMARK    3  A    between atoms: C_8  and  O_9
REMARK    4  A    between atoms: C_10  and  C_11
REMARK    5  A    between atoms: C_11  and  C_12
REMARK    6  A    between atoms: C_13  and  C_14
REMARK    7  A    between atoms: C_13  and  C_15
REMARK    8  A    between atoms: C_16  and  O_17
REMARK    9  A    between atoms: N_18  and  C_19
REMARK   10  A    between atoms: C_21  and  O_22
REMARK   11  A    between atoms: C_25  and  C_26
REMARK   12  A    between atoms: C_26  and  C_27
REMARK   13  A    between atoms: C_28  and  C_29
REMARK   14  A    between atoms: C_28  and  C_30
REMARK                            x       y       z     vdW  Elec       q    Type
REMARK                         _______ _______ _______ _____ _____    ______ ____
ROOT
ATOM      1  O   LIG A   1      -1.551   0.541  -0.197  0.00  0.00    -0.286 OA
ATOM      2  C   LIG A   1      -0.341   0.674  -0.118  0.00  0.00    +0.201 A 
ATOM      3  C   LIG A   1       0.481  -0.553  -0.177  0.00  0.00    +0.091 A 
ATOM      4  C   LIG A   1       1.869  -0.457  -0.001  0.00  0.00    +0.102 A 
ATOM      5  C   LIG A   1       2.582  -1.678   0.025  0.00  0.00    +0.186 A 
ATOM      6  C   LIG A   1       1.906  -2.913   0.077  0.00  0.00    +0.168 A 
ATOM      7  C   LIG A   1       0.523  -2.998  -0.081  0.00  0.00    +0.044 A 
ATOM      8  C   LIG A   1      -0.171  -1.804  -0.280  0.00  0.00    +0.137 A 
ATOM      9  N   LIG A   1       2.470   0.830   0.152  0.00  0.00    -0.337 N 
ATOM     10  C   LIG A   1       3.571   0.840   1.147  0.00  0.00    +0.149 C 
ATOM     11  C   LIG A   1       1.704   2.037   0.125  0.00  0.00    +0.095 A 
ATOM     12  C   LIG A   1       2.313   3.309   0.153  0.00  0.00    +0.141 A 
ATOM     13  C   LIG A   1       1.581   4.478   0.313  0.00  0.00    +0.048 A 
ATOM     14  C   LIG A   1       0.194   4.415   0.344  0.00  0.00    +0.008 A 
ATOM     15  C   LIG A   1      -0.480   3.190   0.178  0.00  0.00    -0.031 A 
ATOM     16  C   LIG A   1       0.294   2.003   0.062  0.00  0.00    +0.053 A 
ENDROOT
BRANCH   5  17
ATOM     17  O   LIG A   1       3.958  -1.687   0.094  0.00  0.00    -0.489 OA
ATOM     18  C   LIG A   1       4.533  -2.191  -1.119  0.00  0.00    +0.277 C 
ENDBRANCH   5  17
BRANCH   6  19
ATOM     19  O   LIG A   1       2.612  -4.056   0.349  0.00  0.00    -0.503 OA
ATOM     20  H   LIG A   1       3.459  -3.769   0.737  0.00  0.00    +0.292 HD
ENDBRANCH   6  19
BRANCH   8  21
ATOM     21  O   LIG A   1      -1.518  -1.907  -0.531  0.00  0.00    -0.506 OA
ATOM     22  H   LIG A   1      -1.901  -1.001  -0.511  0.00  0.00    +0.292 HD
ENDBRANCH   8  21
BRANCH  12  23
ATOM     23  O   LIG A   1       3.662   3.464  -0.037  0.00  0.00    -0.505 OA
ATOM     24  H   LIG A   1       3.943   2.688  -0.556  0.00  0.00    +0.292 HD
ENDBRANCH  12  23
BRANCH   7  25
ATOM     25  C   LIG A   1      -0.228  -4.302   0.102  0.00  0.00    +0.069 C 
BRANCH  25  26
ATOM     26  C   LIG A   1      -0.704  -4.481   1.529  0.00  0.00    -0.023 C 
ATOM     27  C   LIG A   1      -1.815  -5.121   1.949  0.00  0.00    -0.079 C 
ATOM     28  C   LIG A   1      -2.793  -5.824   1.050  0.00  0.00    +0.038 C 
ATOM     29  C   LIG A   1      -2.164  -5.188   3.413  0.00  0.00    +0.038 C 
ENDBRANCH  25  26
ENDBRANCH   7  25
BRANCH  15  30
ATOM     30  C   LIG A   1      -1.998   3.254   0.091  0.00  0.00    +0.063 C 
BRANCH  30  31
ATOM     31  C   LIG A   1      -2.481   3.378  -1.333  0.00  0.00    -0.024 C 
ATOM     32  C   LIG A   1      -2.798   4.493  -2.022  0.00  0.00    -0.079 C 
ATOM     33  C   LIG A   1      -2.766   5.894  -1.479  0.00  0.00    +0.038 C 
ATOM     34  C   LIG A   1      -3.190   4.402  -3.475  0.00  0.00    +0.038 C 
ENDBRANCH  30  31
ENDBRANCH  15  30
TORSDOF 8
