REMARK  Name = NuBBE_351
REMARK  16 active torsions:
REMARK  status: ('A' for Active; 'I' for Inactive)
REMARK    1  A    between atoms: C_2  and  C_3
REMARK    2  A    between atoms: C_2  and  C_11
REMARK    3  A    between atoms: C_3  and  C_4
REMARK    4  A    between atoms: C_4  and  C_5
REMARK    5  A    between atoms: C_12  and  O_39
REMARK    6  A    between atoms: C_14  and  O_37
REMARK    7  A    between atoms: C_18  and  C_33
REMARK    8  A    between atoms: C_20  and  C_22
REMARK    9  A    between atoms: C_24  and  C_25
REMARK   10  A    between atoms: C_25  and  O_26
REMARK   11  A    between atoms: O_26  and  C_27
REMARK   12  A    between atoms: C_31  and  O_32
REMARK   13  A    between atoms: C_33  and  O_34
REMARK   14  A    between atoms: C_33  and  C_35
REMARK   15  A    between atoms: C_33  and  C_36
REMARK   16  A    between atoms: O_37  and  C_38
REMARK                            x       y       z     vdW  Elec       q    Type
REMARK                         _______ _______ _______ _____ _____    ______ ____
ROOT
ATOM      1  C   LIG A   1      -1.208  -0.680   0.556  0.00  0.00    +0.153 C 
ATOM      2  C   LIG A   1      -1.520  -2.175   0.237  0.00  0.00    +0.158 C 
ATOM      3  C   LIG A   1      -0.347  -3.128   0.231  0.00  0.00    +0.051 C 
ATOM      4  C   LIG A   1       0.932  -2.722   0.319  0.00  0.00    +0.126 C 
ATOM      5  C   LIG A   1       1.205  -1.317   0.430  0.00  0.00    +0.043 C 
ATOM      6  C   LIG A   1       0.263  -0.396   0.632  0.00  0.00    +0.119 C 
ATOM      7  O   LIG A   1       0.721   0.917   0.731  0.00  0.00    -0.488 OA
ATOM      8  C   LIG A   1       2.187   0.776   0.754  0.00  0.00    +0.216 C 
ATOM      9  C   LIG A   1       2.521  -0.640   0.214  0.00  0.00    +0.103 C 
ENDROOT
BRANCH   9  10
ATOM     10  C   LIG A   1       2.912  -0.603  -1.266  0.00  0.00    +0.006 A 
ATOM     11  C   LIG A   1       2.002  -0.134  -2.232  0.00  0.00    +0.023 A 
ATOM     12  C   LIG A   1       2.313  -0.162  -3.595  0.00  0.00    +0.059 A 
ATOM     13  C   LIG A   1       3.572  -0.624  -4.005  0.00  0.00    +0.018 A 
ATOM     14  C   LIG A   1       4.499  -1.058  -3.062  0.00  0.00    +0.046 A 
ATOM     15  C   LIG A   1       4.170  -1.044  -1.706  0.00  0.00    +0.121 A 
BRANCH  12  16
ATOM     16  C   LIG A   1       1.330   0.361  -4.591  0.00  0.00    +0.339 C 
ATOM     17  O   LIG A   1       0.520   1.257  -4.375  0.00  0.00    -0.245 OA
BRANCH  16  18
ATOM     18  O   LIG A   1       1.531  -0.341  -5.731  0.00  0.00    -0.465 OA
ATOM     19  C   LIG A   1       0.998   0.255  -6.914  0.00  0.00    +0.280 C 
ENDBRANCH  16  18
ENDBRANCH  12  16
BRANCH  15  20
ATOM     20  O   LIG A   1       5.097  -1.456  -0.792  0.00  0.00    -0.506 OA
ATOM     21  H   LIG A   1       5.890  -1.759  -1.266  0.00  0.00    +0.292 HD
ENDBRANCH  15  20
ENDBRANCH   9  10
BRANCH   8  22
ATOM     22  C   LIG A   1       2.731   1.069   2.187  0.00  0.00    +0.098 C 
ATOM     23  C   LIG A   1       2.129   0.167   3.269  0.00  0.00    +0.045 C 
ATOM     24  C   LIG A   1       4.261   0.984   2.235  0.00  0.00    +0.045 C 
BRANCH  22  25
ATOM     25  O   LIG A   1       2.398   2.427   2.530  0.00  0.00    -0.385 OA
ATOM     26  H   LIG A   1       1.427   2.501   2.466  0.00  0.00    +0.210 HD
ENDBRANCH  22  25
ENDBRANCH   8  22
BRANCH   1  28
ATOM     27  O   LIG A   1      -1.512  -0.330   2.937  0.00  0.00    -0.296 OA
ATOM     28  C   LIG A   1      -1.959  -0.194   1.795  0.00  0.00    +0.147 C 
BRANCH  28  29
ATOM     29  C   LIG A   1      -3.338   0.405   1.567  0.00  0.00    +0.080 C 
BRANCH  29  30
ATOM     30  C   LIG A   1      -3.406   1.843   2.078  0.00  0.00    +0.042 C 
BRANCH  30  31
ATOM     31  C   LIG A   1      -4.763   2.477   1.864  0.00  0.00    -0.047 A 
ATOM     32  C   LIG A   1      -5.503   2.959   2.953  0.00  0.00    +0.003 A 
ATOM     33  C   LIG A   1      -6.750   3.561   2.758  0.00  0.00    +0.000 A 
ATOM     34  C   LIG A   1      -7.272   3.688   1.472  0.00  0.00    +0.000 A 
ATOM     35  C   LIG A   1      -6.546   3.216   0.381  0.00  0.00    +0.000 A 
ATOM     36  C   LIG A   1      -5.297   2.622   0.574  0.00  0.00    +0.003 A 
ENDBRANCH  30  31
ENDBRANCH  29  30
ENDBRANCH  28  29
ENDBRANCH   1  28
BRANCH   4  37
ATOM     37  O   LIG A   1       2.058  -3.503   0.314  0.00  0.00    -0.495 OA
ATOM     38  C   LIG A   1       1.897  -4.905   0.138  0.00  0.00    +0.277 C 
ENDBRANCH   4  37
BRANCH   2  39
ATOM     39  O   LIG A   1      -2.505  -2.731   1.105  0.00  0.00    -0.387 OA
ATOM     40  H   LIG A   1      -2.074  -2.893   1.966  0.00  0.00    +0.210 HD
ENDBRANCH   2  39
TORSDOF 12
