REMARK  Name = NuBBE_181
REMARK  3 active torsions:
REMARK  status: ('A' for Active; 'I' for Inactive)
REMARK    1  A    between atoms: C_4  and  C_13
REMARK    2  A    between atoms: C_10  and  O_11
REMARK    3  A    between atoms: C_16  and  O_19
REMARK                            x       y       z     vdW  Elec       q    Type
REMARK                         _______ _______ _______ _____ _____    ______ ____
ROOT
ATOM      1  O   LIG A   1      -3.648  -0.830  -0.239  0.00  0.00    -0.287 OA
ATOM      2  C   LIG A   1      -2.430  -0.767  -0.143  0.00  0.00    +0.193 A 
ATOM      3  C   LIG A   1      -1.735   0.530  -0.130  0.00  0.00    +0.098 A 
ATOM      4  C   LIG A   1      -0.399   0.558  -0.015  0.00  0.00    +0.139 A 
ATOM      5  O   LIG A   1       0.400  -0.573   0.076  0.00  0.00    -0.455 OA
ATOM      6  C   LIG A   1      -0.207  -1.803   0.068  0.00  0.00    +0.143 A 
ATOM      7  C   LIG A   1      -1.586  -1.966  -0.036  0.00  0.00    +0.064 A 
ATOM      8  C   LIG A   1      -2.154  -3.244  -0.040  0.00  0.00    +0.019 A 
ATOM      9  C   LIG A   1      -1.328  -4.366   0.061  0.00  0.00    +0.046 A 
ATOM     10  C   LIG A   1       0.051  -4.193   0.164  0.00  0.00    +0.120 A 
ATOM     11  C   LIG A   1       0.618  -2.922   0.169  0.00  0.00    +0.092 A 
ENDROOT
BRANCH   4  12
ATOM     12  C   LIG A   1       0.353   1.829  -0.007  0.00  0.00    +0.018 A 
ATOM     13  C   LIG A   1       1.561   1.934  -0.716  0.00  0.00    +0.015 A 
ATOM     14  C   LIG A   1       2.295   3.124  -0.714  0.00  0.00    +0.046 A 
ATOM     15  C   LIG A   1       1.824   4.216   0.006  0.00  0.00    +0.117 A 
ATOM     16  C   LIG A   1       0.638   4.134   0.723  0.00  0.00    +0.046 A 
ATOM     17  C   LIG A   1      -0.095   2.944   0.721  0.00  0.00    +0.015 A 
BRANCH  15  18
ATOM     18  O   LIG A   1       2.505   5.395   0.038  0.00  0.00    -0.507 OA
ATOM     19  H   LIG A   1       3.310   5.304  -0.498  0.00  0.00    +0.292 HD
ENDBRANCH  15  18
ENDBRANCH   4  12
BRANCH  10  20
ATOM     20  O   LIG A   1       0.892  -5.261   0.264  0.00  0.00    -0.507 OA
ATOM     21  H   LIG A   1       0.367  -6.079   0.254  0.00  0.00    +0.292 HD
ENDBRANCH  10  20
TORSDOF 3
