REMARK  Name = NuBBE_2177
REMARK  14 active torsions:
REMARK  status: ('A' for Active; 'I' for Inactive)
REMARK    1  A    between atoms: O_1  and  C_2
REMARK    2  A    between atoms: O_1  and  C_16
REMARK    3  A    between atoms: C_2  and  O_3
REMARK    4  A    between atoms: O_3  and  C_4
REMARK    5  A    between atoms: C_5  and  O_14
REMARK    6  A    between atoms: C_9  and  C_11
REMARK    7  A    between atoms: C_11  and  C_12
REMARK    8  A    between atoms: O_14  and  C_15
REMARK    9  A    between atoms: C_17  and  C_18
REMARK   10  A    between atoms: C_18  and  C_19
REMARK   11  A    between atoms: C_22  and  O_27
REMARK   12  A    between atoms: C_23  and  O_25
REMARK   13  A    between atoms: O_25  and  C_26
REMARK   14  A    between atoms: O_27  and  C_28
REMARK                            x       y       z     vdW  Elec       q    Type
REMARK                         _______ _______ _______ _____ _____    ______ ____
ROOT
ATOM      1  O   LIG A   1      -0.087  -1.333   1.114  0.00  0.00    -0.453 OA
ENDROOT
BRANCH   1   2
ATOM      2  C   LIG A   1       1.057  -1.823   0.300  0.00  0.00    +0.271 C 
ATOM      3  C   LIG A   1       0.742  -3.308  -0.061  0.00  0.00    +0.172 C 
ATOM      4  C   LIG A   1       0.358  -3.662  -1.304  0.00  0.00    +0.094 C 
ATOM      5  C   LIG A   1       0.088  -2.672  -2.405  0.00  0.00    +0.163 C 
ATOM      6  O   LIG A   1      -0.132  -3.054  -3.511  0.00  0.00    -0.292 OA
ATOM      7  C   LIG A   1       0.066  -1.202  -1.986  0.00  0.00    +0.070 C 
ATOM      8  C   LIG A   1       1.221  -1.048  -1.020  0.00  0.00    +0.099 C 
BRANCH   2   9
ATOM      9  O   LIG A   1       2.322  -1.734   1.006  0.00  0.00    -0.337 OA
ATOM     10  C   LIG A   1       3.481  -2.263   0.336  0.00  0.00    +0.199 C 
ENDBRANCH   2   9
BRANCH   3  11
ATOM     11  O   LIG A   1       0.954  -4.337   0.868  0.00  0.00    -0.493 OA
ATOM     12  C   LIG A   1       1.537  -4.021   2.134  0.00  0.00    +0.277 C 
ENDBRANCH   3  11
BRANCH   7  13
ATOM     13  C   LIG A   1       0.326  -0.182  -3.109  0.00  0.00    +0.038 C 
BRANCH  13  14
ATOM     14  C   LIG A   1      -0.801   0.070  -4.053  0.00  0.00    -0.034 C 
ATOM     15  C   LIG A   1      -0.631   0.523  -5.301  0.00  0.00    +0.004 C 
ENDBRANCH  13  14
ENDBRANCH   7  13
ENDBRANCH   1   2
BRANCH   1  16
ATOM     16  C   LIG A   1      -0.358   0.016   1.275  0.00  0.00    +0.132 A 
ATOM     17  C   LIG A   1      -1.635   0.472   1.657  0.00  0.00    +0.002 A 
ATOM     18  C   LIG A   1      -1.809   1.870   1.656  0.00  0.00    +0.057 A 
ATOM     19  C   LIG A   1      -0.878   2.839   1.334  0.00  0.00    +0.162 A 
ATOM     20  C   LIG A   1       0.341   2.387   0.915  0.00  0.00    +0.165 A 
ATOM     21  C   LIG A   1       0.619   1.007   1.029  0.00  0.00    +0.095 A 
BRANCH  20  22
ATOM     22  O   LIG A   1       1.250   3.274   0.416  0.00  0.00    -0.491 OA
ATOM     23  C   LIG A   1       1.911   2.815  -0.761  0.00  0.00    +0.277 C 
ENDBRANCH  20  22
BRANCH  19  24
ATOM     24  O   LIG A   1      -1.396   4.087   1.479  0.00  0.00    -0.491 OA
ATOM     25  C   LIG A   1      -0.617   5.221   1.167  0.00  0.00    +0.277 C 
ENDBRANCH  19  24
BRANCH  17  26
ATOM     26  C   LIG A   1      -2.883  -0.347   1.987  0.00  0.00    +0.065 C 
BRANCH  26  27
ATOM     27  C   LIG A   1      -3.801   0.165   3.126  0.00  0.00    -0.030 C 
ATOM     28  C   LIG A   1      -4.209   1.395   3.501  0.00  0.00    +0.004 C 
ENDBRANCH  26  27
ENDBRANCH  17  26
ENDBRANCH   1  16
TORSDOF 10
