@<TRIPOS>MOLECULE
NuBBE_1223
 35 37 0 0 0
SMALL
GASTEIGER

@<TRIPOS>ATOM
      1 O          -3.0266    1.3242    0.3629 O.2     1  LIG1       -0.2830
      2 C          -1.8246    1.1126    0.2298 C.ar    1  LIG1        0.2381
      3 C          -1.2367   -0.2439    0.0122 C.ar    1  LIG1        0.2107
      4 O          -2.0135   -1.3894   -0.0891 O.3     1  LIG1       -0.4883
      5 C          -3.3055   -1.2259   -0.6633 C.3     1  LIG1        0.0791
      6 C           0.1075   -0.3227   -0.0427 C.ar    1  LIG1        0.1809
      7 O           0.9853    0.7392    0.0617 O.2     1  LIG1       -0.4507
      8 C           0.4702    1.9997    0.2006 C.ar    1  LIG1        0.1465
      9 C          -0.8947    2.2500    0.2879 C.ar    1  LIG1        0.1092
     10 C          -1.3511    3.5672    0.4282 C.ar    1  LIG1        0.1348
     11 O          -2.6780    3.8925    0.5239 O.3     1  LIG1       -0.5058
     12 C          -0.4478    4.6268    0.4754 C.ar    1  LIG1        0.0223
     13 C           0.9147    4.3592    0.3885 C.ar    1  LIG1        0.1239
     14 O           1.8377    5.3613    0.4314 O.3     1  LIG1       -0.5065
     15 C           1.3814    3.0549    0.2540 C.ar    1  LIG1        0.0231
     16 C           0.7965   -1.6081   -0.2334 C.ar    1  LIG1        0.0247
     17 C           1.1643   -2.3825    0.8775 C.ar    1  LIG1       -0.0057
     18 C           1.8183   -3.5933    0.6759 C.ar    1  LIG1        0.1589
     19 O           2.2016   -4.3914    1.7190 O.3     1  LIG1       -0.5033
     20 C           2.1067   -4.0339   -0.6137 C.ar    1  LIG1        0.1583
     21 C           1.7498   -3.2785   -1.7203 C.ar    1  LIG1       -0.0159
     22 C           1.0932   -2.0606   -1.5299 C.ar    1  LIG1       -0.0473
     23 O           2.7496   -5.2242   -0.7994 O.3     1  LIG1       -0.5033
     24 H          -3.6427   -2.2069   -1.0113 H       1  LIG1        0.0660
     25 H          -3.2887   -0.5533   -1.5277 H       1  LIG1        0.0660
     26 H          -4.0181   -0.8847    0.0931 H       1  LIG1        0.0660
     27 H          -3.1994    3.0576    0.5064 H       1  LIG1        0.2922
     28 H          -0.8226    5.6401    0.5802 H       1  LIG1        0.0691
     29 H           1.3752    6.2120    0.5207 H       1  LIG1        0.2921
     30 H           2.4493    2.8647    0.1885 H       1  LIG1        0.0691
     31 H           0.9356   -2.0325    1.8792 H       1  LIG1        0.0662
     32 H           1.9244   -3.9623    2.5468 H       1  LIG1        0.2923
     33 H           1.9800   -3.6333   -2.7201 H       1  LIG1        0.0655
     34 H           0.8143   -1.4674   -2.3977 H       1  LIG1        0.0626
     35 H           2.8945   -5.5674    0.1048 H       1  LIG1        0.2923
@<TRIPOS>BOND
     1     1     2    2
     2     2     3   ar
     3     3     4    1
     4     4     5    1
     5     3     6   ar
     6     6     7   ar
     7     7     8   ar
     8     8     9   ar
     9     2     9   ar
    10     9    10   ar
    11    10    11    1
    12    10    12   ar
    13    12    13   ar
    14    13    14    1
    15    13    15   ar
    16     8    15   ar
    17     6    16    1
    18    16    17   ar
    19    17    18   ar
    20    18    19    1
    21    18    20   ar
    22    20    21   ar
    23    21    22   ar
    24    16    22   ar
    25    20    23    1
    26     5    24    1
    27     5    25    1
    28     5    26    1
    29    11    27    1
    30    12    28    1
    31    14    29    1
    32    15    30    1
    33    17    31    1
    34    19    32    1
    35    21    33    1
    36    22    34    1
    37    23    35    1
