REMARK  Name = NuBBE_959
REMARK  15 active torsions:
REMARK  status: ('A' for Active; 'I' for Inactive)
REMARK    1  A    between atoms: C_1  and  C_2
REMARK    2  A    between atoms: C_11  and  O_23
REMARK    3  A    between atoms: C_13  and  C_21
REMARK    4  A    between atoms: C_13  and  C_22
REMARK    5  A    between atoms: C_14  and  C_16
REMARK    6  A    between atoms: C_16  and  C_17
REMARK    7  A    between atoms: C_17  and  O_19
REMARK    8  A    between atoms: O_19  and  C_20
REMARK    9  A    between atoms: O_23  and  C_24
REMARK   10  A    between atoms: C_24  and  C_26
REMARK   11  A    between atoms: C_26  and  C_28
REMARK   12  A    between atoms: C_26  and  C_30
REMARK   13  A    between atoms: C_28  and  C_29
REMARK   14  A    between atoms: C_33  and  C_36
REMARK   15  A    between atoms: C_37  and  C_43
REMARK                            x       y       z     vdW  Elec       q    Type
REMARK                         _______ _______ _______ _____ _____    ______ ____
ROOT
ATOM      1  C   LIG A   1      -1.417   0.809  -1.870  0.00  0.00    +0.020 C 
ATOM      2  C   LIG A   1      -0.293   0.362  -0.902  0.00  0.00    +0.037 C 
ATOM      3  C   LIG A   1      -1.008  -0.392   0.276  0.00  0.00    +0.028 C 
ATOM      4  C   LIG A   1      -0.009  -0.915   1.266  0.00  0.00    -0.064 C 
ATOM      5  C   LIG A   1       1.196  -1.311   0.720  0.00  0.00    -0.012 C 
ATOM      6  C   LIG A   1       1.806  -1.148  -0.857  0.00  0.00    +0.120 C 
ATOM      7  C   LIG A   1       0.431  -0.920  -1.351  0.00  0.00    +0.150 C 
ATOM      8  O   LIG A   1      -0.156  -1.869  -1.887  0.00  0.00    -0.296 OA
ATOM      9  C   LIG A   1       2.390  -0.040  -1.989  0.00  0.00    +0.196 C 
ATOM     10  C   LIG A   1       1.961   1.493  -1.843  0.00  0.00    +0.007 C 
ATOM     11  C   LIG A   1       0.824   1.591  -0.707  0.00  0.00    +0.022 C 
ATOM     12  C   LIG A   1       3.269   2.305  -1.592  0.00  0.00    +0.015 C 
ATOM     13  C   LIG A   1       1.507   2.280  -3.119  0.00  0.00    +0.015 C 
ATOM     14  C   LIG A   1      -0.507  -1.022   2.744  0.00  0.00    +0.035 C 
ATOM     15  C   LIG A   1      -2.069  -0.704   3.099  0.00  0.00    +0.016 C 
ATOM     16  C   LIG A   1      -2.921  -0.865   1.830  0.00  0.00    +0.012 C 
ATOM     17  C   LIG A   1      -2.401   0.043   0.711  0.00  0.00    +0.009 C 
ATOM     18  C   LIG A   1      -2.294   0.755   3.586  0.00  0.00    +0.016 C 
ATOM     19  C   LIG A   1      -2.582  -1.664   4.253  0.00  0.00    +0.216 C 
ATOM     20  O   LIG A   1      -1.543  -1.801   5.252  0.00  0.00    -0.456 OA
ATOM     21  C   LIG A   1      -0.316  -2.214   4.864  0.00  0.00    +0.308 C 
ATOM     22  O   LIG A   1       0.589  -2.407   5.665  0.00  0.00    -0.251 OA
ATOM     23  C   LIG A   1      -0.141  -2.370   3.380  0.00  0.00    +0.129 C 
ENDROOT
BRANCH  19  24
ATOM     24  C   LIG A   1      -3.867  -1.262   4.971  0.00  0.00    +0.031 A 
ATOM     25  C   LIG A   1      -3.987  -0.479   6.169  0.00  0.00    +0.048 A 
ATOM     26  C   LIG A   1      -5.322  -0.440   6.499  0.00  0.00    +0.195 A 
ATOM     27  O   LIG A   1      -6.045  -1.127   5.582  0.00  0.00    -0.471 OA
ATOM     28  C   LIG A   1      -5.169  -1.617   4.665  0.00  0.00    +0.202 A 
ENDBRANCH  19  24
BRANCH  11  29
ATOM     29  C   LIG A   1       1.397   1.826   0.740  0.00  0.00    +0.126 C 
BRANCH  29  30
ATOM     30  C   LIG A   1       2.082   3.165   1.082  0.00  0.00    +0.307 C 
ATOM     31  O   LIG A   1       1.465   4.170   1.444  0.00  0.00    -0.251 OA
BRANCH  30  32
ATOM     32  O   LIG A   1       3.435   3.108   0.976  0.00  0.00    -0.468 OA
ATOM     33  C   LIG A   1       4.153   4.359   0.983  0.00  0.00    +0.280 C 
ENDBRANCH  30  32
ENDBRANCH  29  30
ENDBRANCH  11  29
BRANCH   9  34
ATOM     34  O   LIG A   1       2.405  -0.564  -3.365  0.00  0.00    -0.460 OA
BRANCH  34  35
ATOM     35  C   LIG A   1       1.271  -0.580  -4.139  0.00  0.00    +0.310 C 
ATOM     36  O   LIG A   1       0.175  -0.105  -3.736  0.00  0.00    -0.251 OA
BRANCH  35  37
ATOM     37  C   LIG A   1       1.296  -1.091  -5.504  0.00  0.00    +0.094 C 
ATOM     38  C   LIG A   1       2.390  -0.401  -6.247  0.00  0.00    +0.019 C 
BRANCH  37  39
ATOM     39  C   LIG A   1       1.231  -2.591  -5.500  0.00  0.00    +0.011 C 
ATOM     40  C   LIG A   1       0.065  -3.205  -4.724  0.00  0.00    +0.004 C 
ENDBRANCH  37  39
ENDBRANCH  35  37
ENDBRANCH  34  35
ENDBRANCH   9  34
TORSDOF 8
