REMARK  Name = NuBBE_1927
REMARK  4 active torsions:
REMARK  status: ('A' for Active; 'I' for Inactive)
REMARK    1  A    between atoms: C_1  and  C_2
REMARK    2  A    between atoms: C_5  and  C_6
REMARK    3  A    between atoms: C_11  and  C_13
REMARK    4  A    between atoms: C_13  and  C_14
REMARK                            x       y       z     vdW  Elec       q    Type
REMARK                         _______ _______ _______ _____ _____    ______ ____
ROOT
ATOM      1  C   LIG A   1      -1.841  -0.528  -1.069  0.00  0.00    +0.012 C 
ATOM      2  C   LIG A   1      -0.436  -1.135  -0.812  0.00  0.00    -0.025 C 
ATOM      3  C   LIG A   1       0.687  -0.052  -0.716  0.00  0.00    +0.021 C 
ATOM      4  C   LIG A   1       0.948   0.632  -2.055  0.00  0.00    -0.073 C 
ATOM      5  C   LIG A   1       1.616   1.979  -2.054  0.00  0.00    +0.039 C 
ATOM      6  C   LIG A   1       0.654   0.014  -3.216  0.00  0.00    -0.027 C 
ATOM      7  C   LIG A   1       0.042  -1.354  -3.320  0.00  0.00    +0.028 C 
ATOM      8  C   LIG A   1      -0.077  -2.086  -1.979  0.00  0.00    +0.011 C 
ATOM      9  C   LIG A   1       0.438   0.890   0.481  0.00  0.00    +0.016 C 
ATOM     10  C   LIG A   1       0.367   0.096   1.802  0.00  0.00    +0.015 C 
ATOM     11  C   LIG A   1      -0.661  -1.046   1.745  0.00  0.00    +0.008 C 
ATOM     12  C   LIG A   1      -0.468  -1.935   0.513  0.00  0.00    +0.008 C 
ENDROOT
BRANCH  10  13
ATOM     13  C   LIG A   1       0.152   1.006   3.007  0.00  0.00    -0.077 C 
ATOM     14  C   LIG A   1      -1.133   1.785   3.102  0.00  0.00    +0.038 C 
ATOM     15  C   LIG A   1       1.090   1.117   3.964  0.00  0.00    +0.007 C 
ENDBRANCH  10  13
TORSDOF 1
