@<TRIPOS>MOLECULE
NuBBE_1846
 35 36 0 0 0
SMALL
GASTEIGER

@<TRIPOS>ATOM
      1 O           3.8953   -1.5359   -2.8429 O.3     1  LIG1       -0.5059
      2 C           4.0657   -0.8660   -1.6598 C.ar    1  LIG1        0.1311
      3 C           3.0002   -0.3180   -0.9281 C.ar    1  LIG1        0.0632
      4 C           1.6147   -0.3993   -1.4758 C.2     1  LIG1        0.1896
      5 C           0.4848   -0.4325   -0.5068 C.2     1  LIG1       -0.0137
      6 C          -0.7799   -0.2157   -0.9003 C.2     1  LIG1       -0.0508
      7 C          -1.9279   -0.3126    0.0192 C.ar    1  LIG1       -0.0212
      8 C          -3.0561    0.4981   -0.1943 C.ar    1  LIG1       -0.0092
      9 C          -4.1639    0.4076    0.6548 C.ar    1  LIG1        0.1618
     10 O          -5.3176    1.1410    0.5391 O.3     1  LIG1       -0.4914
     11 C          -5.1582    2.4415   -0.0192 C.3     1  LIG1        0.0790
     12 C          -4.1500   -0.5244    1.6965 C.ar    1  LIG1        0.1585
     13 O          -5.2244   -0.6473    2.5337 O.3     1  LIG1       -0.5033
     14 C          -3.0522   -1.3399    1.9195 C.ar    1  LIG1       -0.0160
     15 C          -1.9462   -1.2382    1.0765 C.ar    1  LIG1       -0.0509
     16 O           1.4410   -0.5242   -2.6797 O.2     1  LIG1       -0.2872
     17 C           3.2727    0.3126    0.2972 C.ar    1  LIG1       -0.0440
     18 C           4.5821    0.3732    0.7878 C.ar    1  LIG1       -0.0193
     19 C           5.6221   -0.1663    0.0377 C.ar    1  LIG1        0.1204
     20 O           6.9119   -0.1159    0.4765 O.3     1  LIG1       -0.5066
     21 C           5.3744   -0.7785   -1.1851 C.ar    1  LIG1        0.0220
     22 H           2.9522   -1.4636   -3.1075 H       1  LIG1        0.2922
     23 H           0.7218   -0.6804    0.5189 H       1  LIG1        0.0656
     24 H          -1.0030    0.0493   -1.9338 H       1  LIG1        0.0625
     25 H          -3.0561    1.1849   -1.0345 H       1  LIG1        0.0661
     26 H          -6.1274    2.9470    0.0335 H       1  LIG1        0.0660
     27 H          -4.8710    2.3962   -1.0736 H       1  LIG1        0.0660
     28 H          -4.4400    3.0297    0.5621 H       1  LIG1        0.0660
     29 H          -5.8869   -0.0164    2.1920 H       1  LIG1        0.2923
     30 H          -3.0588   -2.0538    2.7374 H       1  LIG1        0.0655
     31 H          -1.1075   -1.9073    1.2516 H       1  LIG1        0.0625
     32 H           2.4838    0.7759    0.8842 H       1  LIG1        0.0627
     33 H           4.7711    0.8466    1.7469 H       1  LIG1        0.0654
     34 H           6.9391    0.3258    1.3409 H       1  LIG1        0.2921
     35 H           6.1943   -1.1932   -1.7646 H       1  LIG1        0.0691
@<TRIPOS>BOND
     1     1     2    1
     2     2     3   ar
     3     3     4    1
     4     4     5    1
     5     5     6    2
     6     6     7    1
     7     7     8   ar
     8     8     9   ar
     9     9    10    1
    10    10    11    1
    11     9    12   ar
    12    12    13    1
    13    12    14   ar
    14    14    15   ar
    15     7    15   ar
    16     4    16    2
    17     3    17   ar
    18    17    18   ar
    19    18    19   ar
    20    19    20    1
    21    19    21   ar
    22     2    21   ar
    23     1    22    1
    24     5    23    1
    25     6    24    1
    26     8    25    1
    27    11    26    1
    28    11    27    1
    29    11    28    1
    30    13    29    1
    31    14    30    1
    32    15    31    1
    33    17    32    1
    34    18    33    1
    35    20    34    1
    36    21    35    1
