REMARK  Name = NuBBE_852
REMARK  4 active torsions:
REMARK  status: ('A' for Active; 'I' for Inactive)
REMARK    1  A    between atoms: C_3  and  O_4
REMARK    2  A    between atoms: C_13  and  C_14
REMARK    3  A    between atoms: C_18  and  C_20
REMARK    4  A    between atoms: C_20  and  C_21
REMARK                            x       y       z     vdW  Elec       q    Type
REMARK                         _______ _______ _______ _____ _____    ______ ____
ROOT
ATOM      1  O   LIG A   1      -0.741   3.295  -1.260  0.00  0.00    -0.289 OA
ATOM      2  C   LIG A   1      -0.189   2.917  -0.219  0.00  0.00    +0.196 C 
ATOM      3  C   LIG A   1       0.296   3.932   0.903  0.00  0.00    +0.154 C 
ATOM      4  C   LIG A   1       1.769   3.489   0.508  0.00  0.00    +0.084 C 
ATOM      5  C   LIG A   1       1.989   2.255   1.357  0.00  0.00    +0.187 C 
ATOM      6  O   LIG A   1       1.443   2.637   2.624  0.00  0.00    -0.365 OA
ATOM      7  C   LIG A   1       0.798   3.908   2.395  0.00  0.00    +0.203 C 
ATOM      8  C   LIG A   1       0.132   1.440  -0.064  0.00  0.00    +0.038 C 
ATOM      9  C   LIG A   1       1.162   1.143   0.759  0.00  0.00    +0.134 C 
ATOM     10  O   LIG A   1       1.624  -0.149   0.984  0.00  0.00    -0.487 OA
ATOM     11  C   LIG A   1       1.140  -1.100   0.021  0.00  0.00    +0.111 C 
ATOM     12  C   LIG A   1       2.017  -0.999  -1.244  0.00  0.00    +0.056 C 
ATOM     13  C   LIG A   1      -0.377  -0.934  -0.178  0.00  0.00    +0.044 C 
ATOM     14  C   LIG A   1      -0.689   0.422  -0.794  0.00  0.00    +0.050 C 
ATOM     15  C   LIG A   1      -0.802  -2.212  -0.914  0.00  0.00    +0.023 C 
ATOM     16  C   LIG A   1       0.152  -3.289  -0.314  0.00  0.00    +0.012 C 
ATOM     17  C   LIG A   1       1.174  -2.534   0.556  0.00  0.00    +0.049 C 
ENDROOT
BRANCH   3  18
ATOM     18  O   LIG A   1      -1.016   3.326   1.382  0.00  0.00    -0.378 OA
ATOM     19  H   LIG A   1      -0.841   2.554   1.963  0.00  0.00    +0.211 HD
ENDBRANCH   3  18
BRANCH  15  20
ATOM     20  C   LIG A   1      -2.296  -2.483  -0.833  0.00  0.00    -0.059 C 
ATOM     21  C   LIG A   1      -2.882  -3.167   0.168  0.00  0.00    +0.009 C 
BRANCH  20  22
ATOM     22  C   LIG A   1      -3.138  -1.913  -1.952  0.00  0.00    +0.139 C 
ATOM     23 CL   LIG A   1      -3.036  -2.956  -3.387  0.00  0.00    -0.121 Cl
ENDBRANCH  20  22
ENDBRANCH  15  20
TORSDOF 3
