@<TRIPOS>MOLECULE
NuBBE_1777
 38 41 0 0 0
SMALL
GASTEIGER

@<TRIPOS>ATOM
      1 O          -0.8394   -2.4221   -0.1848 O.3     1  LIG1       -0.5062
      2 C           0.5303   -2.4363   -0.2219 C.ar    1  LIG1        0.1272
      3 C           1.3023   -1.2662   -0.4509 C.ar    1  LIG1        0.0377
      4 C           0.6591    0.0977   -0.7300 C.3     1  LIG1        0.1289
      5 O          -0.6099    0.1427   -0.0400 O.3     1  LIG1       -0.4837
      6 C          -1.2591    1.3469   -0.0309 C.ar    1  LIG1        0.1280
      7 C          -0.6370    2.5560   -0.3414 C.ar    1  LIG1       -0.0053
      8 C           0.8058    2.5924   -0.7374 C.3     1  LIG1       -0.0206
      9 C           1.5128    1.3078   -0.3267 C.3     1  LIG1       -0.0073
     10 C          -1.3887    3.7358   -0.3083 C.ar    1  LIG1       -0.0517
     11 C          -2.7356    3.7009    0.0572 C.ar    1  LIG1       -0.0195
     12 C          -3.3431    2.4948    0.4067 C.ar    1  LIG1        0.1236
     13 C          -2.6028    1.3144    0.3540 C.ar    1  LIG1        0.0221
     14 O          -4.6679    2.5819    0.7361 O.3     1  LIG1       -0.4950
     15 C          -5.1440    1.5904    1.6400 C.3     1  LIG1        0.0788
     16 C           2.7052   -1.4211   -0.5015 C.ar    1  LIG1       -0.0060
     17 C           3.2533   -2.6728   -0.2888 C.ar    1  LIG1        0.1668
     18 C           2.4801   -3.7770   -0.0514 C.ar    1  LIG1        0.1697
     19 C           1.1073   -3.6944   -0.0189 C.ar    1  LIG1        0.0257
     20 O           3.2173   -4.9039    0.1276 O.3     1  LIG1       -0.4525
     21 C           4.5524   -4.3771   -0.0153 C.3     1  LIG1        0.2332
     22 O           4.5834   -2.9621   -0.2961 O.3     1  LIG1       -0.4526
     23 H          -1.1215   -1.4900   -0.1145 H       1  LIG1        0.2921
     24 H           0.4549    0.1273   -1.8098 H       1  LIG1        0.0785
     25 H           1.3102    3.4466   -0.2711 H       1  LIG1        0.0316
     26 H           0.8671    2.7180   -1.8254 H       1  LIG1        0.0316
     27 H           1.6634    1.3060    0.7614 H       1  LIG1        0.0307
     28 H           2.5000    1.3034   -0.7980 H       1  LIG1        0.0307
     29 H          -0.9312    4.6897   -0.5604 H       1  LIG1        0.0623
     30 H          -3.3129    4.6220    0.0830 H       1  LIG1        0.0654
     31 H          -3.0528    0.3551    0.5833 H       1  LIG1        0.0691
     32 H          -6.1791    1.8409    1.8922 H       1  LIG1        0.0660
     33 H          -4.5611    1.5950    2.5675 H       1  LIG1        0.0660
     34 H          -5.1511    0.5962    1.1834 H       1  LIG1        0.0660
     35 H           3.3790   -0.5997   -0.7085 H       1  LIG1        0.0660
     36 H           0.4960   -4.5691    0.1592 H       1  LIG1        0.0692
     37 H           5.0532   -4.9079   -0.8335 H       1  LIG1        0.1166
     38 H           5.1045   -4.5622    0.9138 H       1  LIG1        0.1166
@<TRIPOS>BOND
     1     1     2    1
     2     2     3   ar
     3     3     4    1
     4     4     5    1
     5     5     6    1
     6     6     7   ar
     7     7     8    1
     8     8     9    1
     9     4     9    1
    10     7    10   ar
    11    10    11   ar
    12    11    12   ar
    13    12    13   ar
    14     6    13   ar
    15    12    14    1
    16    14    15    1
    17     3    16   ar
    18    16    17   ar
    19    17    18   ar
    20    18    19   ar
    21     2    19   ar
    22    18    20    1
    23    20    21    1
    24    21    22    1
    25    17    22    1
    26     1    23    1
    27     4    24    1
    28     8    25    1
    29     8    26    1
    30     9    27    1
    31     9    28    1
    32    10    29    1
    33    11    30    1
    34    13    31    1
    35    15    32    1
    36    15    33    1
    37    15    34    1
    38    16    35    1
    39    19    36    1
    40    21    37    1
    41    21    38    1
