REMARK  Name = NuBBE_1781
REMARK  7 active torsions:
REMARK  status: ('A' for Active; 'I' for Inactive)
REMARK    1  A    between atoms: C_1  and  C_2
REMARK    2  A    between atoms: C_1  and  C_11
REMARK    3  A    between atoms: C_2  and  C_3
REMARK    4  A    between atoms: C_6  and  O_9
REMARK    5  A    between atoms: O_9  and  C_10
REMARK    6  A    between atoms: C_14  and  O_19
REMARK    7  A    between atoms: O_19  and  C_20
REMARK                            x       y       z     vdW  Elec       q    Type
REMARK                         _______ _______ _______ _____ _____    ______ ____
ROOT
ATOM      1  C   LIG A   1       0.889   0.726  -0.146  0.00  0.00    +0.050 C 
ENDROOT
BRANCH   1   2
ATOM      2  C   LIG A   1       2.349   1.213  -0.061  0.00  0.00    +0.184 C 
ATOM      3  C   LIG A   1       2.716   1.871   1.269  0.00  0.00    +0.118 C 
ATOM      4  C   LIG A   1       2.839   0.833   2.344  0.00  0.00    +0.108 C 
ATOM      5  C   LIG A   1       3.270  -0.397   2.020  0.00  0.00    +0.132 C 
ATOM      6  C   LIG A   1       3.649  -0.725   0.637  0.00  0.00    +0.335 C 
ATOM      7  O   LIG A   1       4.299  -1.742   0.399  0.00  0.00    -0.245 OA
ATOM      8  O   LIG A   1       3.262   0.127  -0.342  0.00  0.00    -0.458 OA
BRANCH   4   9
ATOM      9  O   LIG A   1       2.467   1.280   3.590  0.00  0.00    -0.499 OA
ATOM     10  C   LIG A   1       2.519   0.359   4.676  0.00  0.00    +0.276 C 
ENDBRANCH   4   9
ENDBRANCH   1   2
BRANCH   1  11
ATOM     11  C   LIG A   1       0.577   0.101  -1.513  0.00  0.00    +0.038 C 
BRANCH  11  12
ATOM     12  C   LIG A   1      -0.857  -0.358  -1.623  0.00  0.00    -0.047 A 
ATOM     13  C   LIG A   1      -1.832   0.524  -2.095  0.00  0.00    +0.007 A 
ATOM     14  C   LIG A   1      -3.164   0.124  -2.195  0.00  0.00    +0.046 A 
ATOM     15  C   LIG A   1      -3.549  -1.167  -1.833  0.00  0.00    +0.120 A 
ATOM     16  C   LIG A   1      -2.579  -2.058  -1.369  0.00  0.00    +0.046 A 
ATOM     17  C   LIG A   1      -1.241  -1.655  -1.258  0.00  0.00    +0.007 A 
BRANCH  15  18
ATOM     18  O   LIG A   1      -4.832  -1.646  -1.899  0.00  0.00    -0.495 OA
ATOM     19  C   LIG A   1      -5.808  -0.716  -2.364  0.00  0.00    +0.277 C 
ENDBRANCH  15  18
ENDBRANCH  11  12
ENDBRANCH   1  11
TORSDOF 5
