REMARK  Name = NuBBE_1081
REMARK  8 active torsions:
REMARK  status: ('A' for Active; 'I' for Inactive)
REMARK    1  A    between atoms: N_5  and  C_13
REMARK    2  A    between atoms: C_7  and  O_12
REMARK    3  A    between atoms: C_14  and  O_15
REMARK    4  A    between atoms: O_15  and  C_16
REMARK    5  A    between atoms: C_17  and  O_27
REMARK    6  A    between atoms: C_21  and  C_22
REMARK    7  A    between atoms: C_21  and  C_26
REMARK    8  A    between atoms: C_23  and  O_25
REMARK                            x       y       z     vdW  Elec       q    Type
REMARK                         _______ _______ _______ _____ _____    ______ ____
ROOT
ATOM      1  O   LIG A   1      -1.947   1.758  -0.803  0.00  0.00    -0.286 OA
ATOM      2  C   LIG A   1      -0.823   1.691  -0.317  0.00  0.00    +0.201 A 
ATOM      3  C   LIG A   1      -0.132   0.398  -0.043  0.00  0.00    +0.091 A 
ATOM      4  C   LIG A   1       1.282   0.424   0.068  0.00  0.00    +0.102 A 
ATOM      5  N   LIG A   1       1.946   1.674   0.012  0.00  0.00    -0.337 N 
ATOM      6  C   LIG A   1       1.276   2.908   0.186  0.00  0.00    +0.095 A 
ATOM      7  C   LIG A   1       1.892   4.120   0.564  0.00  0.00    +0.141 A 
ATOM      8  C   LIG A   1       1.165   5.312   0.688  0.00  0.00    +0.047 A 
ATOM      9  C   LIG A   1      -0.207   5.320   0.455  0.00  0.00    +0.004 A 
ATOM     10  C   LIG A   1      -0.852   4.135   0.122  0.00  0.00    +0.014 A 
ATOM     11  C   LIG A   1      -0.115   2.945   0.009  0.00  0.00    +0.050 A 
ATOM     12  C   LIG A   1       3.338   1.732  -0.435  0.00  0.00    +0.149 C 
ATOM     13  C   LIG A   1       1.920  -0.816   0.292  0.00  0.00    +0.186 A 
ATOM     14  C   LIG A   1       1.167  -1.987   0.492  0.00  0.00    +0.167 A 
ATOM     15  C   LIG A   1      -0.223  -2.002   0.381  0.00  0.00    +0.043 A 
ATOM     16  C   LIG A   1      -0.874  -0.801   0.086  0.00  0.00    +0.141 A 
ATOM     17  O   LIG A   1      -2.238  -0.726  -0.007  0.00  0.00    -0.482 OA
ATOM     18  C   LIG A   1      -2.978  -1.943  -0.195  0.00  0.00    +0.131 C 
ATOM     19  C   LIG A   1      -2.922  -2.344  -1.679  0.00  0.00    +0.058 C 
ATOM     20  C   LIG A   1      -2.475  -3.038   0.767  0.00  0.00    +0.162 C 
ATOM     21  C   LIG A   1      -0.983  -3.283   0.571  0.00  0.00    +0.078 C 
ATOM     22  C   LIG A   1      -4.438  -1.598   0.144  0.00  0.00    +0.058 C 
ENDROOT
BRANCH   7  23
ATOM     23  O   LIG A   1       3.230   4.152   0.873  0.00  0.00    -0.505 OA
ATOM     24  H   LIG A   1       3.450   5.024   1.241  0.00  0.00    +0.292 HD
ENDBRANCH   7  23
BRANCH  13  25
ATOM     25  O   LIG A   1       3.288  -0.909   0.436  0.00  0.00    -0.489 OA
ATOM     26  C   LIG A   1       3.880  -1.578  -0.688  0.00  0.00    +0.277 C 
ENDBRANCH  13  25
BRANCH  20  27
ATOM     27  O   LIG A   1      -3.198  -4.264   0.636  0.00  0.00    -0.388 OA
ATOM     28  H   LIG A   1      -2.967  -4.667  -0.219  0.00  0.00    +0.210 HD
ENDBRANCH  20  27
BRANCH  14  29
ATOM     29  O   LIG A   1       1.797  -3.147   0.869  0.00  0.00    -0.503 OA
ATOM     30  H   LIG A   1       2.650  -2.873   1.256  0.00  0.00    +0.292 HD
ENDBRANCH  14  29
TORSDOF 4
