@<TRIPOS>MOLECULE
NuBBE_1093
 36 38 0 0 0
SMALL
GASTEIGER

@<TRIPOS>ATOM
      1 O          -2.7003   -1.3583    0.5411 O.2     1  LIG1       -0.2864
      2 C          -1.4881   -1.2818    0.3513 C.ar    1  LIG1        0.2007
      3 C          -0.8406    0.0455    0.2313 C.ar    1  LIG1        0.0910
      4 C          -1.6316    1.2162    0.2192 C.ar    1  LIG1        0.1752
      5 O          -2.9978    1.1245    0.3466 O.3     1  LIG1       -0.5027
      6 C          -1.0283    2.4714    0.0719 C.ar    1  LIG1        0.2041
      7 O          -1.6530    3.6944    0.0473 O.3     1  LIG1       -0.4885
      8 C          -3.0648    3.7500    0.1848 C.3     1  LIG1        0.0791
      9 C           0.3711    2.5271   -0.0893 C.ar    1  LIG1        0.1672
     10 O           0.9281    3.7796   -0.2282 O.3     1  LIG1       -0.4913
     11 C           2.1133    3.8607   -1.0107 C.3     1  LIG1        0.0790
     12 C           1.1454    1.3560   -0.0509 C.ar    1  LIG1        0.0082
     13 C           0.5623    0.0909    0.1274 C.ar    1  LIG1        0.0602
     14 N           1.3142   -1.1069    0.1854 N.ar    1  LIG1       -0.3425
     15 C           2.7664   -1.0223    0.3714 C.3     1  LIG1        0.0124
     16 C           0.7185   -2.3853    0.1166 C.ar    1  LIG1        0.0529
     17 C          -0.6777   -2.5031    0.2078 C.ar    1  LIG1        0.0459
     18 C          -1.3287   -3.7451    0.1605 C.ar    1  LIG1       -0.0489
     19 C          -0.5863   -4.9083    0.0032 C.ar    1  LIG1       -0.0610
     20 C           0.7962   -4.8233   -0.1144 C.ar    1  LIG1       -0.0598
     21 C           1.4390   -3.5780   -0.0634 C.ar    1  LIG1       -0.0375
     22 H          -3.2412    0.1793    0.4743 H       1  LIG1        0.2923
     23 H          -3.3907    3.3448    1.1482 H       1  LIG1        0.0660
     24 H          -3.5630    3.2644   -0.6607 H       1  LIG1        0.0660
     25 H          -3.3599    4.8036    0.1683 H       1  LIG1        0.0660
     26 H           2.2770    4.9129   -1.2631 H       1  LIG1        0.0660
     27 H           2.0190    3.3024   -1.9486 H       1  LIG1        0.0660
     28 H           2.9814    3.5208   -0.4373 H       1  LIG1        0.0660
     29 H           2.2188    1.4424   -0.1625 H       1  LIG1        0.0676
     30 H           3.0583   -0.1534    0.9717 H       1  LIG1        0.0456
     31 H           3.2736   -0.9710   -0.5981 H       1  LIG1        0.0456
     32 H           3.1670   -1.8724    0.9350 H       1  LIG1        0.0456
     33 H          -2.4123   -3.8007    0.2399 H       1  LIG1        0.0625
     34 H          -1.0862   -5.8731   -0.0365 H       1  LIG1        0.0618
     35 H           1.3834   -5.7287   -0.2514 H       1  LIG1        0.0618
     36 H           2.5177   -3.5750   -0.1879 H       1  LIG1        0.0638
@<TRIPOS>BOND
     1     1     2    2
     2     2     3   ar
     3     3     4   ar
     4     4     5    1
     5     4     6   ar
     6     6     7    1
     7     7     8    1
     8     6     9   ar
     9     9    10    1
    10    10    11    1
    11     9    12   ar
    12    12    13   ar
    13     3    13   ar
    14    13    14   ar
    15    14    15    1
    16    14    16   ar
    17    16    17   ar
    18     2    17   ar
    19    17    18   ar
    20    18    19   ar
    21    19    20   ar
    22    20    21   ar
    23    16    21   ar
    24     5    22    1
    25     8    23    1
    26     8    24    1
    27     8    25    1
    28    11    26    1
    29    11    27    1
    30    11    28    1
    31    12    29    1
    32    15    30    1
    33    15    31    1
    34    15    32    1
    35    18    33    1
    36    19    34    1
    37    20    35    1
    38    21    36    1
