REMARK  Name = NuBBE_1711
REMARK  2 active torsions:
REMARK  status: ('A' for Active; 'I' for Inactive)
REMARK    1  A    between atoms: C_1  and  O_2
REMARK    2  A    between atoms: O_2  and  C_3
REMARK                            x       y       z     vdW  Elec       q    Type
REMARK                         _______ _______ _______ _____ _____    ______ ____
ROOT
ATOM      1  C   LIG A   1       0.068  -1.045   0.347  0.00  0.00    +0.134 A 
ATOM      2  C   LIG A   1      -0.203   0.401   0.192  0.00  0.00    +0.040 A 
ATOM      3  C   LIG A   1      -0.898   1.146   1.154  0.00  0.00    +0.013 A 
ATOM      4  C   LIG A   1      -1.131   2.511   0.966  0.00  0.00    +0.001 A 
ATOM      5  C   LIG A   1      -0.671   3.148  -0.186  0.00  0.00    +0.002 A 
ATOM      6  C   LIG A   1       0.022   2.422  -1.154  0.00  0.00    +0.026 A 
ATOM      7  C   LIG A   1       0.252   1.058  -0.962  0.00  0.00    +0.053 A 
ATOM      8  N   LIG A   1       0.948   0.337  -1.938  0.00  0.00    -0.322 N 
ATOM      9  C   LIG A   1       0.741  -1.691  -0.621  0.00  0.00    +0.116 A 
ATOM     10  C   LIG A   1       1.219  -0.996  -1.837  0.00  0.00    +0.253 A 
ATOM     11  O   LIG A   1       1.831  -1.608  -2.706  0.00  0.00    -0.268 OA
ATOM     12  H   LIG A   1       1.282   0.796  -2.774  0.00  0.00    +0.169 HD
ENDROOT
BRANCH   1  14
ATOM     13  C   LIG A   1      -0.187  -2.984   1.736  0.00  0.00    +0.277 C 
ATOM     14  O   LIG A   1      -0.416  -1.598   1.514  0.00  0.00    -0.494 OA
ENDBRANCH   1  14
TORSDOF 1
