@<TRIPOS>MOLECULE
NuBBE_442
 54 56 0 0 0
SMALL
GASTEIGER

@<TRIPOS>ATOM
      1 O          -1.8027    4.0701   -2.7185 O.2     1  LIG1       -0.2452
      2 C          -0.7960    3.5275   -2.3180 C.2     1  LIG1        0.3384
      3 C          -0.6846    2.7280   -1.0727 C.2     1  LIG1        0.0781
      4 C          -1.8118    2.2535   -0.5334 C.2     1  LIG1        0.0984
      5 O          -1.8488    1.3745    0.5156 O.2     1  LIG1       -0.4701
      6 C          -0.7198    0.4888    0.5685 C.3     1  LIG1        0.2106
      7 H          -0.7640   -0.0501    1.5179 H       1  LIG1        0.1060
      8 C           0.6369    1.2115    0.4971 C.3     1  LIG1        0.0750
      9 C           0.6472    2.4293   -0.4650 C.3     1  LIG1        0.0240
     10 C           1.0812    3.5843    0.3983 C.2     1  LIG1       -0.0764
     11 C           1.2974    3.2243    1.6643 C.2     1  LIG1       -0.0449
     12 C           1.1305    1.7525    1.8685 C.3     1  LIG1        0.1898
     13 C           2.5130    1.1446    2.2388 C.2     1  LIG1        0.3434
     14 O           3.4297    1.3657    1.2494 O.3     1  LIG1       -0.4657
     15 C           4.7468    0.9000    1.5396 C.3     1  LIG1        0.0818
     16 O           2.7570    0.5919    3.3035 O.2     1  LIG1       -0.2472
     17 O           0.1674    1.5746    2.8921 O.3     1  LIG1       -0.3733
     18 H           1.4097    2.2504   -1.2321 H       1  LIG1        0.0400
     19 H           1.3678    0.4884    0.1044 H       1  LIG1        0.0407
     20 O          -0.7860   -0.5287   -0.4649 O.3     1  LIG1       -0.3094
     21 C          -1.9815   -1.3217   -0.3367 C.3     1  LIG1        0.1918
     22 H          -2.8437   -0.6563   -0.4603 H       1  LIG1        0.0939
     23 C          -2.0651   -2.3865   -1.4662 C.3     1  LIG1        0.1342
     24 H          -1.7991   -1.9271   -2.4250 H       1  LIG1        0.0671
     25 C          -1.1831   -3.6192   -1.1926 C.3     1  LIG1        0.1141
     26 H          -1.7967   -4.5283   -1.1308 H       1  LIG1        0.0648
     27 C          -0.3883   -3.4803    0.1057 C.3     1  LIG1        0.1119
     28 H           0.3961   -2.7228   -0.0018 H       1  LIG1        0.0647
     29 C          -1.3826   -3.1140    1.2075 C.3     1  LIG1        0.1130
     30 H          -2.1538   -3.8915    1.2814 H       1  LIG1        0.0647
     31 O          -2.0942   -1.8900    0.9710 O.3     1  LIG1       -0.3404
     32 C          -0.7142   -3.0140    2.5822 C.3     1  LIG1        0.0730
     33 O          -1.6884   -2.6622    3.5680 O.3     1  LIG1       -0.3924
     34 O           0.2736   -4.7157    0.3905 O.3     1  LIG1       -0.3865
     35 O          -0.2652   -3.8617   -2.2716 O.3     1  LIG1       -0.3864
     36 O          -3.4327   -2.8295   -1.5880 O.3     1  LIG1       -0.3841
     37 O           0.3731    3.3937   -3.0022 O.3     1  LIG1       -0.4646
     38 C           0.2419    3.5370   -4.4131 C.3     1  LIG1        0.0820
     39 H          -2.8132    2.5101   -0.8579 H       1  LIG1        0.1029
     40 H           1.1701    4.6015    0.0367 H       1  LIG1        0.0576
     41 H           1.5839    3.9066    2.4531 H       1  LIG1        0.0603
     42 H           5.3841    1.1546    0.6881 H       1  LIG1        0.0661
     43 H           4.7459   -0.1867    1.6617 H       1  LIG1        0.0661
     44 H           5.1457    1.3953    2.4303 H       1  LIG1        0.0661
     45 H           0.5549    1.9083    3.7213 H       1  LIG1        0.2113
     46 H          -0.2612   -3.9643    2.8789 H       1  LIG1        0.0584
     47 H           0.0559   -2.2363    2.5921 H       1  LIG1        0.0584
     48 H          -2.2307   -1.9581    3.1608 H       1  LIG1        0.2095
     49 H           0.7969   -4.9230   -0.4084 H       1  LIG1        0.2100
     50 H          -0.7901   -4.1222   -3.0495 H       1  LIG1        0.2100
     51 H          -3.4973   -3.4397   -2.3416 H       1  LIG1        0.2101
     52 H           0.0441    4.5738   -4.6934 H       1  LIG1        0.0661
     53 H          -0.5441    2.8704   -4.7830 H       1  LIG1        0.0661
     54 H           1.1880    3.2189   -4.8612 H       1  LIG1        0.0661
@<TRIPOS>BOND
     1     1     2    2
     2     2     3    1
     3     3     4    2
     4     4     5    1
     5     5     6    1
     6     6     8    1
     7     8     9    1
     8     9    10    1
     9    10    11    2
    10    11    12    1
    11    13    14    1
    12    14    15    1
    13    13    16    2
    14     3     9    1
    15     9    18    1
    16    12     8    1
    17     8    19    1
    18    20    21    1
    19    21    22    1
    20    21    23    1
    21    23    25    1
    22    25    27    1
    23    27    28    1
    24    27    29    1
    25    29    31    1
    26    21    31    1
    27    32    33    1
    28    27    34    1
    29     2    37    1
    30    37    38    1
    31    12    17    1
    32    12    13    1
    33     6    20    1
    34     6     7    1
    35    23    36    1
    36    23    24    1
    37    25    35    1
    38    25    26    1
    39    29    32    1
    40    29    30    1
    41     4    39    1
    42    10    40    1
    43    11    41    1
    44    15    42    1
    45    15    43    1
    46    15    44    1
    47    17    45    1
    48    32    46    1
    49    32    47    1
    50    33    48    1
    51    34    49    1
    52    35    50    1
    53    36    51    1
    54    38    52    1
    55    38    53    1
    56    38    54    1
