REMARK  Name = NuBBE_1249
REMARK  14 active torsions:
REMARK  status: ('A' for Active; 'I' for Inactive)
REMARK    1  A    between atoms: O_1  and  C_2
REMARK    2  A    between atoms: C_3  and  C_34
REMARK    3  A    between atoms: C_6  and  O_21
REMARK    4  A    between atoms: C_7  and  C_8
REMARK    5  A    between atoms: C_10  and  O_12
REMARK    6  A    between atoms: C_13  and  O_15
REMARK    7  A    between atoms: C_16  and  O_20
REMARK    8  A    between atoms: C_25  and  C_27
REMARK    9  A    between atoms: C_30  and  O_33
REMARK   10  A    between atoms: C_37  and  C_39
REMARK   11  A    between atoms: C_39  and  O_40
REMARK   12  A    between atoms: C_41  and  O_49
REMARK   13  A    between atoms: C_43  and  O_48
REMARK   14  A    between atoms: C_45  and  O_47
REMARK                            x       y       z     vdW  Elec       q    Type
REMARK                         _______ _______ _______ _____ _____    ______ ____
ROOT
ATOM      1  C   LIG A   1      -0.702  -0.349  -1.004  0.00  0.00    +0.135 A 
ATOM      2  C   LIG A   1      -0.024   0.116   0.160  0.00  0.00    +0.069 A 
ATOM      3  C   LIG A   1       0.677  -0.837   0.934  0.00  0.00    +0.152 A 
ATOM      4  C   LIG A   1       0.644  -2.189   0.562  0.00  0.00    +0.106 A 
ATOM      5  C   LIG A   1      -0.068  -2.618  -0.570  0.00  0.00    +0.140 A 
ATOM      6  C   LIG A   1      -0.727  -1.708  -1.405  0.00  0.00    +0.068 A 
ATOM      7  C   LIG A   1       1.365  -3.166   1.383  0.00  0.00    +0.197 A 
ATOM      8  O   LIG A   1       1.382  -4.365   1.094  0.00  0.00    -0.287 OA
ATOM      9  C   LIG A   1       2.075  -2.674   2.554  0.00  0.00    +0.098 A 
ATOM     10  C   LIG A   1       2.071  -1.360   2.819  0.00  0.00    +0.139 A 
ATOM     11  O   LIG A   1       1.380  -0.419   2.053  0.00  0.00    -0.454 OA
ENDROOT
BRANCH   6  12
ATOM     12  C   LIG A   1      -1.453  -2.237  -2.653  0.00  0.00    +0.186 C 
ATOM     13  C   LIG A   1      -0.515  -2.947  -3.682  0.00  0.00    +0.179 C 
ATOM     14  C   LIG A   1      -1.339  -3.450  -4.876  0.00  0.00    +0.176 C 
ATOM     15  C   LIG A   1      -2.114  -2.280  -5.493  0.00  0.00    +0.171 C 
ATOM     16  C   LIG A   1      -2.944  -1.586  -4.413  0.00  0.00    +0.194 C 
ATOM     17  O   LIG A   1      -2.133  -1.145  -3.319  0.00  0.00    -0.366 OA
BRANCH  13  18
ATOM     18  O   LIG A   1       0.481  -2.050  -4.212  0.00  0.00    -0.386 OA
ATOM     19  H   LIG A   1       0.637  -1.349  -3.554  0.00  0.00    +0.210 HD
ENDBRANCH  13  18
BRANCH  14  20
ATOM     20  O   LIG A   1      -2.256  -4.478  -4.478  0.00  0.00    -0.387 OA
ATOM     21  H   LIG A   1      -2.898  -4.561  -5.212  0.00  0.00    +0.210 HD
ENDBRANCH  14  20
BRANCH  15  22
ATOM     22  O   LIG A   1      -2.964  -2.766  -6.535  0.00  0.00    -0.387 OA
ATOM     23  H   LIG A   1      -2.395  -2.913  -7.313  0.00  0.00    +0.210 HD
ENDBRANCH  15  22
ENDBRANCH   6  12
BRANCH  10  24
ATOM     24  C   LIG A   1       2.814  -0.835   3.995  0.00  0.00    +0.018 A 
ATOM     25  C   LIG A   1       3.980  -1.472   4.473  0.00  0.00    +0.015 A 
ATOM     26  C   LIG A   1       4.679  -0.988   5.585  0.00  0.00    +0.046 A 
ATOM     27  C   LIG A   1       4.223   0.153   6.227  0.00  0.00    +0.117 A 
ATOM     28  C   LIG A   1       3.083   0.807   5.778  0.00  0.00    +0.046 A 
ATOM     29  C   LIG A   1       2.381   0.316   4.668  0.00  0.00    +0.015 A 
BRANCH  27  30
ATOM     30  O   LIG A   1       4.873   0.668   7.309  0.00  0.00    -0.507 OA
ATOM     31  H   LIG A   1       5.639   0.105   7.513  0.00  0.00    +0.292 HD
ENDBRANCH  27  30
ENDBRANCH  10  24
BRANCH   2  32
ATOM     32  C   LIG A   1      -0.087   1.600   0.566  0.00  0.00    +0.187 C 
ATOM     33  O   LIG A   1      -1.474   1.925   0.824  0.00  0.00    -0.361 OA
ATOM     34  C   LIG A   1      -1.697   3.301   1.155  0.00  0.00    +0.175 C 
ATOM     35  C   LIG A   1      -1.299   4.204  -0.021  0.00  0.00    +0.176 C 
ATOM     36  C   LIG A   1       0.194   4.012  -0.269  0.00  0.00    +0.177 C 
ATOM     37  C   LIG A   1       0.573   2.541  -0.481  0.00  0.00    +0.179 C 
BRANCH  37  38
ATOM     38  O   LIG A   1       2.010   2.448  -0.405  0.00  0.00    -0.386 OA
ATOM     39  H   LIG A   1       2.336   3.154  -1.000  0.00  0.00    +0.210 HD
ENDBRANCH  37  38
BRANCH  36  40
ATOM     40  O   LIG A   1       0.605   4.780  -1.416  0.00  0.00    -0.387 OA
ATOM     41  H   LIG A   1       0.146   5.641  -1.314  0.00  0.00    +0.210 HD
ENDBRANCH  36  40
BRANCH  35  42
ATOM     42  O   LIG A   1      -1.503   5.604   0.227  0.00  0.00    -0.387 OA
ATOM     43  H   LIG A   1      -2.311   5.682   0.782  0.00  0.00    +0.210 HD
ENDBRANCH  35  42
BRANCH  34  44
ATOM     44  C   LIG A   1      -3.171   3.494   1.544  0.00  0.00    +0.190 C 
BRANCH  44  45
ATOM     45  O   LIG A   1      -3.422   4.853   1.908  0.00  0.00    -0.392 OA
ATOM     46  H   LIG A   1      -4.298   4.871   2.339  0.00  0.00    +0.209 HD
ENDBRANCH  44  45
ENDBRANCH  34  44
ENDBRANCH   2  32
BRANCH   1  47
ATOM     47  O   LIG A   1      -1.358   0.601  -1.748  0.00  0.00    -0.506 OA
ATOM     48  H   LIG A   1      -1.855   0.136  -2.456  0.00  0.00    +0.292 HD
ENDBRANCH   1  47
BRANCH   5  49
ATOM     49  O   LIG A   1      -0.161  -3.953  -0.891  0.00  0.00    -0.505 OA
ATOM     50  H   LIG A   1       0.374  -4.479  -0.252  0.00  0.00    +0.292 HD
ENDBRANCH   5  49
TORSDOF 14
