REMARK  Name = NuBBE_1596
REMARK  3 active torsions:
REMARK  status: ('A' for Active; 'I' for Inactive)
REMARK    1  A    between atoms: C_1  and  C_2
REMARK    2  A    between atoms: C_1  and  C_4
REMARK    3  A    between atoms: C_2  and  C_3
REMARK                            x       y       z     vdW  Elec       q    Type
REMARK                         _______ _______ _______ _____ _____    ______ ____
ROOT
ATOM      1  C   LIG A   1      -0.661  -0.383   0.458  0.00  0.00    +0.042 A 
ATOM      2  N   LIG A   1      -0.039   0.820   0.407  0.00  0.00    -0.252 NA
ATOM      3  C   LIG A   1       1.304   0.851   0.338  0.00  0.00    +0.071 A 
ATOM      4  C   LIG A   1       2.086  -0.323   0.313  0.00  0.00    +0.000 A 
ATOM      5  C   LIG A   1       1.421  -1.553   0.367  0.00  0.00    +0.012 A 
ATOM      6  C   LIG A   1       0.033  -1.586   0.437  0.00  0.00    +0.024 A 
ATOM      7  C   LIG A   1       3.488  -0.241   0.233  0.00  0.00    +0.010 A 
ATOM      8  C   LIG A   1       4.119   0.999   0.179  0.00  0.00    +0.001 A 
ATOM      9  C   LIG A   1       3.354   2.160   0.207  0.00  0.00    +0.002 A 
ATOM     10  C   LIG A   1       1.961   2.074   0.286  0.00  0.00    +0.028 A 
ENDROOT
BRANCH   1  11
ATOM     11  C   LIG A   1      -2.169  -0.371   0.493  0.00  0.00    +0.055 C 
BRANCH  11  12
ATOM     12  C   LIG A   1      -2.757  -0.404  -0.918  0.00  0.00    +0.003 C 
ATOM     13  C   LIG A   1      -4.277  -0.382  -0.893  0.00  0.00    +0.004 C 
ENDBRANCH  11  12
ENDBRANCH   1  11
TORSDOF 2
