REMARK  Name = NuBBE_1220
REMARK  10 active torsions:
REMARK  status: ('A' for Active; 'I' for Inactive)
REMARK    1  A    between atoms: C_4  and  C_17
REMARK    2  A    between atoms: C_8  and  O_9
REMARK    3  A    between atoms: C_10  and  O_11
REMARK    4  A    between atoms: O_11  and  C_12
REMARK    5  A    between atoms: C_13  and  O_14
REMARK    6  A    between atoms: O_14  and  C_15
REMARK    7  A    between atoms: C_20  and  O_25
REMARK    8  A    between atoms: C_21  and  O_22
REMARK    9  A    between atoms: O_22  and  C_23
REMARK   10  A    between atoms: O_25  and  C_26
REMARK                            x       y       z     vdW  Elec       q    Type
REMARK                         _______ _______ _______ _____ _____    ______ ____
ROOT
ATOM      1  O   LIG A   1      -3.768   0.515   0.149  0.00  0.00    -0.287 OA
ATOM      2  C   LIG A   1      -2.534   0.486   0.183  0.00  0.00    +0.197 A 
ATOM      3  C   LIG A   1      -1.814  -0.785   0.212  0.00  0.00    +0.098 A 
ATOM      4  C   LIG A   1      -0.478  -0.741   0.238  0.00  0.00    +0.139 A 
ATOM      5  O   LIG A   1       0.294   0.406   0.207  0.00  0.00    -0.454 OA
ATOM      6  C   LIG A   1      -0.356   1.615   0.187  0.00  0.00    +0.146 A 
ATOM      7  C   LIG A   1      -1.737   1.733   0.201  0.00  0.00    +0.109 A 
ATOM      8  C   LIG A   1      -2.358   2.985   0.239  0.00  0.00    +0.177 A 
ATOM      9  C   LIG A   1      -1.565   4.156   0.248  0.00  0.00    +0.204 A 
ATOM     10  C   LIG A   1      -0.154   4.026   0.167  0.00  0.00    +0.169 A 
ATOM     11  C   LIG A   1       0.441   2.758   0.160  0.00  0.00    +0.096 A 
ENDROOT
BRANCH   4  12
ATOM     12  C   LIG A   1       0.296  -1.979   0.300  0.00  0.00    +0.021 A 
ATOM     13  C   LIG A   1       0.652  -2.527   1.531  0.00  0.00    +0.015 A 
ATOM     14  C   LIG A   1       1.393  -3.709   1.584  0.00  0.00    +0.050 A 
ATOM     15  C   LIG A   1       1.788  -4.356   0.406  0.00  0.00    +0.162 A 
ATOM     16  C   LIG A   1       1.442  -3.794  -0.842  0.00  0.00    +0.162 A 
ATOM     17  C   LIG A   1       0.683  -2.618  -0.881  0.00  0.00    +0.061 A 
BRANCH  16  18
ATOM     18  O   LIG A   1       1.886  -4.447  -1.967  0.00  0.00    -0.491 OA
ATOM     19  C   LIG A   1       1.559  -3.862  -3.224  0.00  0.00    +0.277 C 
ENDBRANCH  16  18
BRANCH  15  20
ATOM     20  O   LIG A   1       2.502  -5.530   0.381  0.00  0.00    -0.491 OA
ATOM     21  C   LIG A   1       2.808  -6.133   1.633  0.00  0.00    +0.277 C 
ENDBRANCH  15  20
ENDBRANCH   4  12
BRANCH   8  22
ATOM     22  O   LIG A   1      -3.725   3.075   0.266  0.00  0.00    -0.503 OA
ATOM     23  H   LIG A   1      -4.114   2.171   0.222  0.00  0.00    +0.292 HD
ENDBRANCH   8  22
BRANCH   9  24
ATOM     24  O   LIG A   1      -2.028   5.449   0.314  0.00  0.00    -0.488 OA
ATOM     25  C   LIG A   1      -3.432   5.662   0.414  0.00  0.00    +0.277 C 
ENDBRANCH   9  24
BRANCH  10  26
ATOM     26  O   LIG A   1       0.584   5.188   0.137  0.00  0.00    -0.491 OA
ATOM     27  C   LIG A   1       1.859   5.112  -0.497  0.00  0.00    +0.277 C 
ENDBRANCH  10  26
TORSDOF 6
