REMARK  Name = NuBBE_1494
REMARK  4 active torsions:
REMARK  status: ('A' for Active; 'I' for Inactive)
REMARK    1  A    between atoms: C_1  and  C_2
REMARK    2  A    between atoms: C_2  and  C_3
REMARK    3  A    between atoms: C_8  and  C_12
REMARK    4  A    between atoms: C_15  and  C_17
REMARK                            x       y       z     vdW  Elec       q    Type
REMARK                         _______ _______ _______ _____ _____    ______ ____
ROOT
ATOM      1  C   LIG A   1       2.508  -0.381  -0.815  0.00  0.00    +0.011 C 
ATOM      2  C   LIG A   1       1.173  -1.160  -0.770  0.00  0.00    -0.028 C 
ATOM      3  C   LIG A   1       1.071  -1.940  -2.099  0.00  0.00    +0.011 C 
ATOM      4  C   LIG A   1      -0.056  -0.205  -0.559  0.00  0.00    +0.024 C 
ATOM      5  C   LIG A   1      -0.070   0.368   0.925  0.00  0.00    +0.022 C 
ATOM      6  C   LIG A   1      -0.957  -0.502   1.829  0.00  0.00    -0.073 C 
ATOM      7  C   LIG A   1      -0.961  -1.849   1.742  0.00  0.00    -0.027 C 
ATOM      8  C   LIG A   1      -0.102  -2.750   0.893  0.00  0.00    +0.028 C 
ATOM      9  C   LIG A   1       1.248  -2.200   0.406  0.00  0.00    +0.011 C 
ATOM     10  C   LIG A   1      -1.878   0.146   2.831  0.00  0.00    +0.039 C 
ATOM     11  C   LIG A   1      -0.315   1.896   1.011  0.00  0.00    +0.013 C 
ATOM     12  C   LIG A   1       0.304   2.613  -0.173  0.00  0.00    +0.031 C 
ATOM     13  C   LIG A   1      -0.461   2.123  -1.362  0.00  0.00    -0.076 C 
ATOM     14  C   LIG A   1      -0.441   0.804  -1.630  0.00  0.00    -0.023 C 
ATOM     15  C   LIG A   1      -1.550   3.014  -1.894  0.00  0.00    +0.038 C 
ENDROOT
TORSDOF 0
