@<TRIPOS>MOLECULE
NuBBE_1298
 21 21 0 0 0
SMALL
GASTEIGER

@<TRIPOS>ATOM
      1 O           0.4526    1.2897   -2.7745 O.3     1  LIG1       -0.4795
      2 C          -0.2061    0.3374   -2.0806 C.2     1  LIG1        0.3222
      3 C           0.4444    0.0244   -0.7397 C.3     1  LIG1        0.1104
      4 N           0.1232    1.0043    0.3376 N.3     1  LIG1       -0.2905
      5 C          -1.2958    1.3757    0.3811 C.3     1  LIG1       -0.0119
      6 C           0.5040    0.2976    1.5774 C.3     1  LIG1        0.0255
      7 C           0.3448   -1.2073    1.3125 C.3     1  LIG1        0.0699
      8 O           1.5346   -1.9201    1.6381 O.3     1  LIG1       -0.3905
      9 C           0.0512   -1.3360   -0.1761 C.3     1  LIG1        0.0004
     10 O          -1.2258   -0.1579   -2.5355 O.2     1  LIG1       -0.2492
     11 H          -0.0939    1.4257   -3.5755 H       1  LIG1        0.2951
     12 H           1.5317    0.0280   -0.8997 H       1  LIG1        0.0579
     13 H          -1.5813    1.9339   -0.5167 H       1  LIG1        0.0391
     14 H          -1.4802    2.0516    1.2242 H       1  LIG1        0.0391
     15 H          -1.9650    0.5150    0.4860 H       1  LIG1        0.0391
     16 H          -0.0859    0.6158    2.4451 H       1  LIG1        0.0452
     17 H           1.5478    0.5405    1.8112 H       1  LIG1        0.0452
     18 H          -0.4738   -1.6332    1.9016 H       1  LIG1        0.0607
     19 H           2.2780   -1.5063    1.1659 H       1  LIG1        0.2098
     20 H          -1.0168   -1.5329   -0.3283 H       1  LIG1        0.0311
     21 H           0.6123   -2.1461   -0.6542 H       1  LIG1        0.0311
@<TRIPOS>BOND
     1     1     2    1
     2     2     3    1
     3     3     4    1
     4     4     5    1
     5     4     6    1
     6     6     7    1
     7     7     8    1
     8     7     9    1
     9     3     9    1
    10     2    10    2
    11     1    11    1
    12     3    12    1
    13     5    13    1
    14     5    14    1
    15     5    15    1
    16     6    16    1
    17     6    17    1
    18     7    18    1
    19     8    19    1
    20     9    20    1
    21     9    21    1
