@<TRIPOS>MOLECULE
NuBBE_950
 34 34 0 0 0
SMALL
GASTEIGER

@<TRIPOS>ATOM
      1 O           0.2271    5.8650    2.5972 O.3     1  LIG1       -0.4806
      2 C           0.3541    5.1124    1.4830 C.2     1  LIG1        0.3050
      3 C           1.3220    3.9757    1.6903 C.3     1  LIG1        0.0482
      4 C           1.4416    3.1349    0.4200 C.3     1  LIG1       -0.0247
      5 C           2.4029    1.9870    0.5777 C.2     1  LIG1       -0.0874
      6 C           2.3220    0.7938   -0.0369 C.2     1  LIG1       -0.0879
      7 C           1.2691    0.3371   -1.0185 C.3     1  LIG1       -0.0345
      8 C           0.5388   -0.9137   -0.5028 C.3     1  LIG1       -0.0456
      9 C          -0.5613   -1.4002   -1.4579 C.3     1  LIG1       -0.0274
     10 C          -1.2747   -2.6476   -0.9717 C.ar    1  LIG1       -0.0473
     11 C          -2.4234   -2.5514   -0.1718 C.ar    1  LIG1       -0.0586
     12 C          -3.0959   -3.7009    0.2590 C.ar    1  LIG1       -0.0615
     13 C          -2.6258   -4.9626   -0.0973 C.ar    1  LIG1       -0.0617
     14 C          -1.4844   -5.0743   -0.8881 C.ar    1  LIG1       -0.0615
     15 C          -0.8129   -3.9253   -1.3226 C.ar    1  LIG1       -0.0586
     16 O          -0.2656    5.3857    0.4793 O.2     1  LIG1       -0.2510
     17 H          -0.4157    6.5592    2.3369 H       1  LIG1        0.2951
     18 H           0.9622    3.3578    2.5193 H       1  LIG1        0.0380
     19 H           2.2975    4.4001    1.9568 H       1  LIG1        0.0380
     20 H           1.7898    3.7687   -0.4051 H       1  LIG1        0.0312
     21 H           0.4454    2.7693    0.1529 H       1  LIG1        0.0312
     22 H           3.2502    2.1549    1.2437 H       1  LIG1        0.0569
     23 H           3.1114    0.0699    0.1693 H       1  LIG1        0.0569
     24 H           1.7632    0.1210   -1.9743 H       1  LIG1        0.0307
     25 H           0.5440    1.1307   -1.2228 H       1  LIG1        0.0307
     26 H           0.0943   -0.6876    0.4743 H       1  LIG1        0.0271
     27 H           1.2687   -1.7170   -0.3406 H       1  LIG1        0.0271
     28 H          -0.1395   -1.5968   -2.4519 H       1  LIG1        0.0313
     29 H          -1.3030   -0.6039   -1.6013 H       1  LIG1        0.0313
     30 H          -2.8134   -1.5775    0.1143 H       1  LIG1        0.0620
     31 H          -3.9904   -3.6117    0.8705 H       1  LIG1        0.0618
     32 H          -3.1482   -5.8553    0.2384 H       1  LIG1        0.0618
     33 H          -1.1192   -6.0587   -1.1706 H       1  LIG1        0.0618
     34 H           0.0690   -4.0385   -1.9486 H       1  LIG1        0.0620
@<TRIPOS>BOND
     1     1     2    1
     2     2     3    1
     3     3     4    1
     4     4     5    1
     5     5     6    2
     6     6     7    1
     7     7     8    1
     8     8     9    1
     9     9    10    1
    10    10    11   ar
    11    11    12   ar
    12    12    13   ar
    13    13    14   ar
    14    14    15   ar
    15    10    15   ar
    16     2    16    2
    17     1    17    1
    18     3    18    1
    19     3    19    1
    20     4    20    1
    21     4    21    1
    22     5    22    1
    23     6    23    1
    24     7    24    1
    25     7    25    1
    26     8    26    1
    27     8    27    1
    28     9    28    1
    29     9    29    1
    30    11    30    1
    31    12    31    1
    32    13    32    1
    33    14    33    1
    34    15    34    1
