@<TRIPOS>MOLECULE
NuBBE_1204
 83 87 0 0 0
SMALL
GASTEIGER

@<TRIPOS>ATOM
      1 C          -3.4655   -1.2153   -1.5304 C.3     1  LIG1       -0.0589
      2 C          -2.2188   -1.4723   -0.6592 C.3     1  LIG1       -0.0226
      3 C          -1.2347   -2.5686   -1.2146 C.3     1  LIG1       -0.0277
      4 C          -1.7581   -4.0473   -1.2014 C.3     1  LIG1       -0.0032
      5 C          -0.5963   -5.0222   -1.5508 C.3     1  LIG1       -0.0571
      6 C          -2.1960   -4.3839    0.2545 C.3     1  LIG1        0.0864
      7 H          -1.2949   -4.4230    0.8824 H       1  LIG1        0.0624
      8 C          -3.1630   -3.3770    0.8900 C.3     1  LIG1        0.0821
      9 H          -3.2553   -3.6169    1.9565 H       1  LIG1        0.0619
     10 C          -2.6970   -1.9262    0.7632 C.3     1  LIG1       -0.0184
     11 O          -4.4798   -3.5450    0.3678 O.3     1  LIG1       -0.3892
     12 O          -2.8047   -5.6823    0.3123 O.3     1  LIG1       -0.3887
     13 C          -2.8613   -4.3258   -2.2381 C.3     1  LIG1       -0.0571
     14 C          -0.5827   -2.1123   -2.5319 C.3     1  LIG1       -0.0486
     15 C           0.2291   -0.8216   -2.3357 C.3     1  LIG1       -0.0463
     16 C          -0.5635    0.3905   -1.7540 C.3     1  LIG1       -0.0194
     17 C          -1.3543   -0.1526   -0.5034 C.3     1  LIG1       -0.0257
     18 C          -2.0360    1.0248    0.2065 C.3     1  LIG1       -0.0306
     19 C          -0.9377    1.8281    0.8298 C.2     1  LIG1       -0.0835
     20 C           0.2898    1.9670    0.2788 C.2     1  LIG1       -0.0602
     21 C           0.4070    1.6632   -1.2547 C.3     1  LIG1       -0.0050
     22 C           1.8815    1.4664   -1.6703 C.3     1  LIG1       -0.0424
     23 C           2.7208    0.8806   -0.5475 C.3     1  LIG1       -0.0358
     24 C           2.9463    1.9248    0.5765 C.3     1  LIG1        0.0767
     25 C           1.5440    2.4968    1.0889 C.3     1  LIG1        0.0252
     26 C           1.3872    2.5321    2.6874 C.3     1  LIG1        0.0733
     27 C           0.6639    3.8215    3.1292 C.3     1  LIG1       -0.0352
     28 C           2.6795    2.3356    3.5174 C.3     1  LIG1       -0.0146
     29 H           2.3803    2.1015    4.5508 H       1  LIG1        0.0326
     30 C           3.3923    1.0872    3.0143 C.3     1  LIG1       -0.0468
     31 C           3.9121    1.2692    1.6092 C.3     1  LIG1       -0.0363
     32 C           3.6140    3.5382    3.6370 C.3     1  LIG1       -0.0598
     33 O           0.5749    1.4098    3.1109 O.3     1  LIG1       -0.3880
     34 C           3.8110    3.0392   -0.0609 C.2     1  LIG1        0.3116
     35 O           3.5397    4.2936    0.3336 O.3     1  LIG1       -0.4802
     36 O           4.7492    2.8639   -0.8289 O.2     1  LIG1       -0.2504
     37 C          -0.0164    3.0146   -1.9184 C.3     1  LIG1       -0.0553
     38 C          -1.5004    0.8605   -2.9019 C.3     1  LIG1       -0.0585
     39 H          -4.3185   -1.8324   -1.2448 H       1  LIG1        0.0235
     40 H          -3.2958   -1.4169   -2.5888 H       1  LIG1        0.0235
     41 H          -3.8186   -0.1836   -1.4369 H       1  LIG1        0.0235
     42 H          -0.3992   -2.5920   -0.4935 H       1  LIG1        0.0312
     43 H           0.2890   -4.8217   -0.9367 H       1  LIG1        0.0236
     44 H          -0.3009   -4.9487   -2.6023 H       1  LIG1        0.0236
     45 H          -0.8841   -6.0660   -1.3801 H       1  LIG1        0.0236
     46 H          -1.8676   -1.7919    1.4708 H       1  LIG1        0.0296
     47 H          -3.5133   -1.2767    1.1019 H       1  LIG1        0.0296
     48 H          -4.5531   -4.4918    0.1329 H       1  LIG1        0.2099
     49 H          -2.8235   -5.9493    1.2488 H       1  LIG1        0.2099
     50 H          -3.7877   -3.7906   -2.0364 H       1  LIG1        0.0236
     51 H          -3.1170   -5.3917   -2.2652 H       1  LIG1        0.0236
     52 H          -2.5360   -4.0529   -3.2475 H       1  LIG1        0.0236
     53 H          -1.3220   -1.9938   -3.3280 H       1  LIG1        0.0268
     54 H           0.1218   -2.8675   -2.8943 H       1  LIG1        0.0268
     55 H           0.6619   -0.5609   -3.3094 H       1  LIG1        0.0271
     56 H           1.0618   -1.0754   -1.6718 H       1  LIG1        0.0271
     57 H          -0.5577   -0.4896    0.1851 H       1  LIG1        0.0315
     58 H          -2.6828    0.6787    1.0167 H       1  LIG1        0.0310
     59 H          -2.6554    1.6459   -0.4450 H       1  LIG1        0.0310
     60 H          -1.1582    2.1291    1.8449 H       1  LIG1        0.0572
     61 H           2.3213    2.4226   -1.9819 H       1  LIG1        0.0274
     62 H           1.9840    0.8601   -2.5724 H       1  LIG1        0.0274
     63 H           3.6795    0.5553   -0.9732 H       1  LIG1        0.0276
     64 H           2.2504   -0.0188   -0.1319 H       1  LIG1        0.0276
     65 H           1.5255    3.5553    0.8024 H       1  LIG1        0.0384
     66 H           1.2264    4.7166    2.8451 H       1  LIG1        0.0257
     67 H           0.5194    3.8345    4.2158 H       1  LIG1        0.0257
     68 H          -0.3340    3.9097    2.6926 H       1  LIG1        0.0257
     69 H           2.7227    0.2186    3.0415 H       1  LIG1        0.0269
     70 H           4.2269    0.8358    3.6809 H       1  LIG1        0.0269
     71 H           4.2469    0.2847    1.2545 H       1  LIG1        0.0276
     72 H           4.8426    1.8497    1.6845 H       1  LIG1        0.0276
     73 H           3.9257    3.9332    2.6729 H       1  LIG1        0.0233
     74 H           4.5192    3.2625    4.1898 H       1  LIG1        0.0233
     75 H           3.1378    4.3506    4.1948 H       1  LIG1        0.0233
     76 H           0.3122    1.5533    4.0357 H       1  LIG1        0.2102
     77 H           4.2020    4.8350   -0.1466 H       1  LIG1        0.2951
     78 H           0.5812    3.8518   -1.5333 H       1  LIG1        0.0238
     79 H          -1.0624    3.2701   -1.7192 H       1  LIG1        0.0238
     80 H           0.1401    3.0024   -3.0023 H       1  LIG1        0.0238
     81 H          -2.0750    0.0515   -3.3496 H       1  LIG1        0.0235
     82 H          -0.9185    1.2737   -3.7334 H       1  LIG1        0.0235
     83 H          -2.2229    1.6148   -2.5818 H       1  LIG1        0.0235
@<TRIPOS>BOND
     1     2     3    1
     2     3     4    1
     3     4     6    1
     4     6     8    1
     5     8    10    1
     6     2    10    1
     7     3    14    1
     8    14    15    1
     9    15    16    1
    10    16    17    1
    11     2    17    1
    12    17    18    1
    13    18    19    1
    14    19    20    2
    15    20    21    1
    16    21    22    1
    17    22    23    1
    18    23    24    1
    19    24    25    1
    20    20    25    1
    21    25    26    1
    22    26    28    1
    23    28    30    1
    24    30    31    1
    25    31    24    1
    26    34    35    1
    27    34    36    2
    28    16    21    1
    29     1     2    1
    30     4     5    1
    31     4    13    1
    32     8     9    1
    33     8    11    1
    34    16    38    1
    35    21    37    1
    36    24    34    1
    37    28    29    1
    38    28    32    1
    39     6    12    1
    40     6     7    1
    41    26    33    1
    42    26    27    1
    43     1    39    1
    44     1    40    1
    45     1    41    1
    46     3    42    1
    47     5    43    1
    48     5    44    1
    49     5    45    1
    50    10    46    1
    51    10    47    1
    52    11    48    1
    53    12    49    1
    54    13    50    1
    55    13    51    1
    56    13    52    1
    57    14    53    1
    58    14    54    1
    59    15    55    1
    60    15    56    1
    61    17    57    1
    62    18    58    1
    63    18    59    1
    64    19    60    1
    65    22    61    1
    66    22    62    1
    67    23    63    1
    68    23    64    1
    69    25    65    1
    70    27    66    1
    71    27    67    1
    72    27    68    1
    73    30    69    1
    74    30    70    1
    75    31    71    1
    76    31    72    1
    77    32    73    1
    78    32    74    1
    79    32    75    1
    80    33    76    1
    81    35    77    1
    82    37    78    1
    83    37    79    1
    84    37    80    1
    85    38    81    1
    86    38    82    1
    87    38    83    1
