@<TRIPOS>MOLECULE
NuBBE_242
 51 54 0 0 0
SMALL
GASTEIGER

@<TRIPOS>ATOM
      1 O          -4.1853   -2.0700    3.3861 O.3     1  LIG1       -0.5065
      2 C          -2.9322   -2.2568    2.8807 C.ar    1  LIG1        0.1238
      3 C          -2.6135   -3.3838    2.1324 C.ar    1  LIG1        0.0218
      4 C          -1.3291   -3.4984    1.6010 C.ar    1  LIG1        0.1271
      5 O          -0.9954   -4.5918    0.8515 O.3     1  LIG1       -0.5063
      6 C          -0.3757   -2.4875    1.7774 C.ar    1  LIG1        0.0395
      7 C           0.9810   -2.5634    1.1336 C.3     1  LIG1        0.0204
      8 C           1.4380   -1.1498    0.7658 C.3     1  LIG1        0.1483
      9 H           2.4750   -1.1615    0.4063 H       1  LIG1        0.0778
     10 O           0.5873   -0.6335   -0.2896 O.3     1  LIG1       -0.4534
     11 C           0.8426   -1.1212   -1.5304 C.2     1  LIG1        0.3398
     12 C          -0.0801   -0.5160   -2.5180 C.ar    1  LIG1        0.0661
     13 C           0.3700   -0.3952   -3.8452 C.ar    1  LIG1       -0.0023
     14 C          -0.4593    0.1926   -4.7924 C.ar    1  LIG1        0.1628
     15 O          -0.0770    0.3477   -6.0953 O.3     1  LIG1       -0.5032
     16 C          -1.7202    0.6505   -4.4269 C.ar    1  LIG1        0.2006
     17 O          -2.5335    1.2537   -5.3475 O.3     1  LIG1       -0.5009
     18 C          -2.1703    0.5050   -3.1198 C.ar    1  LIG1        0.1628
     19 O          -3.4128    0.9484   -2.7709 O.3     1  LIG1       -0.5032
     20 C          -1.3630   -0.0824   -2.1559 C.ar    1  LIG1       -0.0023
     21 O           1.7280   -1.8960   -1.8376 O.2     1  LIG1       -0.2449
     22 C           1.3574   -0.2701    2.0355 C.3     1  LIG1        0.1624
     23 H           2.0701   -0.6694    2.7712 H       1  LIG1        0.0822
     24 C           1.7405    1.1863    1.7789 C.ar    1  LIG1        0.0034
     25 C           0.7689    2.1398    1.4020 C.ar    1  LIG1       -0.0095
     26 C           1.1299    3.4722    1.2090 C.ar    1  LIG1        0.1623
     27 O           0.2172    4.4299    0.8627 O.3     1  LIG1       -0.5032
     28 C           2.4492    3.8695    1.3762 C.ar    1  LIG1        0.2006
     29 O           2.8115    5.1790    1.2052 O.3     1  LIG1       -0.5009
     30 C           3.4161    2.9396    1.7295 C.ar    1  LIG1        0.1623
     31 O           4.7129    3.3355    1.8914 O.3     1  LIG1       -0.5032
     32 C           3.0765    1.6049    1.9310 C.ar    1  LIG1       -0.0095
     33 O           0.0836   -0.2750    2.7042 O.3     1  LIG1       -0.4800
     34 C          -0.7213   -1.3646    2.5345 C.ar    1  LIG1        0.1318
     35 C          -1.9891   -1.2629    3.1084 C.ar    1  LIG1        0.0221
     36 H          -4.7776   -2.7471    3.0202 H       1  LIG1        0.2921
     37 H          -3.3556   -4.1535    1.9552 H       1  LIG1        0.0691
     38 H          -1.7797   -5.1519    0.7333 H       1  LIG1        0.2921
     39 H           0.9341   -3.1868    0.2352 H       1  LIG1        0.0353
     40 H           1.6877   -3.0316    1.8289 H       1  LIG1        0.0353
     41 H           1.3628   -0.7490   -4.1107 H       1  LIG1        0.0663
     42 H           0.7991   -0.0626   -6.2105 H       1  LIG1        0.2923
     43 H          -2.0006    1.2645   -6.1698 H       1  LIG1        0.2924
     44 H          -3.7794    1.3332   -3.5932 H       1  LIG1        0.2923
     45 H          -1.7339   -0.2007   -1.1416 H       1  LIG1        0.0663
     46 H          -0.2656    1.8280    1.2801 H       1  LIG1        0.0659
     47 H          -0.6571    4.0049    0.8064 H       1  LIG1        0.2923
     48 H           1.9686    5.6325    0.9962 H       1  LIG1        0.2924
     49 H           4.6982    4.2973    1.7083 H       1  LIG1        0.2923
     50 H           3.8548    0.9045    2.2221 H       1  LIG1        0.0659
     51 H          -2.2540   -0.3874    3.6946 H       1  LIG1        0.0691
@<TRIPOS>BOND
     1     1     2    1
     2     2     3   ar
     3     3     4   ar
     4     4     5    1
     5     4     6   ar
     6     6     7    1
     7     7     8    1
     8    10    11    1
     9    11    12    1
    10    12    13   ar
    11    13    14   ar
    12    14    15    1
    13    14    16   ar
    14    16    17    1
    15    16    18   ar
    16    18    19    1
    17    18    20   ar
    18    12    20   ar
    19    11    21    2
    20     8    22    1
    21    22    23    1
    22    22    24    1
    23    24    25   ar
    24    25    26   ar
    25    26    27    1
    26    26    28   ar
    27    28    29    1
    28    28    30   ar
    29    30    31    1
    30    30    32   ar
    31    24    32   ar
    32    22    33    1
    33     6    34   ar
    34    33    34    1
    35    34    35   ar
    36     2    35   ar
    37     8    10    1
    38     8     9    1
    39     1    36    1
    40     3    37    1
    41     5    38    1
    42     7    39    1
    43     7    40    1
    44    13    41    1
    45    15    42    1
    46    17    43    1
    47    19    44    1
    48    20    45    1
    49    25    46    1
    50    27    47    1
    51    29    48    1
    52    31    49    1
    53    32    50    1
    54    35    51    1
