@<TRIPOS>MOLECULE
NuBBE_314
 101 106 0 0 0
SMALL
GASTEIGER

@<TRIPOS>ATOM
      1 C          -3.7262   -1.9386    1.1641 C.3     1  LIG1       -0.0572
      2 C          -2.8517   -2.6428    0.0890 C.3     1  LIG1       -0.0052
      3 C          -3.2006   -2.0384   -1.3139 C.3     1  LIG1        0.0672
      4 H          -4.2673   -2.1938   -1.5202 H       1  LIG1        0.0602
      5 C          -2.3551   -2.7324   -2.3926 C.3     1  LIG1       -0.0255
      6 C          -0.8418   -2.5540   -2.1818 C.3     1  LIG1       -0.0447
      7 C          -0.3048   -2.8641   -0.7284 C.3     1  LIG1       -0.0249
      8 C          -1.3232   -2.3482    0.3491 C.3     1  LIG1       -0.0278
      9 H          -1.2548   -1.2512    0.2997 H       1  LIG1        0.0312
     10 C          -0.8317   -2.6828    1.7594 C.3     1  LIG1       -0.0486
     11 C           0.4723   -1.9429    2.0590 C.3     1  LIG1       -0.0457
     12 C           1.6709   -2.1866    1.0921 C.3     1  LIG1       -0.0090
     13 C           1.1436   -2.1606   -0.4233 C.3     1  LIG1       -0.0252
     14 H           1.8625   -2.7582   -1.0036 H       1  LIG1        0.0315
     15 C           1.2105   -0.7429   -1.0510 C.3     1  LIG1       -0.0306
     16 C           1.8719    0.3800   -0.3333 C.2     1  LIG1       -0.0831
     17 C           2.6261    0.3097    0.7724 C.2     1  LIG1       -0.0519
     18 C           2.8786   -1.0733    1.4097 C.3     1  LIG1        0.0944
     19 C           3.0449   -0.8787    2.9657 C.3     1  LIG1       -0.0319
     20 C           3.9254    0.2935    3.4295 C.3     1  LIG1       -0.0354
     21 C           3.4637    1.6596    2.8819 C.3     1  LIG1        0.0744
     22 C           3.3784    1.5608    1.3282 C.3     1  LIG1       -0.0003
     23 H           4.4129    1.3351    1.0134 H       1  LIG1        0.0359
     24 C           3.1173    2.9743    0.6616 C.3     1  LIG1       -0.0337
     25 H           3.2510    2.8468   -0.4214 H       1  LIG1        0.0307
     26 C           4.2156    3.9867    1.1053 C.3     1  LIG1       -0.0407
     27 H           5.1766    3.5970    0.7413 H       1  LIG1        0.0301
     28 C           4.3149    4.0925    2.6301 C.3     1  LIG1       -0.0492
     29 C           4.5423    2.7215    3.2667 C.3     1  LIG1       -0.0364
     30 C           4.0550    5.3800    0.4866 C.3     1  LIG1       -0.0622
     31 C           1.7063    3.5561    0.8572 C.3     1  LIG1       -0.0616
     32 C           2.1235    2.0139    3.5499 C.2     1  LIG1        0.3115
     33 O           2.2583    2.7168    4.7004 O.3     1  LIG1       -0.4802
     34 O           1.0178    1.6919    3.1860 O.2     1  LIG1       -0.2504
     35 C           4.2523   -1.6086    0.8714 C.2     1  LIG1        0.3156
     36 O           4.3409   -1.7819   -0.4668 O.3     1  LIG1       -0.4800
     37 O           5.2184   -1.8713    1.5775 O.2     1  LIG1       -0.2500
     38 C           2.2221   -3.6089    1.4198 C.3     1  LIG1       -0.0580
     39 C          -0.1254   -4.4111   -0.7134 C.3     1  LIG1       -0.0590
     40 O          -2.9544   -0.6189   -1.2513 O.3     1  LIG1       -0.3449
     41 C          -3.2281    0.1380   -2.4325 C.3     1  LIG1        0.1881
     42 H          -2.6202   -0.2707   -3.2447 H       1  LIG1        0.0937
     43 O          -4.6004    0.0289   -2.8048 O.3     1  LIG1       -0.3431
     44 C          -4.9003    0.8680   -3.9168 C.3     1  LIG1        0.0873
     45 H          -4.1892    0.6541   -4.7269 H       1  LIG1        0.0621
     46 C          -4.8278    2.3620   -3.5354 C.3     1  LIG1        0.1095
     47 H          -5.8343    2.7606   -3.3597 H       1  LIG1        0.0646
     48 C          -3.9387    2.6231   -2.3043 C.3     1  LIG1        0.1140
     49 H          -3.5060    3.6293   -2.3886 H       1  LIG1        0.0648
     50 C          -2.7784    1.6161   -2.2193 C.3     1  LIG1        0.1341
     51 H          -2.2703    1.7116   -1.2529 H       1  LIG1        0.0671
     52 O          -1.7906    1.9701   -3.2208 O.3     1  LIG1       -0.3841
     53 O          -4.7179    2.6175   -1.1091 O.3     1  LIG1       -0.3864
     54 O          -4.2796    3.0653   -4.6643 O.3     1  LIG1       -0.3866
     55 C          -6.2847    0.4847   -4.4283 C.3     1  LIG1       -0.0361
     56 C          -3.2504   -4.1335    0.1697 C.3     1  LIG1       -0.0572
     57 H          -3.4207   -0.9017    1.3319 H       1  LIG1        0.0236
     58 H          -3.6771   -2.4621    2.1269 H       1  LIG1        0.0236
     59 H          -4.7826   -1.9362    0.8698 H       1  LIG1        0.0236
     60 H          -2.6146   -2.3390   -3.3820 H       1  LIG1        0.0290
     61 H          -2.6081   -3.7947   -2.4532 H       1  LIG1        0.0290
     62 H          -0.6215   -1.5389   -2.5072 H       1  LIG1        0.0271
     63 H          -0.3182   -3.1891   -2.9092 H       1  LIG1        0.0271
     64 H          -0.7245   -3.7584    1.9194 H       1  LIG1        0.0268
     65 H          -1.5528   -2.3531    2.5134 H       1  LIG1        0.0268
     66 H           0.7515   -2.2335    3.0793 H       1  LIG1        0.0271
     67 H           0.2442   -0.8704    2.0822 H       1  LIG1        0.0271
     68 H           0.2197   -0.3581   -1.2889 H       1  LIG1        0.0310
     69 H           1.7424   -0.8456   -2.0105 H       1  LIG1        0.0310
     70 H           1.7138    1.3347   -0.8285 H       1  LIG1        0.0572
     71 H           3.4486   -1.7924    3.4190 H       1  LIG1        0.0279
     72 H           2.0771   -0.7141    3.4421 H       1  LIG1        0.0279
     73 H           4.9656    0.1076    3.1375 H       1  LIG1        0.0276
     74 H           3.9209    0.3136    4.5279 H       1  LIG1        0.0276
     75 H           3.4185    4.5654    3.0480 H       1  LIG1        0.0268
     76 H           5.1525    4.7489    2.8994 H       1  LIG1        0.0268
     77 H           4.6089    2.8465    4.3553 H       1  LIG1        0.0276
     78 H           5.5332    2.3658    2.9557 H       1  LIG1        0.0276
     79 H           4.9311    6.0001    0.7095 H       1  LIG1        0.0233
     80 H           3.1778    5.9069    0.8762 H       1  LIG1        0.0233
     81 H           3.9641    5.3161   -0.6025 H       1  LIG1        0.0233
     82 H           1.5812    4.0442    1.8278 H       1  LIG1        0.0233
     83 H           0.9212    2.8041    0.7551 H       1  LIG1        0.0233
     84 H           1.5081    4.3204    0.0958 H       1  LIG1        0.0233
     85 H           1.3383    2.8633    5.0047 H       1  LIG1        0.2951
     86 H           3.5593   -1.4823   -0.9586 H       1  LIG1        0.2951
     87 H           1.4317   -4.3505    1.5441 H       1  LIG1        0.0236
     88 H           2.7821   -3.6222    2.3601 H       1  LIG1        0.0236
     89 H           2.8898   -3.9791    0.6346 H       1  LIG1        0.0236
     90 H          -0.8973   -4.9233   -1.2951 H       1  LIG1        0.0235
     91 H          -0.1510   -4.8573    0.2790 H       1  LIG1        0.0235
     92 H           0.8205   -4.7009   -1.1849 H       1  LIG1        0.0235
     93 H          -2.2630    2.1946   -4.0462 H       1  LIG1        0.2101
     94 H          -5.3265    3.3757   -1.1412 H       1  LIG1        0.2100
     95 H          -4.4336    4.0176   -4.5210 H       1  LIG1        0.2100
     96 H          -6.9822    0.3203   -3.6000 H       1  LIG1        0.0255
     97 H          -6.2255   -0.4612   -4.9789 H       1  LIG1        0.0255
     98 H          -6.6966    1.2416   -5.1023 H       1  LIG1        0.0255
     99 H          -2.9718   -4.5742    1.1325 H       1  LIG1        0.0236
    100 H          -2.8166   -4.7573   -0.6086 H       1  LIG1        0.0236
    101 H          -4.3378   -4.2433    0.0644 H       1  LIG1        0.0236
@<TRIPOS>BOND
     1     2     3    1
     2     3     5    1
     3     5     6    1
     4     6     7    1
     5     7     8    1
     6     8    10    1
     7    10    11    1
     8    11    12    1
     9    12    13    1
    10    13    15    1
    11    15    16    1
    12    16    17    2
    13    17    18    1
    14    18    19    1
    15    19    20    1
    16    20    21    1
    17    21    22    1
    18    17    22    1
    19    22    24    1
    20    24    26    1
    21    26    28    1
    22    28    29    1
    23    29    21    1
    24    32    33    1
    25    32    34    2
    26    12    18    1
    27    35    36    1
    28    35    37    2
    29    13     7    1
    30    40    41    1
    31    41    42    1
    32    41    43    1
    33    43    44    1
    34    44    46    1
    35    46    47    1
    36    46    48    1
    37    48    50    1
    38    50    51    1
    39    41    50    1
    40    50    52    1
    41    46    54    1
    42     8     2    1
    43     1     2    1
    44     2    56    1
    45     7    39    1
    46     8     9    1
    47    12    38    1
    48    13    14    1
    49    18    35    1
    50    21    32    1
    51    22    23    1
    52     3    40    1
    53     3     4    1
    54    24    31    1
    55    24    25    1
    56    26    30    1
    57    26    27    1
    58    44    55    1
    59    44    45    1
    60    48    53    1
    61    48    49    1
    62     1    57    1
    63     1    58    1
    64     1    59    1
    65     5    60    1
    66     5    61    1
    67     6    62    1
    68     6    63    1
    69    10    64    1
    70    10    65    1
    71    11    66    1
    72    11    67    1
    73    15    68    1
    74    15    69    1
    75    16    70    1
    76    19    71    1
    77    19    72    1
    78    20    73    1
    79    20    74    1
    80    28    75    1
    81    28    76    1
    82    29    77    1
    83    29    78    1
    84    30    79    1
    85    30    80    1
    86    30    81    1
    87    31    82    1
    88    31    83    1
    89    31    84    1
    90    33    85    1
    91    36    86    1
    92    38    87    1
    93    38    88    1
    94    38    89    1
    95    39    90    1
    96    39    91    1
    97    39    92    1
    98    52    93    1
    99    53    94    1
   100    54    95    1
   101    55    96    1
   102    55    97    1
   103    55    98    1
   104    56    99    1
   105    56   100    1
   106    56   101    1
