REMARK  Name = NuBBE_22
REMARK  4 active torsions:
REMARK  status: ('A' for Active; 'I' for Inactive)
REMARK    1  A    between atoms: C_2  and  C_9
REMARK    2  A    between atoms: C_10  and  C_11
REMARK    3  A    between atoms: C_11  and  C_12
REMARK    4  A    between atoms: C_12  and  C_13
REMARK                            x       y       z     vdW  Elec       q    Type
REMARK                         _______ _______ _______ _____ _____    ______ ____
ROOT
ATOM      1  C   LIG A   1       1.202  -0.458   0.673  0.00  0.00    +0.032 C 
ENDROOT
BRANCH   1   3
ATOM      2  C   LIG A   1      -0.560   1.257   0.188  0.00  0.00    +0.063 C 
ATOM      3  C   LIG A   1       0.614   0.928   0.752  0.00  0.00    -0.021 C 
BRANCH   2   5
ATOM      4  O   LIG A   1      -0.347   3.603   0.111  0.00  0.00    -0.271 OA
ATOM      5  C   LIG A   1      -1.099   2.646   0.216  0.00  0.00    +0.239 C 
ATOM      6  N   LIG A   1      -2.489   2.743   0.288  0.00  0.00    -0.298 N 
ATOM      7  C   LIG A   1      -3.074   4.080   0.194  0.00  0.00    +0.108 C 
ATOM      8  C   LIG A   1      -4.498   4.043  -0.359  0.00  0.00    +0.019 C 
ATOM      9  C   LIG A   1      -5.373   3.057   0.409  0.00  0.00    +0.003 C 
ATOM     10  C   LIG A   1      -4.721   1.679   0.431  0.00  0.00    +0.019 C 
ATOM     11  C   LIG A   1      -3.307   1.752   0.994  0.00  0.00    +0.108 C 
ENDBRANCH   2   5
ENDBRANCH   1   3
BRANCH   1  12
ATOM     12  C   LIG A   1       2.584  -0.444   0.013  0.00  0.00    +0.039 C 
BRANCH  12  13
ATOM     13  C   LIG A   1       3.195  -1.821  -0.121  0.00  0.00    -0.043 A 
ATOM     14  C   LIG A   1       2.961  -2.591  -1.273  0.00  0.00    +0.053 A 
ATOM     15  C   LIG A   1       3.583  -3.819  -1.376  0.00  0.00    +0.167 A 
ATOM     16  O   LIG A   1       3.489  -4.672  -2.432  0.00  0.00    -0.453 OA
ATOM     17  C   LIG A   1       4.375  -5.729  -2.006  0.00  0.00    +0.466 C 
ATOM     18  O   LIG A   1       4.926  -5.520  -0.689  0.00  0.00    -0.453 OA
ATOM     19  C   LIG A   1       4.401  -4.303  -0.383  0.00  0.00    +0.166 A 
ATOM     20  C   LIG A   1       4.637  -3.589   0.771  0.00  0.00    +0.050 A 
ATOM     21  C   LIG A   1       4.026  -2.336   0.900  0.00  0.00    +0.007 A 
ENDBRANCH  12  13
ENDBRANCH   1  12
TORSDOF 4
