REMARK  Name = NuBBE_956
REMARK  3 active torsions:
REMARK  status: ('A' for Active; 'I' for Inactive)
REMARK    1  A    between atoms: C_10  and  C_20
REMARK    2  A    between atoms: C_10  and  C_21
REMARK    3  A    between atoms: C_15  and  C_19
REMARK                            x       y       z     vdW  Elec       q    Type
REMARK                         _______ _______ _______ _____ _____    ______ ____
ROOT
ATOM      1  O   LIG A   1      -6.559  -0.358   0.921  0.00  0.00    -0.245 OA
ATOM      2  C   LIG A   1      -5.306  -0.483   0.746  0.00  0.00    +0.337 A 
ATOM      3  O   LIG A   1      -4.360   0.017   1.621  0.00  0.00    -0.422 OA
ATOM      4  C   LIG A   1      -2.986   0.009   1.200  0.00  0.00    +0.146 A 
ATOM      5  C   LIG A   1      -1.975   0.089   2.171  0.00  0.00    +0.093 A 
ATOM      6  C   LIG A   1      -0.661   0.140   1.714  0.00  0.00    +0.132 A 
ATOM      7  C   LIG A   1      -0.503   0.453   0.338  0.00  0.00    +0.040 A 
ATOM      8  C   LIG A   1      -1.422   0.113  -0.629  0.00  0.00    +0.139 A 
ATOM      9  O   LIG A   1      -1.001   0.075  -1.927  0.00  0.00    -0.485 OA
ATOM     10  C   LIG A   1       0.439  -0.213  -2.177  0.00  0.00    +0.108 C 
ATOM     11  C   LIG A   1       1.485   0.434  -1.171  0.00  0.00    +0.040 C 
ATOM     12  C   LIG A   1       0.712   1.233  -0.125  0.00  0.00    +0.037 C 
ATOM     13  C   LIG A   1       1.564   1.369   1.102  0.00  0.00    +0.056 C 
ATOM     14  C   LIG A   1       1.898   0.333   2.130  0.00  0.00    +0.108 C 
ATOM     15  C   LIG A   1       3.070  -0.349   1.099  0.00  0.00    +0.048 C 
ATOM     16  C   LIG A   1       2.690  -0.477  -0.520  0.00  0.00    +0.012 C 
ATOM     17  O   LIG A   1       0.482  -0.189   2.516  0.00  0.00    -0.485 OA
ATOM     18  C   LIG A   1       2.547   0.941   3.372  0.00  0.00    +0.056 C 
ATOM     19  C   LIG A   1       0.710   0.419  -3.561  0.00  0.00    +0.056 C 
ATOM     20  C   LIG A   1       0.583  -1.731  -2.318  0.00  0.00    +0.056 C 
ATOM     21  C   LIG A   1      -2.714  -0.146  -0.183  0.00  0.00    +0.060 A 
ATOM     22  C   LIG A   1      -3.838  -0.567  -1.033  0.00  0.00    +0.022 A 
ATOM     23  C   LIG A   1      -4.751  -1.303  -0.352  0.00  0.00    +0.093 A 
ENDROOT
TORSDOF 0
