REMARK  Name = NuBBE_99
REMARK  13 active torsions:
REMARK  status: ('A' for Active; 'I' for Inactive)
REMARK    1  A    between atoms: C_8  and  O_24
REMARK    2  A    between atoms: C_10  and  C_22
REMARK    3  A    between atoms: C_12  and  C_15
REMARK    4  A    between atoms: C_15  and  C_16
REMARK    5  A    between atoms: C_16  and  O_17
REMARK    6  A    between atoms: O_17  and  C_18
REMARK    7  A    between atoms: C_20  and  O_21
REMARK    8  A    between atoms: O_24  and  C_25
REMARK    9  A    between atoms: C_28  and  C_36
REMARK   10  A    between atoms: C_30  and  O_35
REMARK   11  A    between atoms: C_32  and  O_34
REMARK   12  A    between atoms: C_36  and  O_37
REMARK   13  A    between atoms: C_38  and  O_40
REMARK                            x       y       z     vdW  Elec       q    Type
REMARK                         _______ _______ _______ _____ _____    ______ ____
ROOT
ATOM      1  C   LIG A   1      -2.151   0.842  -0.847  0.00  0.00    +0.107 C 
ATOM      2  C   LIG A   1      -2.345   0.691  -2.354  0.00  0.00    +0.038 A 
ATOM      3  C   LIG A   1      -2.842  -0.495  -2.885  0.00  0.00    -0.016 A 
ATOM      4  C   LIG A   1      -3.280  -1.572  -1.957  0.00  0.00    +0.053 C 
ATOM      5  C   LIG A   1      -2.321  -1.592  -0.717  0.00  0.00    +0.092 C 
ATOM      6  N   LIG A   1      -1.431  -0.402  -0.527  0.00  0.00    -0.268 NA
ATOM      7  C   LIG A   1      -0.624  -0.473   0.686  0.00  0.00    +0.200 C 
ATOM      8  C   LIG A   1      -1.088   0.596   1.745  0.00  0.00    +0.063 C 
ATOM      9  C   LIG A   1      -1.135   2.094   1.212  0.00  0.00    +0.041 C 
ATOM     10  C   LIG A   1      -1.488   2.129  -0.329  0.00  0.00    +0.034 C 
ATOM     11  C   LIG A   1      -2.455  -0.596  -4.244  0.00  0.00    +0.003 A 
ATOM     12  C   LIG A   1      -2.505  -1.634  -5.202  0.00  0.00    +0.010 A 
ATOM     13  C   LIG A   1      -1.778  -1.511  -6.389  0.00  0.00    +0.001 A 
ATOM     14  C   LIG A   1      -1.039  -0.359  -6.642  0.00  0.00    +0.002 A 
ATOM     15  C   LIG A   1      -1.015   0.704  -5.727  0.00  0.00    +0.026 A 
ATOM     16  C   LIG A   1      -1.720   0.557  -4.522  0.00  0.00    +0.047 A 
ATOM     17  N   LIG A   1      -1.757   1.370  -3.392  0.00  0.00    -0.356 N 
ATOM     18  H   LIG A   1      -1.216   2.217  -3.307  0.00  0.00    +0.166 HD
ENDROOT
BRANCH   9  19
ATOM     19  C   LIG A   1      -0.040   3.120   1.611  0.00  0.00    +0.074 C 
ATOM     20  C   LIG A   1       1.087   3.308   0.895  0.00  0.00    +0.194 C 
BRANCH  19  21
ATOM     21  C   LIG A   1      -0.365   4.040   2.775  0.00  0.00    +0.338 C 
ATOM     22  O   LIG A   1      -1.235   3.834   3.571  0.00  0.00    -0.245 OA
BRANCH  21  23
ATOM     23  O   LIG A   1       0.419   5.182   2.757  0.00  0.00    -0.465 OA
ATOM     24  C   LIG A   1       0.106   6.147   3.769  0.00  0.00    +0.280 C 
ENDBRANCH  21  23
ENDBRANCH  19  21
BRANCH  20  25
ATOM     25  O   LIG A   1       2.129   4.166   1.154  0.00  0.00    -0.514 OA
ATOM     26  H   LIG A   1       1.962   4.632   1.998  0.00  0.00    +0.291 HD
ENDBRANCH  20  25
ENDBRANCH   9  19
BRANCH   8  27
ATOM     27  C   LIG A   1      -0.494   0.299   3.120  0.00  0.00    -0.027 C 
ATOM     28  C   LIG A   1      -1.109  -0.427   4.073  0.00  0.00    +0.004 C 
ENDBRANCH   8  27
BRANCH   7  29
ATOM     29  O   LIG A   1       0.805  -0.405   0.412  0.00  0.00    -0.330 OA
BRANCH  29  30
ATOM     30  C   LIG A   1       1.334  -1.602  -0.238  0.00  0.00    +0.284 C 
ATOM     31  O   LIG A   1       1.102  -2.781   0.564  0.00  0.00    -0.341 OA
ATOM     32  C   LIG A   1       2.267  -3.374   1.174  0.00  0.00    +0.178 C 
ATOM     33  C   LIG A   1       3.112  -2.258   1.799  0.00  0.00    +0.177 C 
ATOM     34  C   LIG A   1       3.729  -1.399   0.681  0.00  0.00    +0.179 C 
ATOM     35  C   LIG A   1       2.856  -1.429  -0.596  0.00  0.00    +0.201 C 
BRANCH  34  36
ATOM     36  O   LIG A   1       3.942  -0.064   1.160  0.00  0.00    -0.386 OA
ATOM     37  H   LIG A   1       3.219   0.504   0.837  0.00  0.00    +0.210 HD
ENDBRANCH  34  36
BRANCH  33  38
ATOM     38  O   LIG A   1       4.136  -2.772   2.648  0.00  0.00    -0.387 OA
ATOM     39  H   LIG A   1       4.154  -2.192   3.433  0.00  0.00    +0.210 HD
ENDBRANCH  33  38
BRANCH  35  40
ATOM     40  O   LIG A   1       3.284  -2.524  -1.438  0.00  0.00    -0.384 OA
ATOM     41  H   LIG A   1       4.252  -2.626  -1.366  0.00  0.00    +0.210 HD
ENDBRANCH  35  40
BRANCH  32  42
ATOM     42  C   LIG A   1       1.771  -4.416   2.187  0.00  0.00    +0.190 C 
BRANCH  42  43
ATOM     43  O   LIG A   1       1.082  -3.800   3.275  0.00  0.00    -0.392 OA
ATOM     44  H   LIG A   1       0.731  -2.956   2.940  0.00  0.00    +0.209 HD
ENDBRANCH  42  43
ENDBRANCH  32  42
ENDBRANCH  29  30
ENDBRANCH   7  29
TORSDOF 12
