@<TRIPOS>MOLECULE
NuBBE_2017
 51 54 0 0 0
SMALL
GASTEIGER

@<TRIPOS>ATOM
      1 O          -3.5926   -0.4603    0.3163 O.2     1  LIG1       -0.2856
      2 C          -2.4323   -0.4319    0.7081 C.2     1  LIG1        0.2316
      3 C          -1.9670   -1.2772    1.9282 C.2     1  LIG1        0.1621
      4 O          -2.9566   -1.7243    2.7710 O.2     1  LIG1       -0.4918
      5 C          -2.5644   -2.0017    4.1044 C.3     1  LIG1        0.0789
      6 C          -0.6133   -1.4006    2.0866 C.2     1  LIG1       -0.0294
      7 C           0.3849   -1.0677    0.9775 C.3     1  LIG1        0.0282
      8 C           1.5387   -2.1231    0.9861 C.3     1  LIG1       -0.0230
      9 C           1.1819   -3.5750    0.7689 C.2     1  LIG1       -0.0902
     10 C           2.0697   -4.5783    0.6908 C.2     1  LIG1       -0.1026
     11 C           0.9974    0.3854    0.8954 C.3     1  LIG1       -0.0219
     12 H           1.9504    0.3422    0.3531 H       1  LIG1        0.0314
     13 C           1.2975    1.0525    2.2399 C.3     1  LIG1       -0.0609
     14 C           0.0054    1.2356    0.0007 C.3     1  LIG1        0.0267
     15 H          -0.0652    2.2243    0.4686 H       1  LIG1        0.0385
     16 C           0.4971    1.6553   -1.4082 C.ar    1  LIG1       -0.0371
     17 C           1.6324    2.4985   -1.5397 C.ar    1  LIG1       -0.0545
     18 C           2.1005    2.9123   -2.7979 C.ar    1  LIG1       -0.0159
     19 C           1.4168    2.4883   -3.9135 C.ar    1  LIG1        0.1662
     20 O           1.7316    2.7800   -5.2032 O.3     1  LIG1       -0.4526
     21 C           0.6854    2.0751   -5.9035 C.3     1  LIG1        0.2332
     22 O          -0.2389    1.4024   -5.0220 O.3     1  LIG1       -0.4526
     23 C           0.2973    1.7046   -3.8084 C.ar    1  LIG1        0.1665
     24 C          -0.1941    1.2908   -2.5839 C.ar    1  LIG1       -0.0126
     25 C          -1.3497    0.4330   -0.0231 C.3     1  LIG1        0.1675
     26 C          -0.4561   -0.9686   -0.2970 C.3     1  LIG1        0.1017
     27 H           0.2028   -0.8459   -1.1639 H       1  LIG1        0.0636
     28 O          -1.1992   -2.1360   -0.6561 O.3     1  LIG1       -0.3876
     29 O          -1.6218    1.0970    1.4145 O.3     1  LIG1       -0.3654
     30 C          -2.1997    2.4063    1.4057 C.3     1  LIG1        0.0379
     31 H          -3.4446   -2.3279    4.6656 H       1  LIG1        0.0660
     32 H          -2.1793   -1.0899    4.5720 H       1  LIG1        0.0660
     33 H          -1.8261   -2.8083    4.1509 H       1  LIG1        0.0660
     34 H          -0.2244   -1.8999    2.9707 H       1  LIG1        0.0616
     35 H           2.2892   -1.8405    0.2376 H       1  LIG1        0.0317
     36 H           2.0376   -2.0555    1.9648 H       1  LIG1        0.0317
     37 H           0.1288   -3.8371    0.7003 H       1  LIG1        0.0567
     38 H           3.1428   -4.4334    0.7766 H       1  LIG1        0.0532
     39 H           1.7257   -5.6014    0.5530 H       1  LIG1        0.0532
     40 H           0.5144    0.8887    2.9850 H       1  LIG1        0.0233
     41 H           1.4113    2.1365    2.1196 H       1  LIG1        0.0233
     42 H           2.2388    0.6747    2.6496 H       1  LIG1        0.0233
     43 H           2.1564    2.8636   -0.6577 H       1  LIG1        0.0622
     44 H           2.9713    3.5513   -2.8982 H       1  LIG1        0.0655
     45 H           1.1461    1.3308   -6.5642 H       1  LIG1        0.1166
     46 H           0.1290    2.7925   -6.5180 H       1  LIG1        0.1166
     47 H          -1.0953    0.6859   -2.5733 H       1  LIG1        0.0658
     48 H          -0.6556   -2.6830   -1.2501 H       1  LIG1        0.2100
     49 H          -3.2678    2.3601    1.6227 H       1  LIG1        0.0524
     50 H          -2.0236    2.9478    0.4734 H       1  LIG1        0.0524
     51 H          -1.7133    2.9517    2.2241 H       1  LIG1        0.0524
@<TRIPOS>BOND
     1     2     3    1
     2     4     5    1
     3     3     6    2
     4     6     7    1
     5     8     9    1
     6     9    10    2
     7     7    11    1
     8    11    14    1
     9    16    17   ar
    10    17    18   ar
    11    18    19   ar
    12    19    20    1
    13    20    21    1
    14    21    22    1
    15    19    23   ar
    16    22    23    1
    17    23    24   ar
    18    16    24   ar
    19    14    25    1
    20    25    26    1
    21     7    26    1
    22     2    25    1
    23    29    30    1
    24     1     2    2
    25     3     4    1
    26     7     8    1
    27    14    15    1
    28    14    16    1
    29    25    29    1
    30    26    27    1
    31    26    28    1
    32    11    13    1
    33    11    12    1
    34     5    31    1
    35     5    32    1
    36     5    33    1
    37     6    34    1
    38     8    35    1
    39     8    36    1
    40     9    37    1
    41    10    38    1
    42    10    39    1
    43    13    40    1
    44    13    41    1
    45    13    42    1
    46    17    43    1
    47    18    44    1
    48    21    45    1
    49    21    46    1
    50    24    47    1
    51    28    48    1
    52    30    49    1
    53    30    50    1
    54    30    51    1
