REMARK  Name = NuBBE_1993
REMARK  17 active torsions:
REMARK  status: ('A' for Active; 'I' for Inactive)
REMARK    1  A    between atoms: O_1  and  C_2
REMARK    2  A    between atoms: O_1  and  C_5
REMARK    3  A    between atoms: C_2  and  C_3
REMARK    4  A    between atoms: C_6  and  O_7
REMARK    5  A    between atoms: O_7  and  C_8
REMARK    6  A    between atoms: C_10  and  C_15
REMARK    7  A    between atoms: C_12  and  O_13
REMARK    8  A    between atoms: O_13  and  C_14
REMARK    9  A    between atoms: C_15  and  C_16
REMARK   10  A    between atoms: C_15  and  C_29
REMARK   11  A    between atoms: C_16  and  C_17
REMARK   12  A    between atoms: C_19  and  O_20
REMARK   13  A    between atoms: O_20  and  C_21
REMARK   14  A    between atoms: C_22  and  O_27
REMARK   15  A    between atoms: C_23  and  O_25
REMARK   16  A    between atoms: O_25  and  C_26
REMARK   17  A    between atoms: O_27  and  C_28
REMARK                            x       y       z     vdW  Elec       q    Type
REMARK                         _______ _______ _______ _____ _____    ______ ____
ROOT
ATOM      1  C   LIG A   1       0.184   2.719   0.386  0.00  0.00    +0.020 C 
ATOM      2  C   LIG A   1       0.350   4.245   0.006  0.00  0.00    +0.013 C 
ENDROOT
BRANCH   1   6
ATOM      3  C   LIG A   1      -1.190   0.288  -3.108  0.00  0.00    +0.204 A 
ATOM      4  C   LIG A   1      -0.234   1.349  -3.169  0.00  0.00    +0.166 A 
ATOM      5  C   LIG A   1       0.013   2.116  -1.988  0.00  0.00    +0.053 A 
ATOM      6  C   LIG A   1      -0.353   1.867  -0.751  0.00  0.00    -0.037 A 
ATOM      7  C   LIG A   1      -1.238   0.776  -0.660  0.00  0.00    +0.053 A 
ATOM      8  C   LIG A   1      -1.640   0.007  -1.813  0.00  0.00    +0.166 A 
BRANCH   4   9
ATOM      9  O   LIG A   1       0.509   1.669  -4.293  0.00  0.00    -0.491 OA
ATOM     10  C   LIG A   1       1.338   2.842  -4.090  0.00  0.00    +0.277 C 
ENDBRANCH   4   9
BRANCH   8  11
ATOM     11  O   LIG A   1      -2.446  -1.097  -1.602  0.00  0.00    -0.491 OA
ATOM     12  C   LIG A   1      -3.281  -1.048  -0.451  0.00  0.00    +0.277 C 
ENDBRANCH   8  11
BRANCH   3  13
ATOM     13  O   LIG A   1      -1.615  -0.334  -4.296  0.00  0.00    -0.481 OA
BRANCH  13  14
ATOM     14  C   LIG A   1      -2.966  -0.896  -4.346  0.00  0.00    +0.256 C 
BRANCH  14  15
ATOM     15  C   LIG A   1      -3.392  -1.671  -5.614  0.00  0.00    +0.006 C 
ATOM     16  C   LIG A   1      -3.245  -1.450  -6.928  0.00  0.00    +0.007 C 
ENDBRANCH  14  15
ENDBRANCH  13  14
ENDBRANCH   3  13
ENDBRANCH   1   6
BRANCH   1  17
ATOM     17  C   LIG A   1       1.601   2.254   0.951  0.00  0.00    +0.043 C 
BRANCH  17  18
ATOM     18  C   LIG A   1       1.697   0.934   1.704  0.00  0.00    -0.040 A 
ATOM     19  C   LIG A   1       2.898   0.487   2.254  0.00  0.00    +0.053 A 
ATOM     20  C   LIG A   1       2.928  -0.682   3.053  0.00  0.00    +0.165 A 
ATOM     21  C   LIG A   1       1.746  -1.401   3.388  0.00  0.00    +0.203 A 
ATOM     22  C   LIG A   1       0.576  -1.036   2.740  0.00  0.00    +0.165 A 
ATOM     23  C   LIG A   1       0.588   0.129   1.950  0.00  0.00    +0.053 A 
BRANCH  20  24
ATOM     24  O   LIG A   1       4.173  -1.010   3.568  0.00  0.00    -0.491 OA
ATOM     25  C   LIG A   1       4.451  -2.411   3.689  0.00  0.00    +0.277 C 
ENDBRANCH  20  24
BRANCH  22  26
ATOM     26  O   LIG A   1      -0.650  -1.639   2.702  0.00  0.00    -0.491 OA
ATOM     27  C   LIG A   1      -1.225  -1.978   3.938  0.00  0.00    +0.277 C 
ENDBRANCH  22  26
BRANCH  21  28
ATOM     28  O   LIG A   1       1.946  -2.216   4.447  0.00  0.00    -0.488 OA
ATOM     29  C   LIG A   1       1.268  -3.343   4.938  0.00  0.00    +0.277 C 
ENDBRANCH  21  28
ENDBRANCH  17  18
ENDBRANCH   1  17
TORSDOF 11
