REMARK  Name = NuBBE_987
REMARK  28 active torsions:
REMARK  status: ('A' for Active; 'I' for Inactive)
REMARK    1  A    between atoms: C_1  and  C_2
REMARK    2  A    between atoms: C_5  and  O_7
REMARK    3  A    between atoms: O_7  and  C_8
REMARK    4  A    between atoms: C_8  and  C_9
REMARK    5  A    between atoms: C_9  and  C_10
REMARK    6  A    between atoms: C_10  and  C_11
REMARK    7  A    between atoms: C_11  and  C_12
REMARK    8  A    between atoms: C_12  and  C_13
REMARK    9  A    between atoms: C_13  and  C_14
REMARK   10  A    between atoms: C_14  and  C_15
REMARK   11  A    between atoms: C_15  and  C_16
REMARK   12  A    between atoms: C_16  and  C_17
REMARK   13  A    between atoms: C_17  and  C_18
REMARK   14  A    between atoms: C_18  and  C_19
REMARK   15  A    between atoms: C_19  and  C_20
REMARK   16  A    between atoms: C_20  and  C_21
REMARK   17  A    between atoms: C_21  and  C_22
REMARK   18  A    between atoms: C_22  and  C_23
REMARK   19  A    between atoms: C_32  and  O_34
REMARK   20  A    between atoms: C_35  and  C_36
REMARK   21  A    between atoms: C_40  and  C_42
REMARK   22  A    between atoms: C_42  and  C_44
REMARK   23  A    between atoms: C_42  and  C_45
REMARK   24  A    between atoms: C_45  and  C_46
REMARK   25  A    between atoms: C_46  and  C_47
REMARK   26  A    between atoms: C_47  and  C_48
REMARK   27  A    between atoms: C_48  and  C_49
REMARK   28  A    between atoms: C_48  and  C_50
REMARK                            x       y       z     vdW  Elec       q    Type
REMARK                         _______ _______ _______ _____ _____    ______ ____
ROOT
ATOM      1  C   LIG A   1      -0.188   4.024  -1.478  0.00  0.00    +0.016 C 
ATOM      2  C   LIG A   1       1.124   4.767  -1.732  0.00  0.00    -0.008 C 
ATOM      3  C   LIG A   1       2.062   4.095  -2.781  0.00  0.00    -0.064 C 
ATOM      4  C   LIG A   1       1.559   3.953  -4.231  0.00  0.00    +0.075 C 
ATOM      5  C   LIG A   1       0.117   4.430  -4.510  0.00  0.00    +0.180 C 
ATOM      6  C   LIG A   1      -0.022   5.839  -3.835  0.00  0.00    +0.046 C 
ATOM      7  C   LIG A   1       0.690   6.086  -2.430  0.00  0.00    +0.015 C 
ATOM      8  C   LIG A   1       3.303   3.652  -2.450  0.00  0.00    -0.027 C 
ATOM      9  C   LIG A   1       3.786   3.446  -1.008  0.00  0.00    +0.031 C 
ATOM     10  C   LIG A   1       2.513   3.380  -0.119  0.00  0.00    +0.001 C 
ATOM     11  C   LIG A   1       1.844   4.792  -0.271  0.00  0.00    +0.005 C 
ATOM     12  C   LIG A   1       0.929   5.171   0.920  0.00  0.00    +0.036 C 
ATOM     13  C   LIG A   1       0.922   4.253   2.203  0.00  0.00    +0.121 C 
ATOM     14  C   LIG A   1       1.077   2.650   1.973  0.00  0.00    +0.000 C 
ATOM     15  C   LIG A   1      -0.249   2.093   1.404  0.00  0.00    +0.014 C 
ATOM     16  C   LIG A   1       2.436   2.568   1.211  0.00  0.00    +0.001 C 
ATOM     17  C   LIG A   1       3.448   2.795   2.369  0.00  0.00    +0.005 C 
ATOM     18  C   LIG A   1       2.785   2.249   3.667  0.00  0.00    +0.005 C 
ATOM     19  C   LIG A   1       1.453   1.667   3.233  0.00  0.00    +0.001 C 
ENDROOT
BRANCH  19  20
ATOM     20  C   LIG A   1       1.565  -0.008   3.048  0.00  0.00    -0.010 C 
ATOM     21  C   LIG A   1       1.489  -0.778   4.408  0.00  0.00    +0.008 C 
BRANCH  20  22
ATOM     22  C   LIG A   1       2.736  -0.793   2.178  0.00  0.00    +0.008 C 
BRANCH  22  23
ATOM     23  C   LIG A   1       4.282  -0.767   2.620  0.00  0.00    +0.030 C 
BRANCH  23  24
ATOM     24  C   LIG A   1       5.535  -1.504   1.909  0.00  0.00    -0.074 C 
ATOM     25  C   LIG A   1       6.363  -0.831   1.072  0.00  0.00    +0.008 C 
BRANCH  24  26
ATOM     26  C   LIG A   1       6.015  -2.879   2.509  0.00  0.00    +0.008 C 
ATOM     27  C   LIG A   1       6.199  -4.126   1.604  0.00  0.00    +0.012 C 
ATOM     28  C   LIG A   1       7.295  -2.825   3.388  0.00  0.00    +0.012 C 
ENDBRANCH  24  26
ENDBRANCH  23  24
ENDBRANCH  22  23
ENDBRANCH  20  22
ENDBRANCH  19  20
BRANCH  13  29
ATOM     29  O   LIG A   1      -0.251   4.573   2.957  0.00  0.00    -0.391 OA
ATOM     30  H   LIG A   1      -0.520   5.484   2.726  0.00  0.00    +0.210 HD
ENDBRANCH  13  29
BRANCH   5  31
ATOM     31  O   LIG A   1      -0.844   3.394  -4.038  0.00  0.00    -0.461 OA
BRANCH  31  32
ATOM     32  C   LIG A   1      -1.290   2.353  -4.698  0.00  0.00    +0.307 C 
ATOM     33  O   LIG A   1      -1.747   2.383  -5.963  0.00  0.00    -0.251 OA
BRANCH  32  34
ATOM     34  C   LIG A   1      -1.492   1.136  -3.757  0.00  0.00    +0.120 C 
BRANCH  34  35
ATOM     35  C   LIG A   1      -0.788  -0.229  -4.068  0.00  0.00    +0.011 C 
BRANCH  35  36
ATOM     36  C   LIG A   1      -1.142  -1.476  -3.166  0.00  0.00    +0.000 C 
BRANCH  36  37
ATOM     37  C   LIG A   1      -2.583  -2.119  -3.169  0.00  0.00    +0.000 C 
BRANCH  37  38
ATOM     38  C   LIG A   1      -3.624  -1.137  -2.601  0.00  0.00    -0.000 C 
BRANCH  38  39
ATOM     39  C   LIG A   1      -5.193  -1.277  -2.594  0.00  0.00    -0.000 C 
BRANCH  39  40
ATOM     40  C   LIG A   1      -5.649  -2.487  -1.722  0.00  0.00    -0.000 C 
BRANCH  40  41
ATOM     41  C   LIG A   1      -7.069  -3.018  -1.283  0.00  0.00    -0.000 C 
BRANCH  41  42
ATOM     42  C   LIG A   1      -6.992  -4.341  -0.273  0.00  0.00    -0.000 C 
BRANCH  42  43
ATOM     43  C   LIG A   1      -6.246  -4.089   1.100  0.00  0.00    -0.000 C 
BRANCH  43  44
ATOM     44  C   LIG A   1      -5.899  -5.072   2.299  0.00  0.00    -0.000 C 
BRANCH  44  45
ATOM     45  C   LIG A   1      -4.881  -6.270   2.311  0.00  0.00    -0.000 C 
BRANCH  45  46
ATOM     46  C   LIG A   1      -3.350  -6.186   2.024  0.00  0.00    -0.000 C 
BRANCH  46  47
ATOM     47  C   LIG A   1      -2.797  -5.959   0.613  0.00  0.00    -0.003 C 
ATOM     48  C   LIG A   1      -3.003  -4.590   0.017  0.00  0.00    +0.004 C 
ENDBRANCH  46  47
ENDBRANCH  45  46
ENDBRANCH  44  45
ENDBRANCH  43  44
ENDBRANCH  42  43
ENDBRANCH  41  42
ENDBRANCH  40  41
ENDBRANCH  39  40
ENDBRANCH  38  39
ENDBRANCH  37  38
ENDBRANCH  36  37
ENDBRANCH  35  36
ENDBRANCH  34  35
ENDBRANCH  32  34
ENDBRANCH  31  32
ENDBRANCH   5  31
TORSDOF 22
