@<TRIPOS>MOLECULE
NuBBE_1814
 49 52 0 0 0
SMALL
GASTEIGER

@<TRIPOS>ATOM
      1 O          -4.6060   -1.3132    0.2111 O.2     1  LIG1       -0.2890
      2 C          -3.3883   -1.3116    0.0607 C.2     1  LIG1        0.1991
      3 C          -2.6580   -2.5635   -0.1941 C.ar    1  LIG1        0.0620
      4 C          -3.3096   -3.7149   -0.6513 C.ar    1  LIG1       -0.0442
      5 C          -2.5598   -4.8600   -0.9448 C.ar    1  LIG1       -0.0183
      6 C          -1.1713   -4.8427   -0.7689 C.ar    1  LIG1        0.1351
      7 O          -0.4869   -6.0531   -1.0350 O.3     1  LIG1       -0.4259
      8 C           0.8971   -6.2066   -0.9009 C.2     1  LIG1        0.3092
      9 C           1.2620   -7.6415   -1.0879 C.3     1  LIG1        0.0336
     10 O           1.7258   -5.3420   -0.6508 O.2     1  LIG1       -0.2507
     11 C          -0.5383   -3.6908   -0.3120 C.ar    1  LIG1        0.0232
     12 C          -1.2801   -2.5570   -0.0107 C.ar    1  LIG1        0.1356
     13 O          -0.5504   -1.4934    0.4355 O.3     1  LIG1       -0.4803
     14 C          -1.3122   -0.4033    0.9667 C.3     1  LIG1        0.1588
     15 H          -1.6165   -0.6574    1.9916 H       1  LIG1        0.0816
     16 C          -2.5305   -0.0610    0.1120 C.3     1  LIG1        0.1622
     17 H          -3.1210    0.7484    0.5590 H       1  LIG1        0.0721
     18 O          -2.1150    0.3020   -1.2061 O.3     1  LIG1       -0.3599
     19 C          -1.3391    1.5113   -1.2326 C.3     1  LIG1        0.0777
     20 C          -0.3394    1.6794   -0.1023 C.ar    1  LIG1        0.0309
     21 C          -0.3605    0.7750    0.9809 C.ar    1  LIG1        0.0047
     22 C           0.5471    0.9271    2.0394 C.ar    1  LIG1       -0.0509
     23 C           1.4360    2.0041    2.0698 C.ar    1  LIG1       -0.0152
     24 C           1.4729    2.9146    1.0104 C.ar    1  LIG1        0.1741
     25 O           2.2570    4.0934    1.1373 O.3     1  LIG1       -0.4223
     26 C           3.5244    4.0618    1.7270 C.2     1  LIG1        0.3093
     27 C           3.7338    5.2720    2.6015 C.3     1  LIG1        0.0336
     28 O           4.3759    3.1976    1.5497 O.2     1  LIG1       -0.2507
     29 C           0.5892    2.7504   -0.0766 C.ar    1  LIG1        0.1794
     30 O           0.7043    3.5500   -1.2334 O.3     1  LIG1       -0.4219
     31 C           0.3556    4.8823   -1.1572 C.2     1  LIG1        0.3093
     32 C           0.5046    5.5535   -2.4738 C.3     1  LIG1        0.0336
     33 O          -0.0897    5.4350   -0.1698 O.2     1  LIG1       -0.2507
     34 H          -4.3882   -3.7138   -0.7967 H       1  LIG1        0.0627
     35 H          -3.0599   -5.7528   -1.3131 H       1  LIG1        0.0654
     36 H           0.7797   -8.2456   -0.3166 H       1  LIG1        0.0342
     37 H           2.3468   -7.7366   -0.9750 H       1  LIG1        0.0342
     38 H           0.9836   -7.9722   -2.0896 H       1  LIG1        0.0342
     39 H           0.5329   -3.6241   -0.1724 H       1  LIG1        0.0691
     40 H          -2.0468    2.3475   -1.2249 H       1  LIG1        0.0611
     41 H          -0.8147    1.5102   -2.1933 H       1  LIG1        0.0611
     42 H           0.5630    0.2003    2.8501 H       1  LIG1        0.0623
     43 H           2.0870    2.1173    2.9314 H       1  LIG1        0.0656
     44 H           2.7819    5.7572    2.8366 H       1  LIG1        0.0342
     45 H           4.3929    5.9830    2.1001 H       1  LIG1        0.0342
     46 H           4.1810    4.9637    3.5544 H       1  LIG1        0.0342
     47 H          -0.3406    5.3118   -3.1240 H       1  LIG1        0.0342
     48 H           1.4452    5.2642   -2.9710 H       1  LIG1        0.0342
     49 H           0.5431    6.6440   -2.3401 H       1  LIG1        0.0342
@<TRIPOS>BOND
     1     1     2    2
     2     2     3    1
     3     3     4   ar
     4     4     5   ar
     5     5     6   ar
     6     6     7    1
     7     7     8    1
     8     8     9    1
     9     8    10    2
    10     6    11   ar
    11    11    12   ar
    12     3    12   ar
    13    12    13    1
    14    13    14    1
    15    14    15    1
    16    14    16    1
    17    16    17    1
    18     2    16    1
    19    16    18    1
    20    18    19    1
    21    19    20    1
    22    20    21   ar
    23    14    21    1
    24    21    22   ar
    25    22    23   ar
    26    23    24   ar
    27    24    25    1
    28    25    26    1
    29    26    27    1
    30    26    28    2
    31    24    29   ar
    32    20    29   ar
    33    29    30    1
    34    30    31    1
    35    31    32    1
    36    31    33    2
    37     4    34    1
    38     5    35    1
    39     9    36    1
    40     9    37    1
    41     9    38    1
    42    11    39    1
    43    19    40    1
    44    19    41    1
    45    22    42    1
    46    23    43    1
    47    27    44    1
    48    27    45    1
    49    27    46    1
    50    32    47    1
    51    32    48    1
    52    32    49    1
