@<TRIPOS>MOLECULE
NuBBE_445
 123 129 0 0 0
SMALL
GASTEIGER

@<TRIPOS>ATOM
      1 C          -3.7364   -2.0815   -0.2758 C.3     1  LIG1       -0.0572
      2 C          -2.6822   -2.5851   -1.2945 C.3     1  LIG1       -0.0052
      3 C          -2.8118   -1.8049   -2.6739 C.3     1  LIG1        0.0672
      4 H          -3.8448   -1.8969   -3.0353 H       1  LIG1        0.0602
      5 C          -1.8370   -2.4765   -3.6549 C.3     1  LIG1       -0.0255
      6 C          -0.3600   -2.5773   -3.1867 C.3     1  LIG1       -0.0447
      7 C          -0.0455   -2.8525   -1.6531 C.3     1  LIG1       -0.0249
      8 C          -1.2173   -2.3161   -0.7663 C.3     1  LIG1       -0.0278
      9 H          -1.1440   -1.2219   -0.8067 H       1  LIG1        0.0312
     10 C          -0.9467   -2.6064    0.7127 C.3     1  LIG1       -0.0486
     11 C           0.3125   -1.8641    1.2003 C.3     1  LIG1       -0.0457
     12 C           1.6477   -2.1754    0.4551 C.3     1  LIG1       -0.0090
     13 C           1.3487   -2.1292   -1.1258 C.3     1  LIG1       -0.0252
     14 H           2.1747   -2.6689   -1.6122 H       1  LIG1        0.0315
     15 C           1.4239   -0.6867   -1.6762 C.3     1  LIG1       -0.0306
     16 C           1.9894    0.3999   -0.8367 C.2     1  LIG1       -0.0831
     17 C           2.5714    0.3025    0.3709 C.2     1  LIG1       -0.0519
     18 C           2.8417   -1.1028    0.9341 C.3     1  LIG1        0.0944
     19 C           3.0326   -1.0794    2.4985 C.3     1  LIG1       -0.0319
     20 C           3.6555    0.1863    3.1216 C.3     1  LIG1       -0.0354
     21 C           3.0378    1.5177    2.6209 C.3     1  LIG1        0.0746
     22 C           3.1767    1.5397    1.0748 C.3     1  LIG1       -0.0003
     23 H           4.2618    1.4340    0.8993 H       1  LIG1        0.0359
     24 C           2.8567    2.9338    0.4213 C.3     1  LIG1       -0.0337
     25 H           3.2011    2.8799   -0.6222 H       1  LIG1        0.0307
     26 C           3.7032    4.0803    1.0363 C.3     1  LIG1       -0.0407
     27 H           4.7567    3.9079    0.7691 H       1  LIG1        0.0301
     28 C           3.6200    4.0567    2.5692 C.3     1  LIG1       -0.0492
     29 C           3.9101    2.6824    3.2065 C.3     1  LIG1       -0.0364
     30 C           3.3424    5.4584    0.4294 C.3     1  LIG1       -0.0622
     31 C           1.3478    3.2451    0.3713 C.3     1  LIG1       -0.0616
     32 C           1.5887    1.6921    3.1835 C.2     1  LIG1        0.3161
     33 O           0.9316    0.5209    3.4045 O.3     1  LIG1       -0.4318
     34 C           0.4082    0.2775    4.7315 C.3     1  LIG1        0.2337
     35 H           1.2737    0.1568    5.3923 H       1  LIG1        0.1085
     36 C          -0.5357    1.3650    5.3009 C.3     1  LIG1        0.1455
     37 H          -0.0396    2.3344    5.3245 H       1  LIG1        0.0683
     38 C          -1.8538    1.4378    4.4943 C.3     1  LIG1        0.1152
     39 H          -2.6858    1.6968    5.1615 H       1  LIG1        0.0648
     40 C          -2.1586    0.0904    3.8055 C.3     1  LIG1        0.1120
     41 H          -1.6307    0.0778    2.8451 H       1  LIG1        0.0647
     42 C          -1.6500   -1.0283    4.7262 C.3     1  LIG1        0.1140
     43 H          -2.0032   -0.8871    5.7578 H       1  LIG1        0.0647
     44 O          -0.2054   -1.0331    4.7367 O.3     1  LIG1       -0.3312
     45 C          -2.0959   -2.4218    4.2927 C.3     1  LIG1        0.0731
     46 O          -1.6689   -3.4098    5.2316 O.3     1  LIG1       -0.3924
     47 O          -3.5494   -0.0361    3.5136 O.3     1  LIG1       -0.3865
     48 O          -1.8176    2.4833    3.5109 O.3     1  LIG1       -0.3864
     49 O          -0.8078    1.0468    6.6781 O.3     1  LIG1       -0.3829
     50 O           1.0579    2.7463    3.4193 O.2     1  LIG1       -0.2501
     51 C           4.2314   -1.5751    0.3981 C.2     1  LIG1        0.3156
     52 O           4.8780   -0.7109   -0.4106 O.3     1  LIG1       -0.4800
     53 O           4.8036   -2.6152    0.6934 O.2     1  LIG1       -0.2500
     54 C           2.0899   -3.6043    0.8774 C.3     1  LIG1       -0.0580
     55 C           0.1461   -4.3954   -1.5487 C.3     1  LIG1       -0.0590
     56 O          -2.5175   -0.3933   -2.5262 O.3     1  LIG1       -0.3449
     57 C          -2.9481    0.5085   -3.5903 C.3     1  LIG1        0.1882
     58 H          -4.0161    0.3317   -3.7706 H       1  LIG1        0.0937
     59 O          -2.2170    0.2567   -4.7974 O.3     1  LIG1       -0.3405
     60 C          -2.5040    1.2028   -5.8414 C.3     1  LIG1        0.1130
     61 H          -3.5924    1.3096   -5.9435 H       1  LIG1        0.0647
     62 C          -1.8533    2.5375   -5.4717 C.3     1  LIG1        0.1119
     63 H          -0.7753    2.4273   -5.2987 H       1  LIG1        0.0647
     64 C          -2.5424    3.0408   -4.2038 C.3     1  LIG1        0.1141
     65 H          -3.5160    3.4656   -4.4818 H       1  LIG1        0.0648
     66 C          -2.7316    1.9817   -3.0982 C.3     1  LIG1        0.1341
     67 H          -1.8799    2.0108   -2.4094 H       1  LIG1        0.0671
     68 O          -3.8694    2.4147   -2.3146 O.3     1  LIG1       -0.3841
     69 O          -1.8170    4.1612   -3.6552 O.3     1  LIG1       -0.3864
     70 O          -2.0290    3.5519   -6.4717 O.3     1  LIG1       -0.3865
     71 C          -1.9690    0.6457   -7.1659 C.3     1  LIG1        0.0730
     72 O          -2.6190   -0.5830   -7.4827 O.3     1  LIG1       -0.3924
     73 C          -3.0480   -4.0846   -1.4811 C.3     1  LIG1       -0.0572
     74 H          -3.4924   -1.0992    0.1341 H       1  LIG1        0.0236
     75 H          -3.8207   -2.7829    0.5685 H       1  LIG1        0.0236
     76 H          -4.7346   -2.0324   -0.7254 H       1  LIG1        0.0236
     77 H          -1.8505   -1.9688   -4.6209 H       1  LIG1        0.0290
     78 H          -2.2111   -3.4753   -3.9038 H       1  LIG1        0.0290
     79 H           0.1392   -1.6753   -3.5413 H       1  LIG1        0.0271
     80 H           0.0907   -3.3796   -3.7892 H       1  LIG1        0.0271
     81 H          -0.8918   -3.6760    0.9303 H       1  LIG1        0.0268
     82 H          -1.7759   -2.2317    1.3160 H       1  LIG1        0.0268
     83 H           0.4146   -2.0964    2.2635 H       1  LIG1        0.0271
     84 H           0.1037   -0.7899    1.1343 H       1  LIG1        0.0271
     85 H           0.4306   -0.3260   -1.9573 H       1  LIG1        0.0310
     86 H           2.0130   -0.7108   -2.6033 H       1  LIG1        0.0310
     87 H           1.9193    1.3595   -1.3394 H       1  LIG1        0.0572
     88 H           3.6574   -1.9180    2.8305 H       1  LIG1        0.0279
     89 H           2.0909   -1.2743    3.0017 H       1  LIG1        0.0279
     90 H           4.7342    0.1753    2.9118 H       1  LIG1        0.0276
     91 H           3.5723    0.1258    4.2170 H       1  LIG1        0.0276
     92 H           2.6196    4.3687    2.8682 H       1  LIG1        0.0268
     93 H           4.3091    4.7966    2.9943 H       1  LIG1        0.0268
     94 H           3.7478    2.7624    4.2911 H       1  LIG1        0.0276
     95 H           4.9820    2.4553    3.0929 H       1  LIG1        0.0276
     96 H           3.8396    6.2817    0.9534 H       1  LIG1        0.0233
     97 H           2.2682    5.6704    0.4457 H       1  LIG1        0.0233
     98 H           3.6540    5.5099   -0.6225 H       1  LIG1        0.0233
     99 H           1.0095    3.8710    1.1987 H       1  LIG1        0.0233
    100 H           0.7283    2.3447    0.3831 H       1  LIG1        0.0233
    101 H           1.1117    3.7742   -0.5595 H       1  LIG1        0.0233
    102 H          -3.1801   -2.5055    4.1809 H       1  LIG1        0.0584
    103 H          -1.6146   -2.6764    3.3539 H       1  LIG1        0.0584
    104 H          -0.6942   -3.3974    5.1961 H       1  LIG1        0.2095
    105 H          -3.6190   -0.4032    2.6123 H       1  LIG1        0.2100
    106 H          -0.8896    2.6565    3.2533 H       1  LIG1        0.2100
    107 H          -1.3752    1.7541    7.0310 H       1  LIG1        0.2102
    108 H           5.7186   -1.1653   -0.6223 H       1  LIG1        0.2951
    109 H           1.2584   -4.3014    0.9739 H       1  LIG1        0.0236
    110 H           2.5725   -3.6090    1.8598 H       1  LIG1        0.0236
    111 H           2.7955   -4.0352    0.1600 H       1  LIG1        0.0236
    112 H          -0.5216   -4.9493   -2.2133 H       1  LIG1        0.0235
    113 H          -0.0253   -4.8029   -0.5540 H       1  LIG1        0.0235
    114 H           1.1581   -4.6834   -1.8552 H       1  LIG1        0.0235
    115 H          -3.7004    3.3537   -2.0995 H       1  LIG1        0.2101
    116 H          -1.7305    4.8105   -4.3808 H       1  LIG1        0.2100
    117 H          -1.6627    3.2432   -7.3185 H       1  LIG1        0.2100
    118 H          -0.8930    0.4522   -7.1179 H       1  LIG1        0.0584
    119 H          -2.1660    1.3317   -7.9948 H       1  LIG1        0.0584
    120 H          -2.4423   -1.1823   -6.7343 H       1  LIG1        0.2095
    121 H          -2.8871   -4.6601   -0.5637 H       1  LIG1        0.0236
    122 H          -2.5015   -4.5942   -2.2718 H       1  LIG1        0.0236
    123 H          -4.1071   -4.1883   -1.7546 H       1  LIG1        0.0236
@<TRIPOS>BOND
     1     2     3    1
     2     3     5    1
     3     5     6    1
     4     6     7    1
     5     7     8    1
     6     8    10    1
     7    10    11    1
     8    11    12    1
     9    12    13    1
    10    13    15    1
    11    15    16    1
    12    16    17    2
    13    17    18    1
    14    18    19    1
    15    19    20    1
    16    20    21    1
    17    21    22    1
    18    17    22    1
    19    22    24    1
    20    24    26    1
    21    26    28    1
    22    28    29    1
    23    29    21    1
    24    32    33    1
    25    33    34    1
    26    34    35    1
    27    34    36    1
    28    36    38    1
    29    38    40    1
    30    40    41    1
    31    40    42    1
    32    42    44    1
    33    34    44    1
    34    45    46    1
    35    40    47    1
    36    32    50    2
    37    12    18    1
    38    51    52    1
    39    51    53    2
    40    13     7    1
    41    57    59    1
    42    59    60    1
    43    60    61    1
    44    60    62    1
    45    62    64    1
    46    64    65    1
    47    64    66    1
    48    57    66    1
    49    64    69    1
    50    60    71    1
    51    71    72    1
    52     8     2    1
    53     1     2    1
    54     2    73    1
    55     7    55    1
    56     8     9    1
    57    12    54    1
    58    13    14    1
    59    18    51    1
    60    21    32    1
    61    22    23    1
    62     3    56    1
    63     3     4    1
    64    24    31    1
    65    24    25    1
    66    26    30    1
    67    26    27    1
    68    62    70    1
    69    62    63    1
    70    66    68    1
    71    66    67    1
    72    36    49    1
    73    36    37    1
    74    38    48    1
    75    38    39    1
    76    42    45    1
    77    42    43    1
    78    57    58    1
    79    57    56    1
    80     1    74    1
    81     1    75    1
    82     1    76    1
    83     5    77    1
    84     5    78    1
    85     6    79    1
    86     6    80    1
    87    10    81    1
    88    10    82    1
    89    11    83    1
    90    11    84    1
    91    15    85    1
    92    15    86    1
    93    16    87    1
    94    19    88    1
    95    19    89    1
    96    20    90    1
    97    20    91    1
    98    28    92    1
    99    28    93    1
   100    29    94    1
   101    29    95    1
   102    30    96    1
   103    30    97    1
   104    30    98    1
   105    31    99    1
   106    31   100    1
   107    31   101    1
   108    45   102    1
   109    45   103    1
   110    46   104    1
   111    47   105    1
   112    48   106    1
   113    49   107    1
   114    52   108    1
   115    54   109    1
   116    54   110    1
   117    54   111    1
   118    55   112    1
   119    55   113    1
   120    55   114    1
   121    68   115    1
   122    69   116    1
   123    70   117    1
   124    71   118    1
   125    71   119    1
   126    72   120    1
   127    73   121    1
   128    73   122    1
   129    73   123    1
