@<TRIPOS>MOLECULE
NuBBE_1495
 39 39 0 0 0
SMALL
GASTEIGER

@<TRIPOS>ATOM
      1 C           0.2995   -0.0379   -2.8831 C.2     1  LIG1       -0.0763
      2 C           1.1336   -0.8418   -3.5654 C.2     1  LIG1       -0.0994
      3 C          -0.4280    1.0829   -3.5775 C.3     1  LIG1       -0.0438
      4 C           0.0714   -0.2300   -1.3832 C.3     1  LIG1       -0.0167
      5 H           0.5389   -1.1836   -1.1081 H       1  LIG1        0.0348
      6 C           0.7508    0.9052   -0.5610 C.3     1  LIG1       -0.0426
      7 C           1.8799    0.4850    0.4055 C.3     1  LIG1       -0.0315
      8 C           1.6944   -0.7196    1.3103 C.2     1  LIG1       -0.0765
      9 C           0.9025   -0.7894    2.4018 C.2     1  LIG1       -0.0847
     10 C          -0.0243    0.2547    2.9775 C.3     1  LIG1       -0.0308
     11 C          -1.5180   -0.1101    2.7979 C.3     1  LIG1       -0.0286
     12 C          -1.9632    0.1818    1.3778 C.2     1  LIG1       -0.0762
     13 C          -1.6117   -0.6865    0.4084 C.2     1  LIG1       -0.0845
     14 C          -1.4463   -0.3797   -1.0535 C.3     1  LIG1       -0.0280
     15 C          -2.5709    1.5409    1.1667 C.3     1  LIG1       -0.0438
     16 C           2.5480   -1.9107    0.9400 C.3     1  LIG1       -0.0438
     17 H           1.3048   -0.7133   -4.6301 H       1  LIG1        0.0534
     18 H           1.6701   -1.6512   -3.0793 H       1  LIG1        0.0534
     19 H          -0.0796    1.2185   -4.6073 H       1  LIG1        0.0274
     20 H          -0.2749    2.0322   -3.0557 H       1  LIG1        0.0274
     21 H          -1.5019    0.8772   -3.6204 H       1  LIG1        0.0274
     22 H           0.0089    1.4793    0.0007 H       1  LIG1        0.0274
     23 H           1.1966    1.6445   -1.2405 H       1  LIG1        0.0274
     24 H           2.1298    1.3508    1.0336 H       1  LIG1        0.0310
     25 H           2.7812    0.3231   -0.2020 H       1  LIG1        0.0310
     26 H           0.8918   -1.7232    2.9653 H       1  LIG1        0.0572
     27 H           0.1866    1.2460    2.5608 H       1  LIG1        0.0310
     28 H           0.1888    0.3237    4.0515 H       1  LIG1        0.0310
     29 H          -2.1211    0.4792    3.4995 H       1  LIG1        0.0313
     30 H          -1.6960   -1.1628    3.0523 H       1  LIG1        0.0313
     31 H          -1.1824   -1.6457    0.7002 H       1  LIG1        0.0572
     32 H          -1.9897    0.5239   -1.3419 H       1  LIG1        0.0313
     33 H          -1.8782   -1.2031   -1.6355 H       1  LIG1        0.0313
     34 H          -3.4661    1.6463    1.7891 H       1  LIG1        0.0274
     35 H          -2.8829    1.7187    0.1354 H       1  LIG1        0.0274
     36 H          -1.8639    2.3277    1.4476 H       1  LIG1        0.0274
     37 H           2.3355   -2.2353   -0.0831 H       1  LIG1        0.0274
     38 H           2.3767   -2.7688    1.5985 H       1  LIG1        0.0274
     39 H           3.6093   -1.6490    1.0074 H       1  LIG1        0.0274
@<TRIPOS>BOND
     1     1     2    2
     2     1     3    1
     3     4     6    1
     4     6     7    1
     5     7     8    1
     6     8     9    2
     7     9    10    1
     8    10    11    1
     9    11    12    1
    10    12    13    2
    11    13    14    1
    12     4    14    1
    13    12    15    1
    14     8    16    1
    15     4     5    1
    16     4     1    1
    17     2    17    1
    18     2    18    1
    19     3    19    1
    20     3    20    1
    21     3    21    1
    22     6    22    1
    23     6    23    1
    24     7    24    1
    25     7    25    1
    26     9    26    1
    27    10    27    1
    28    10    28    1
    29    11    29    1
    30    11    30    1
    31    13    31    1
    32    14    32    1
    33    14    33    1
    34    15    34    1
    35    15    35    1
    36    15    36    1
    37    16    37    1
    38    16    38    1
    39    16    39    1
