REMARK  Name = NuBBE_1063
REMARK  9 active torsions:
REMARK  status: ('A' for Active; 'I' for Inactive)
REMARK    1  A    between atoms: O_1  and  C_2
REMARK    2  A    between atoms: C_6  and  C_7
REMARK    3  A    between atoms: C_11  and  C_28
REMARK    4  A    between atoms: C_12  and  C_13
REMARK    5  A    between atoms: C_16  and  C_25
REMARK    6  A    between atoms: C_19  and  C_21
REMARK    7  A    between atoms: C_22  and  C_24
REMARK    8  A    between atoms: C_33  and  C_34
REMARK    9  A    between atoms: C_33  and  C_35
REMARK                            x       y       z     vdW  Elec       q    Type
REMARK                         _______ _______ _______ _____ _____    ______ ____
ROOT
ATOM      1  C   LIG A   1       2.714   0.612  -3.567  0.00  0.00    +0.120 C 
ATOM      2  C   LIG A   1       2.762   1.942  -2.845  0.00  0.00    +0.032 C 
ATOM      3  C   LIG A   1       1.808   1.948  -1.678  0.00  0.00    +0.010 C 
ATOM      4  C   LIG A   1       2.236   0.794  -0.615  0.00  0.00    -0.025 C 
ATOM      5  C   LIG A   1       3.247   1.563   0.266  0.00  0.00    +0.012 C 
ATOM      6  C   LIG A   1       2.411  -0.511  -1.550  0.00  0.00    +0.003 C 
ATOM      7  C   LIG A   1       2.085  -1.880  -0.903  0.00  0.00    +0.005 C 
ATOM      8  C   LIG A   1       0.563  -2.082  -0.669  0.00  0.00    +0.008 C 
ATOM      9  C   LIG A   1       0.217  -1.320   0.669  0.00  0.00    -0.022 C 
ATOM     10  C   LIG A   1      -1.693  -1.228   1.185  0.00  0.00    -0.017 C 
ATOM     11  C   LIG A   1      -2.493  -2.128   0.155  0.00  0.00    +0.012 C 
ATOM     12  C   LIG A   1      -2.386   0.742   1.593  0.00  0.00    +0.066 C 
ATOM     13  C   LIG A   1      -3.615   0.539   2.190  0.00  0.00    +0.009 C 
ATOM     14  C   LIG A   1      -2.260  -0.175   3.146  0.00  0.00    -0.028 C 
ATOM     15  C   LIG A   1      -0.642   0.207   2.083  0.00  0.00    +0.007 C 
ATOM     16  C   LIG A   1      -1.204   0.428   0.039  0.00  0.00    +0.004 C 
ATOM     17  C   LIG A   1      -2.730   0.714  -0.571  0.00  0.00    -0.011 C 
ATOM     18  C   LIG A   1      -2.780   0.138  -2.019  0.00  0.00    +0.008 C 
ATOM     19  C   LIG A   1      -4.000   0.587   0.517  0.00  0.00    -0.007 C 
ATOM     20  C   LIG A   1      -4.864   1.845   0.208  0.00  0.00    +0.008 C 
ATOM     21  C   LIG A   1      -1.693   0.255   4.526  0.00  0.00    +0.011 C 
ATOM     22  C   LIG A   1      -2.815  -1.566   3.316  0.00  0.00    +0.007 C 
ATOM     23  C   LIG A   1      -1.847  -2.229   2.458  0.00  0.00    +0.008 C 
ATOM     24  C   LIG A   1       0.873  -2.412   1.660  0.00  0.00    +0.012 C 
ATOM     25  C   LIG A   1       1.039   0.423   0.369  0.00  0.00    +0.009 C 
ATOM     26  C   LIG A   1       0.333   2.041   0.937  0.00  0.00    +0.079 C 
ATOM     27  C   LIG A   1      -1.405   2.275   1.170  0.00  0.00    +0.138 C 
ATOM     28  O   LIG A   1      -1.938   3.379   1.101  0.00  0.00    -0.297 OA
ATOM     29  C   LIG A   1       3.458  -0.619  -2.733  0.00  0.00    -0.006 C 
ATOM     30  C   LIG A   1       4.584  -0.883  -1.558  0.00  0.00    +0.014 C 
ATOM     31  C   LIG A   1       4.742  -0.382  -3.626  0.00  0.00    +0.014 C 
ENDROOT
BRANCH   1  32
ATOM     32  O   LIG A   1       1.389   0.235  -4.031  0.00  0.00    -0.391 OA
ATOM     33  H   LIG A   1       0.690   0.556  -3.437  0.00  0.00    +0.210 HD
ENDBRANCH   1  32
TORSDOF 1
