@<TRIPOS>MOLECULE
NuBBE_1861
 46 47 0 0 0
SMALL
GASTEIGER

@<TRIPOS>ATOM
      1 O          -2.8140    3.3729   -0.8905 O.3     1  LIG1       -0.5068
      2 C          -1.6022    2.8479   -1.2263 C.ar    1  LIG1        0.1169
      3 C          -0.4294    3.2654   -0.6145 C.ar    1  LIG1       -0.0199
      4 C           0.7911    2.6999   -0.9961 C.ar    1  LIG1       -0.0551
      5 C          -1.5767    1.8633   -2.2074 C.ar    1  LIG1       -0.0199
      6 C          -0.3568    1.3015   -2.5880 C.ar    1  LIG1       -0.0551
      7 C           0.8434    1.7044   -1.9883 C.ar    1  LIG1       -0.0471
      8 C           2.1899    1.1642   -2.4232 C.3     1  LIG1       -0.0277
      9 C           2.2197   -0.2753   -2.9626 C.3     1  LIG1       -0.0490
     10 C           1.7201   -1.3486   -1.9828 C.3     1  LIG1       -0.0504
     11 C           2.5683   -1.4625   -0.7093 C.3     1  LIG1       -0.0268
     12 C           2.0461   -2.4855    0.3134 C.3     1  LIG1        0.0556
     13 H           2.7547   -2.5184    1.1504 H       1  LIG1        0.0593
     14 O           2.0588   -3.7784   -0.2907 O.3     1  LIG1       -0.3918
     15 C           0.6402   -2.1962    0.8599 C.3     1  LIG1       -0.0229
     16 C           0.5434   -0.8419    1.5659 C.3     1  LIG1       -0.0253
     17 C          -0.8266   -0.5892    2.1432 C.ar    1  LIG1       -0.0471
     18 C          -1.8231    0.0170    1.3638 C.ar    1  LIG1       -0.0551
     19 C          -3.0856    0.2752    1.8998 C.ar    1  LIG1       -0.0199
     20 C          -3.3542   -0.0800    3.2156 C.ar    1  LIG1        0.1169
     21 O          -4.5650    0.1727    3.7884 O.3     1  LIG1       -0.5068
     22 C          -2.3860   -0.7023    3.9976 C.ar    1  LIG1       -0.0199
     23 C          -1.1234   -0.9565    3.4607 C.ar    1  LIG1       -0.0551
     24 H          -2.6697    4.0712   -0.2308 H       1  LIG1        0.2921
     25 H          -0.4394    4.0294    0.1591 H       1  LIG1        0.0654
     26 H           1.7048    3.0429   -0.5176 H       1  LIG1        0.0621
     27 H          -2.4984    1.5352   -2.6746 H       1  LIG1        0.0654
     28 H          -0.3690    0.5367   -3.3622 H       1  LIG1        0.0621
     29 H           2.8998    1.2417   -1.5911 H       1  LIG1        0.0313
     30 H           2.5708    1.8335   -3.2059 H       1  LIG1        0.0313
     31 H           3.2473   -0.5140   -3.2648 H       1  LIG1        0.0268
     32 H           1.6227   -0.3328   -3.8814 H       1  LIG1        0.0268
     33 H           1.7218   -2.3123   -2.5068 H       1  LIG1        0.0266
     34 H           0.6778   -1.1440   -1.7242 H       1  LIG1        0.0266
     35 H           2.6565   -0.4888   -0.2197 H       1  LIG1        0.0290
     36 H           3.5830   -1.7567   -1.0062 H       1  LIG1        0.0290
     37 H           2.0632   -4.4364    0.4261 H       1  LIG1        0.2098
     38 H           0.3598   -2.9992    1.5554 H       1  LIG1        0.0293
     39 H          -0.0996   -2.2618    0.0526 H       1  LIG1        0.0293
     40 H           0.7790   -0.0250    0.8748 H       1  LIG1        0.0314
     41 H           1.2899   -0.7811    2.3682 H       1  LIG1        0.0314
     42 H          -1.6144    0.2969    0.3354 H       1  LIG1        0.0621
     43 H          -3.8366    0.7511    1.2752 H       1  LIG1        0.0654
     44 H          -5.0997    0.6800    3.1547 H       1  LIG1        0.2921
     45 H          -2.6116   -0.9802    5.0217 H       1  LIG1        0.0654
     46 H          -0.3705   -1.4361    4.0830 H       1  LIG1        0.0621
@<TRIPOS>BOND
     1     1     2    1
     2     2     3   ar
     3     3     4   ar
     4     2     5   ar
     5     5     6   ar
     6     6     7   ar
     7     4     7   ar
     8     7     8    1
     9     8     9    1
    10     9    10    1
    11    10    11    1
    12    12    14    1
    13    12    15    1
    14    15    16    1
    15    16    17    1
    16    17    18   ar
    17    18    19   ar
    18    19    20   ar
    19    20    21    1
    20    20    22   ar
    21    22    23   ar
    22    17    23   ar
    23    12    13    1
    24    12    11    1
    25     1    24    1
    26     3    25    1
    27     4    26    1
    28     5    27    1
    29     6    28    1
    30     8    29    1
    31     8    30    1
    32     9    31    1
    33     9    32    1
    34    10    33    1
    35    10    34    1
    36    11    35    1
    37    11    36    1
    38    14    37    1
    39    15    38    1
    40    15    39    1
    41    16    40    1
    42    16    41    1
    43    18    42    1
    44    19    43    1
    45    21    44    1
    46    22    45    1
    47    23    46    1
