@<TRIPOS>MOLECULE
NuBBE_2445
 29 30 0 0 0
SMALL
GASTEIGER

@<TRIPOS>ATOM
      1 O          -3.0652   -0.8561   -0.3582 O.3     1  LIG1       -0.4885
      2 C          -3.8632   -2.0265   -0.4302 C.3     1  LIG1        0.0791
      3 C          -1.7027   -0.9841   -0.3097 C.ar    1  LIG1        0.2048
      4 C          -1.0031    0.2349   -0.2035 C.ar    1  LIG1        0.1878
      5 C           0.3969    0.3265   -0.1066 C.ar    1  LIG1        0.0660
      6 C           0.9728    1.6699    0.1266 C.ar    1  LIG1        0.1379
      7 O           2.3112    1.6981    0.4521 O.3     1  LIG1       -0.4942
      8 C           2.7791    2.8001    1.2230 C.3     1  LIG1        0.0788
      9 C           0.1845    2.7511    0.0632 C.ar    1  LIG1        0.0652
     10 C          -1.2554    2.6735   -0.1905 C.ar    1  LIG1        0.3409
     11 O          -1.9218    3.6911   -0.3123 O.2     1  LIG1       -0.2451
     12 O          -1.8016    1.4095   -0.2247 O.2     1  LIG1       -0.4181
     13 C           1.1328   -0.8749   -0.2043 C.ar    1  LIG1       -0.0326
     14 C           0.4437   -2.1010   -0.3075 C.ar    1  LIG1       -0.0127
     15 C          -0.9532   -2.1576   -0.3460 C.ar    1  LIG1        0.1625
     16 O          -1.5437   -3.3877   -0.4301 O.3     1  LIG1       -0.5032
     17 C           2.6388   -0.9321   -0.2019 C.3     1  LIG1       -0.0388
     18 H          -4.9112   -1.7105   -0.4361 H       1  LIG1        0.0660
     19 H          -3.7244   -2.6601    0.4515 H       1  LIG1        0.0660
     20 H          -3.6850   -2.5711   -1.3626 H       1  LIG1        0.0660
     21 H           3.8101    2.5864    1.5199 H       1  LIG1        0.0660
     22 H           2.1840    2.9174    2.1353 H       1  LIG1        0.0660
     23 H           2.7817    3.7223    0.6349 H       1  LIG1        0.0660
     24 H           0.5505    3.7588    0.2034 H       1  LIG1        0.0726
     25 H           1.0199   -3.0227   -0.3602 H       1  LIG1        0.0658
     26 H          -0.8620   -4.0784   -0.3991 H       1  LIG1        0.2923
     27 H           3.0533   -0.2427   -0.9446 H       1  LIG1        0.0278
     28 H           3.0023   -1.9291   -0.4759 H       1  LIG1        0.0278
     29 H           3.0311   -0.7050    0.7938 H       1  LIG1        0.0278
@<TRIPOS>BOND
     1     1     2    1
     2     1     3    1
     3     3     4   ar
     4     4     5   ar
     5     5     6   ar
     6     6     7    1
     7     7     8    1
     8     6     9   ar
     9     9    10   ar
    10    10    11    2
    11    10    12   ar
    12     4    12   ar
    13     5    13   ar
    14    13    14   ar
    15    14    15   ar
    16     3    15   ar
    17    15    16    1
    18    13    17    1
    19     2    18    1
    20     2    19    1
    21     2    20    1
    22     8    21    1
    23     8    22    1
    24     8    23    1
    25     9    24    1
    26    14    25    1
    27    16    26    1
    28    17    27    1
    29    17    28    1
    30    17    29    1
