@<TRIPOS>MOLECULE
NuBBE_2051
 25 26 0 0 0
SMALL
GASTEIGER

@<TRIPOS>ATOM
      1 O          -2.9751    0.8190   -0.0150 O.3     1  LIG1       -0.5058
      2 C          -1.6065    0.7443    0.0047 C.ar    1  LIG1        0.1350
      3 C          -0.8945   -0.4629   -0.0491 C.ar    1  LIG1        0.1095
      4 C           0.5066   -0.4532   -0.0252 C.ar    1  LIG1        0.0175
      5 C           1.1750    0.7895    0.0540 C.ar    1  LIG1        0.0907
      6 C           0.4538    2.0025    0.1101 C.ar    1  LIG1        0.1424
      7 C          -0.9405    1.9655    0.0833 C.ar    1  LIG1        0.0238
      8 O           1.1894    3.1581    0.1864 O.3     1  LIG1       -0.4935
      9 C           0.4855    4.3904    0.2794 C.3     1  LIG1        0.0789
     10 CL          2.9167    0.8549    0.0863 Cl      1  LIG1       -0.0791
     11 C           1.2054   -1.7389   -0.0829 C.ar    1  LIG1       -0.0142
     12 C           0.5057   -2.8767   -0.1549 C.ar    1  LIG1        0.1067
     13 O          -0.9021   -2.8953   -0.1794 O.2     1  LIG1       -0.4270
     14 C          -1.6311   -1.7461   -0.1309 C.ar    1  LIG1        0.3483
     15 O          -2.8595   -1.7491   -0.1524 O.2     1  LIG1       -0.2444
     16 C           1.1304   -4.2343   -0.2162 C.3     1  LIG1       -0.0062
     17 H          -3.3463   -0.0912   -0.0714 H       1  LIG1        0.2922
     18 H          -1.5430    2.8676    0.1210 H       1  LIG1        0.0691
     19 H           1.2259    5.1932    0.3491 H       1  LIG1        0.0660
     20 H          -0.1300    4.4263    1.1843 H       1  LIG1        0.0660
     21 H          -0.1158    4.5694   -0.6179 H       1  LIG1        0.0660
     22 H           2.2898   -1.7636   -0.0662 H       1  LIG1        0.0657
     23 H           2.2239   -4.1851   -0.1966 H       1  LIG1        0.0308
     24 H           0.8321   -4.7458   -1.1369 H       1  LIG1        0.0308
     25 H           0.8044   -4.8384    0.6365 H       1  LIG1        0.0308
@<TRIPOS>BOND
     1     1     2    1
     2     2     3   ar
     3     3     4   ar
     4     4     5   ar
     5     5     6   ar
     6     6     7   ar
     7     2     7   ar
     8     6     8    1
     9     8     9    1
    10     5    10    1
    11     4    11   ar
    12    11    12   ar
    13    12    13   ar
    14    13    14   ar
    15     3    14   ar
    16    14    15    2
    17    12    16    1
    18     1    17    1
    19     7    18    1
    20     9    19    1
    21     9    20    1
    22     9    21    1
    23    11    22    1
    24    16    23    1
    25    16    24    1
    26    16    25    1
