REMARK  Name = NuBBE_2524
REMARK  11 active torsions:
REMARK  status: ('A' for Active; 'I' for Inactive)
REMARK    1  A    between atoms: C_1  and  O_2
REMARK    2  A    between atoms: O_2  and  C_3
REMARK    3  A    between atoms: C_4  and  O_5
REMARK    4  A    between atoms: O_5  and  C_6
REMARK    5  A    between atoms: C_7  and  O_8
REMARK    6  A    between atoms: O_8  and  C_9
REMARK    7  A    between atoms: C_10  and  O_11
REMARK    8  A    between atoms: C_16  and  C_17
REMARK    9  A    between atoms: C_20  and  O_21
REMARK   10  A    between atoms: O_21  and  C_22
REMARK   11  A    between atoms: C_23  and  O_24
REMARK                            x       y       z     vdW  Elec       q    Type
REMARK                         _______ _______ _______ _____ _____    ______ ____
ROOT
ATOM      1  C   UNL A   1       1.756  -1.327   0.540  0.00  0.00    +0.209 A 
ATOM      2  C   UNL A   1       3.152  -1.394   0.888  0.00  0.00    +0.211 A 
ATOM      3  C   UNL A   1       3.838  -0.214   1.202  0.00  0.00    +0.208 A 
ATOM      4  C   UNL A   1       3.139   1.008   1.116  0.00  0.00    +0.177 A 
ATOM      5  C   UNL A   1       1.805   1.091   0.712  0.00  0.00    +0.113 A 
ATOM      6  C   UNL A   1       1.166   2.403   0.483  0.00  0.00    +0.197 A 
ATOM      7  O   UNL A   1       1.701   3.490   0.651  0.00  0.00    -0.287 OA
ATOM      8  C   UNL A   1      -0.210   2.385  -0.006  0.00  0.00    +0.098 A 
ATOM      9  C   UNL A   1      -0.836   1.217  -0.201  0.00  0.00    +0.140 A 
ATOM     10  O   UNL A   1      -0.226  -0.021  -0.003  0.00  0.00    -0.451 OA
ATOM     11  C   UNL A   1       1.090  -0.077   0.434  0.00  0.00    +0.188 A 
ENDROOT
BRANCH   9  12
ATOM     12  C   UNL A   1      -2.240   1.212  -0.698  0.00  0.00    +0.021 A 
ATOM     13  C   UNL A   1      -2.738   0.164  -1.489  0.00  0.00    +0.015 A 
ATOM     14  C   UNL A   1      -4.045   0.199  -2.016  0.00  0.00    +0.050 A 
ATOM     15  C   UNL A   1      -4.875   1.296  -1.770  0.00  0.00    +0.161 A 
ATOM     16  C   UNL A   1      -4.394   2.319  -0.963  0.00  0.00    +0.159 A 
ATOM     17  C   UNL A   1      -3.111   2.281  -0.420  0.00  0.00    +0.060 A 
BRANCH  15  18
ATOM     18  O   UNL A   1      -6.141   1.489  -2.254  0.00  0.00    -0.491 OA
ATOM     19  C   UNL A   1      -6.665   0.488  -3.116  0.00  0.00    +0.277 C 
ENDBRANCH  15  18
BRANCH  16  20
ATOM     20  O   UNL A   1      -5.170   3.414  -0.700  0.00  0.00    -0.503 OA
ATOM     21  H   UNL A   1      -5.994   3.271  -1.207  0.00  0.00    +0.292 HD
ENDBRANCH  16  20
ENDBRANCH   9  12
BRANCH   1  23
ATOM     22  C   UNL A   1      -0.205  -2.708   0.516  0.00  0.00    +0.277 C 
ATOM     23  O   UNL A   1       1.180  -2.543   0.227  0.00  0.00    -0.488 OA
ENDBRANCH   1  23
BRANCH   2  24
ATOM     24  O   UNL A   1       3.791  -2.585   0.645  0.00  0.00    -0.488 OA
ATOM     25  C   UNL A   1       4.234  -3.323   1.779  0.00  0.00    +0.277 C 
ENDBRANCH   2  24
BRANCH   3  26
ATOM     26  O   UNL A   1       5.142   0.043   1.518  0.00  0.00    -0.488 OA
ATOM     27  C   UNL A   1       6.093  -0.945   1.837  0.00  0.00    +0.277 C 
ENDBRANCH   3  26
BRANCH   4  28
ATOM     28  O   UNL A   1       3.853   2.151   1.398  0.00  0.00    -0.503 OA
ATOM     29  H   UNL A   1       4.772   1.863   1.554  0.00  0.00    +0.292 HD
ENDBRANCH   4  28
TORSDOF 7
