REMARK  Name = NuBBE_675
REMARK  16 active torsions:
REMARK  status: ('A' for Active; 'I' for Inactive)
REMARK    1  A    between atoms: C_1  and  C_2
REMARK    2  A    between atoms: C_2  and  O_4
REMARK    3  A    between atoms: C_2  and  C_17
REMARK    4  A    between atoms: O_4  and  C_5
REMARK    5  A    between atoms: C_5  and  C_6
REMARK    6  A    between atoms: C_6  and  O_8
REMARK    7  A    between atoms: C_6  and  C_10
REMARK    8  A    between atoms: O_8  and  C_9
REMARK    9  A    between atoms: C_17  and  C_19
REMARK   10  A    between atoms: C_17  and  C_20
REMARK   11  A    between atoms: C_20  and  C_21
REMARK   12  A    between atoms: C_26  and  C_27
REMARK   13  A    between atoms: C_28  and  C_29
REMARK   14  A    between atoms: C_29  and  C_31
REMARK   15  A    between atoms: C_29  and  C_32
REMARK   16  A    between atoms: C_32  and  C_33
REMARK                            x       y       z     vdW  Elec       q    Type
REMARK                         _______ _______ _______ _____ _____    ______ ____
ROOT
ATOM      1  C   LIG A   1      -1.087   1.212  -0.047  0.00  0.00    +0.109 C 
ATOM      2  C   LIG A   1      -0.572   2.060  -0.945  0.00  0.00    +0.028 C 
ATOM      3  C   LIG A   1       0.567   2.047  -1.836  0.00  0.00    +0.027 C 
ATOM      4  C   LIG A   1       1.824   1.791  -1.433  0.00  0.00    +0.204 C 
ATOM      5  O   LIG A   1       2.936   1.834  -2.253  0.00  0.00    -0.463 OA
ATOM      6  C   LIG A   1       2.756   2.046  -3.618  0.00  0.00    +0.128 C 
ATOM      7  C   LIG A   1       1.549   2.325  -4.146  0.00  0.00    +0.056 C 
ATOM      8  C   LIG A   1       0.400   2.473  -3.252  0.00  0.00    +0.011 C 
ATOM      9  C   LIG A   1      -0.795   2.960  -3.661  0.00  0.00    +0.095 C 
ATOM     10 CL   LIG A   1      -1.162   3.431  -5.283  0.00  0.00    -0.079 Cl
ATOM     11  C   LIG A   1      -1.467   3.212  -1.188  0.00  0.00    +0.280 C 
ATOM     12  O   LIG A   1      -2.524   3.026  -0.275  0.00  0.00    -0.445 OA
ATOM     13  C   LIG A   1      -2.397   1.794   0.274  0.00  0.00    +0.344 C 
ATOM     14  O   LIG A   1      -3.272   1.268   0.956  0.00  0.00    -0.245 OA
ATOM     15  C   LIG A   1      -1.897   3.171  -2.658  0.00  0.00    +0.220 C 
ATOM     16  O   LIG A   1      -3.067   3.325  -3.003  0.00  0.00    -0.287 OA
ENDROOT
BRANCH   1  17
ATOM     17  C   LIG A   1      -0.527  -0.086   0.433  0.00  0.00    +0.177 C 
ATOM     18  O   LIG A   1       0.670  -0.320   0.292  0.00  0.00    -0.291 OA
BRANCH  17  19
ATOM     19  C   LIG A   1      -1.442  -1.127   1.087  0.00  0.00    +0.098 C 
ATOM     20  C   LIG A   1      -0.934  -2.556   0.850  0.00  0.00    +0.020 C 
BRANCH  19  22
ATOM     21  C   LIG A   1      -0.420  -0.918   3.454  0.00  0.00    +0.052 C 
ATOM     22  C   LIG A   1      -1.685  -0.834   2.582  0.00  0.00    +0.184 C 
BRANCH  22  23
ATOM     23  O   LIG A   1      -2.661  -1.687   3.224  0.00  0.00    -0.459 OA
BRANCH  23  24
ATOM     24  C   LIG A   1      -3.882  -1.927   2.665  0.00  0.00    +0.341 C 
ATOM     25  O   LIG A   1      -4.137  -1.904   1.467  0.00  0.00    -0.247 OA
BRANCH  24  26
ATOM     26  C   LIG A   1      -4.966  -2.085   3.742  0.00  0.00    +0.256 C 
BRANCH  26  27
ATOM     27  C   LIG A   1      -4.850  -3.369   4.556  0.00  0.00    -0.008 A 
ATOM     28  C   LIG A   1      -3.620  -3.907   4.970  0.00  0.00    +0.007 A 
ATOM     29  C   LIG A   1      -3.561  -5.097   5.698  0.00  0.00    +0.000 A 
ATOM     30  C   LIG A   1      -4.733  -5.762   6.039  0.00  0.00    +0.000 A 
ATOM     31  C   LIG A   1      -5.964  -5.227   5.672  0.00  0.00    +0.000 A 
ATOM     32  C   LIG A   1      -6.023  -4.034   4.947  0.00  0.00    +0.007 A 
ENDBRANCH  26  27
BRANCH  26  33
ATOM     33  O   LIG A   1      -5.005  -0.980   4.652  0.00  0.00    -0.364 OA
ATOM     34  C   LIG A   1      -5.287   0.270   4.026  0.00  0.00    +0.195 C 
ENDBRANCH  26  33
ENDBRANCH  24  26
ENDBRANCH  23  24
ENDBRANCH  22  23
ENDBRANCH  19  22
ENDBRANCH  17  19
ENDBRANCH   1  17
BRANCH   6  35
ATOM     35  C   LIG A   1       3.956   1.916  -4.422  0.00  0.00    +0.042 C 
ATOM     36  C   LIG A   1       5.204   2.159  -3.981  0.00  0.00    -0.020 C 
BRANCH  36  37
ATOM     37  C   LIG A   1       6.442   2.100  -4.854  0.00  0.00    +0.008 C 
ATOM     38  C   LIG A   1       7.096   3.485  -4.881  0.00  0.00    +0.012 C 
BRANCH  37  39
ATOM     39  C   LIG A   1       7.433   1.019  -4.377  0.00  0.00    +0.004 C 
ATOM     40  C   LIG A   1       8.686   0.941  -5.248  0.00  0.00    +0.004 C 
ENDBRANCH  37  39
ENDBRANCH  36  37
ENDBRANCH   6  35
TORSDOF 11
