REMARK  Name = NuBBE_329
REMARK  3 active torsions:
REMARK  status: ('A' for Active; 'I' for Inactive)
REMARK    1  A    between atoms: C_23  and  C_24
REMARK    2  A    between atoms: C_24  and  O_25
REMARK    3  A    between atoms: C_29  and  C_31
REMARK                            x       y       z     vdW  Elec       q    Type
REMARK                         _______ _______ _______ _____ _____    ______ ____
ROOT
ATOM      1  H   LIG A   1       3.993  -0.160   2.175  0.00  0.00    +0.155 HD
ATOM      2  N   LIG A   1       3.160   0.327   1.878  0.00  0.00    -0.284 N 
ATOM      3  C   LIG A   1       3.125   1.577   1.285  0.00  0.00    +0.038 A 
ATOM      4  C   LIG A   1       4.202   2.381   0.979  0.00  0.00    +0.023 A 
ATOM      5  C   LIG A   1       3.932   3.611   0.376  0.00  0.00    +0.002 A 
ATOM      6  C   LIG A   1       2.608   3.998   0.101  0.00  0.00    +0.000 A 
ATOM      7  C   LIG A   1       1.533   3.164   0.424  0.00  0.00    +0.006 A 
ATOM      8  C   LIG A   1       1.806   1.945   1.021  0.00  0.00    -0.010 A 
ATOM      9  C   LIG A   1       0.879   0.839   1.468  0.00  0.00    +0.090 C 
ATOM     10  C   LIG A   1       1.885  -0.197   2.040  0.00  0.00    +0.229 C 
ATOM     11  O   LIG A   1       1.639  -1.275   2.556  0.00  0.00    -0.274 OA
ATOM     12  C   LIG A   1      -0.041   0.290   0.372  0.00  0.00    +0.077 C 
ATOM     13  C   LIG A   1       0.586  -0.637  -0.676  0.00  0.00    +0.029 C 
ATOM     14  C   LIG A   1      -0.507  -1.390  -1.459  0.00  0.00    +0.038 C 
ATOM     15  C   LIG A   1      -1.243  -2.325  -0.470  0.00  0.00    +0.051 C 
ATOM     16  C   LIG A   1      -1.354  -1.718   0.955  0.00  0.00    +0.092 C 
ATOM     17  N   LIG A   1      -1.244  -0.256   1.038  0.00  0.00    -0.298 NA
ATOM     18  C   LIG A   1      -1.210   0.196   2.443  0.00  0.00    +0.086 C 
ATOM     19  C   LIG A   1      -0.122   1.262   2.537  0.00  0.00    +0.038 C 
ATOM     20  C   LIG A   1      -1.491  -0.495  -2.173  0.00  0.00    +0.074 C 
ATOM     21  C   LIG A   1      -2.817  -0.688  -2.118  0.00  0.00    +0.198 C 
ATOM     22  O   LIG A   1      -3.450  -1.699  -1.450  0.00  0.00    -0.496 OA
ATOM     23  C   LIG A   1      -2.608  -2.779  -1.023  0.00  0.00    +0.174 C 
ATOM     24  C   LIG A   1      -2.472  -3.783  -2.173  0.00  0.00    +0.052 C 
ENDROOT
BRANCH  20  25
ATOM     25  C   LIG A   1      -0.970   0.626  -2.977  0.00  0.00    +0.336 C 
ATOM     26  O   LIG A   1      -0.032   0.519  -3.748  0.00  0.00    -0.245 OA
BRANCH  25  27
ATOM     27  O   LIG A   1      -1.577   1.799  -2.697  0.00  0.00    -0.477 OA
ATOM     28  H   LIG A   1      -2.209   1.738  -1.954  0.00  0.00    +0.295 HD
ENDBRANCH  25  27
ENDBRANCH  20  25
TORSDOF 2
