@<TRIPOS>MOLECULE
NuBBE_1591
 57 60 0 0 0
SMALL
GASTEIGER

@<TRIPOS>ATOM
      1 O          -1.8170    3.1489   -2.8895 O.2     1  LIG1       -0.2507
      2 C          -2.7786    2.4006   -2.7595 C.2     1  LIG1        0.3092
      3 C          -4.2163    2.8239   -2.8805 C.3     1  LIG1        0.0336
      4 O          -2.7225    1.0247   -2.5190 O.3     1  LIG1       -0.4244
      5 C          -1.4598    0.5022   -2.1672 C.ar    1  LIG1        0.1568
      6 C          -0.8986   -0.4780   -3.0077 C.ar    1  LIG1        0.0635
      7 C          -1.5910   -1.0674   -4.1638 C.2     1  LIG1       -0.0476
      8 C          -0.8635   -1.7523   -5.0598 C.2     1  LIG1       -0.0408
      9 C           0.6317   -1.8638   -4.9164 C.3     1  LIG1        0.1237
     10 C           1.1675   -3.1888   -5.4823 C.3     1  LIG1       -0.0215
     11 C           1.3446   -0.7000   -5.6181 C.3     1  LIG1       -0.0215
     12 O           1.0002   -1.8726   -3.5308 O.3     1  LIG1       -0.4777
     13 C           0.3553   -1.0169   -2.6749 C.ar    1  LIG1        0.1775
     14 C           0.9621   -0.7405   -1.4369 C.ar    1  LIG1        0.2058
     15 O           2.1455   -1.3106   -1.0136 O.3     1  LIG1       -0.4885
     16 C           2.4356   -2.6239   -1.5058 C.3     1  LIG1        0.0791
     17 C           0.3429    0.1825   -0.5647 C.ar    1  LIG1        0.1879
     18 O           0.8965    0.3446    0.6956 O.2     1  LIG1       -0.4507
     19 C           0.2650    1.1919    1.5901 C.ar    1  LIG1        0.1395
     20 C           0.7587    1.1581    2.9724 C.ar    1  LIG1        0.0211
     21 C           1.7251    2.0499    3.4194 C.ar    1  LIG1       -0.0474
     22 C           2.1302    2.0161    4.7534 C.ar    1  LIG1       -0.0156
     23 C           1.5465    1.1299    5.6728 C.ar    1  LIG1        0.1615
     24 O           2.1280    1.2015    6.9105 O.3     1  LIG1       -0.4915
     25 C           1.2628    1.2447    8.0356 C.3     1  LIG1        0.0790
     26 C           0.5562    0.2271    5.2415 C.ar    1  LIG1        0.1622
     27 O           0.0025   -0.6573    6.1386 O.3     1  LIG1       -0.4914
     28 C          -0.9975   -1.5495    5.6307 C.3     1  LIG1        0.0790
     29 C           0.1833    0.2577    3.8849 C.ar    1  LIG1       -0.0056
     30 C          -0.7918    1.9530    1.3119 C.ar    1  LIG1        0.0288
     31 C          -0.8393    0.8403   -0.9468 C.ar    1  LIG1        0.1107
     32 C          -1.4523    1.8043    0.0110 C.ar    1  LIG1        0.1968
     33 O          -2.4870    2.4024   -0.1719 O.2     1  LIG1       -0.2869
     34 H          -4.8705    2.1314   -2.3408 H       1  LIG1        0.0342
     35 H          -4.4976    2.8481   -3.9346 H       1  LIG1        0.0342
     36 H          -4.3506    3.8122   -2.4300 H       1  LIG1        0.0342
     37 H          -2.6689   -0.9913   -4.2412 H       1  LIG1        0.0624
     38 H          -1.3381   -2.2294   -5.9115 H       1  LIG1        0.0611
     39 H           0.9425   -3.3029   -6.5477 H       1  LIG1        0.0271
     40 H           0.7572   -4.0508   -4.9430 H       1  LIG1        0.0271
     41 H           2.2578   -3.2509   -5.3598 H       1  LIG1        0.0271
     42 H           1.1276   -0.6835   -6.6910 H       1  LIG1        0.0271
     43 H           2.4305   -0.7672   -5.4815 H       1  LIG1        0.0271
     44 H           1.0466    0.2660   -5.1947 H       1  LIG1        0.0271
     45 H           3.2676   -3.0387   -0.9318 H       1  LIG1        0.0660
     46 H           2.7892   -2.6090   -2.5427 H       1  LIG1        0.0660
     47 H           1.5740   -3.2917   -1.3844 H       1  LIG1        0.0660
     48 H           2.1708    2.7710    2.7407 H       1  LIG1        0.0626
     49 H           2.9124    2.6939    5.0882 H       1  LIG1        0.0655
     50 H           1.5264    0.4130    8.6947 H       1  LIG1        0.0660
     51 H           0.1981    1.2177    7.7949 H       1  LIG1        0.0660
     52 H           1.4580    2.1736    8.5865 H       1  LIG1        0.0660
     53 H          -1.4953   -2.0443    6.4701 H       1  LIG1        0.0660
     54 H          -0.5400   -2.3251    5.0047 H       1  LIG1        0.0660
     55 H          -1.7846   -1.0211    5.0791 H       1  LIG1        0.0660
     56 H          -0.5683   -0.4212    3.4949 H       1  LIG1        0.0662
     57 H          -1.2694    2.6177    2.0219 H       1  LIG1        0.0693
@<TRIPOS>BOND
     1     1     2    2
     2     2     3    1
     3     2     4    1
     4     4     5    1
     5     5     6   ar
     6     6     7    1
     7     7     8    2
     8     8     9    1
     9     9    10    1
    10     9    11    1
    11     9    12    1
    12     6    13   ar
    13    12    13    1
    14    13    14   ar
    15    14    15    1
    16    15    16    1
    17    14    17   ar
    18    17    18   ar
    19    18    19   ar
    20    19    20    1
    21    20    21   ar
    22    21    22   ar
    23    22    23   ar
    24    23    24    1
    25    24    25    1
    26    23    26   ar
    27    26    27    1
    28    27    28    1
    29    26    29   ar
    30    20    29   ar
    31    19    30   ar
    32    17    31   ar
    33     5    31   ar
    34    31    32   ar
    35    30    32   ar
    36    32    33    2
    37     3    34    1
    38     3    35    1
    39     3    36    1
    40     7    37    1
    41     8    38    1
    42    10    39    1
    43    10    40    1
    44    10    41    1
    45    11    42    1
    46    11    43    1
    47    11    44    1
    48    16    45    1
    49    16    46    1
    50    16    47    1
    51    21    48    1
    52    22    49    1
    53    25    50    1
    54    25    51    1
    55    25    52    1
    56    28    53    1
    57    28    54    1
    58    28    55    1
    59    29    56    1
    60    30    57    1
