@<TRIPOS>MOLECULE
NuBBE_940
 39 41 0 0 0
SMALL
GASTEIGER

@<TRIPOS>ATOM
      1 H          -1.6608    0.5834    1.2293 H       1  LIG1        0.0312
      2 C          -0.6351    0.8634    0.9672 C.3     1  LIG1       -0.0280
      3 C           0.5101   -0.0545    1.5881 C.3     1  LIG1       -0.0219
      4 C           0.2079   -1.5716    1.5560 C.3     1  LIG1       -0.0465
      5 C          -0.7873   -1.9128    0.4517 C.3     1  LIG1       -0.0492
      6 C          -0.5256   -1.1085   -0.8318 C.3     1  LIG1       -0.0350
      7 H           0.3084   -1.5774   -1.3712 H       1  LIG1        0.0306
      8 C          -1.7617   -1.0786   -1.7755 C.3     1  LIG1       -0.0436
      9 H          -2.5307   -0.4311   -1.3342 H       1  LIG1        0.0298
     10 C          -1.4073   -0.5092   -3.1574 C.3     1  LIG1       -0.0624
     11 C          -2.3782   -2.4693   -1.9786 C.3     1  LIG1       -0.0624
     12 C          -0.1049    0.3189   -0.4213 C.3     1  LIG1       -0.0273
     13 C           1.0866    0.3173    2.9520 C.3     1  LIG1       -0.0587
     14 C           1.3086    0.3820    0.2888 C.3     1  LIG1       -0.0111
     15 C           1.8439    1.7900    0.3234 C.2     1  LIG1       -0.0726
     16 C           3.2628    2.0318   -0.0697 C.3     1  LIG1       -0.0435
     17 C           0.9739    2.7432    0.7072 C.2     1  LIG1       -0.0844
     18 C          -0.4386    2.3856    1.1005 C.3     1  LIG1       -0.0309
     19 H          -0.2141   -1.9033    2.5126 H       1  LIG1        0.0271
     20 H           1.1403   -2.1308    1.4099 H       1  LIG1        0.0271
     21 H          -1.7970   -1.6928    0.8228 H       1  LIG1        0.0268
     22 H          -0.7602   -2.9900    0.2515 H       1  LIG1        0.0268
     23 H          -2.2762   -0.5408   -3.8243 H       1  LIG1        0.0232
     24 H          -0.6027   -1.0850   -3.6274 H       1  LIG1        0.0232
     25 H          -1.0903    0.5353   -3.1029 H       1  LIG1        0.0232
     26 H          -3.1985   -2.4305   -2.7038 H       1  LIG1        0.0232
     27 H          -2.7976   -2.8637   -1.0481 H       1  LIG1        0.0232
     28 H          -1.6332   -3.1813   -2.3497 H       1  LIG1        0.0232
     29 H          -0.1952    1.0257   -1.2528 H       1  LIG1        0.0312
     30 H           0.3609    0.1087    3.7458 H       1  LIG1        0.0235
     31 H           1.3555    1.3728    3.0368 H       1  LIG1        0.0235
     32 H           1.9908   -0.2653    3.1602 H       1  LIG1        0.0235
     33 H           2.0511   -0.3362   -0.0754 H       1  LIG1        0.0354
     34 H           3.9383    1.4767    0.5888 H       1  LIG1        0.0274
     35 H           3.5271    3.0923   -0.0071 H       1  LIG1        0.0274
     36 H           3.4332    1.7021   -1.0994 H       1  LIG1        0.0274
     37 H           1.2681    3.7873    0.7571 H       1  LIG1        0.0572
     38 H          -1.1443    2.9131    0.4496 H       1  LIG1        0.0310
     39 H          -0.6281    2.7028    2.1313 H       1  LIG1        0.0310
@<TRIPOS>BOND
     1     1     2    1
     2     2     3    1
     3     3     4    1
     4     4     5    1
     5     5     6    1
     6     8     9    1
     7     8    10    1
     8     8    11    1
     9     6    12    1
    10     2    12    1
    11     3    13    1
    12     3    14    1
    13    12    14    1
    14    14    15    1
    15    15    16    1
    16    15    17    2
    17    17    18    1
    18     2    18    1
    19     6     8    1
    20     6     7    1
    21     4    19    1
    22     4    20    1
    23     5    21    1
    24     5    22    1
    25    10    23    1
    26    10    24    1
    27    10    25    1
    28    11    26    1
    29    11    27    1
    30    11    28    1
    31    12    29    1
    32    13    30    1
    33    13    31    1
    34    13    32    1
    35    14    33    1
    36    16    34    1
    37    16    35    1
    38    16    36    1
    39    17    37    1
    40    18    38    1
    41    18    39    1
