@<TRIPOS>MOLECULE
NuBBE_302
 71 70 0 0 0
SMALL
GASTEIGER

@<TRIPOS>ATOM
      1 C          -3.6622    5.3144    0.8536 C.3     1  LIG1       -0.0182
      2 C          -3.8397    4.1227    1.7762 C.3     1  LIG1        0.0126
      3 H          -4.8935    3.9387    1.8804 H       1  LIG1        0.0885
      4 C          -3.1563    4.2673    3.1376 C.3     1  LIG1        0.1450
      5 H          -3.6076    5.1027    3.6874 H       1  LIG1        0.0791
      6 O          -1.7306    4.4919    2.9932 O.3     1  LIG1       -0.4558
      7 C          -1.2860    5.7078    3.4205 C.2     1  LIG1        0.3044
      8 C           0.1589    5.5549    3.8532 C.3     1  LIG1        0.0332
      9 O          -1.9354    6.7584    3.5252 O.2     1  LIG1       -0.2512
     10 C          -3.3522    2.9987    3.9781 C.3     1  LIG1       -0.0052
     11 C          -3.1972    1.6659    3.2404 C.3     1  LIG1       -0.0062
     12 C          -3.6442    1.6204    1.7742 C.3     1  LIG1       -0.0222
     13 H          -4.7274    1.4592    1.7053 H       1  LIG1        0.0850
     14 C          -2.9005    0.4915    1.0442 C.3     1  LIG1       -0.0097
     15 C          -3.2565    0.3374   -0.4405 C.3     1  LIG1       -0.0480
     16 C          -2.4561   -0.7821   -1.1041 C.3     1  LIG1       -0.0529
     17 C          -2.7112   -2.1495   -0.4647 C.3     1  LIG1       -0.0531
     18 C          -1.8725   -3.2619   -1.0825 C.3     1  LIG1       -0.0531
     19 C          -0.3770   -3.0076   -0.9091 C.3     1  LIG1       -0.0531
     20 C           0.4486   -4.1039   -1.5663 C.3     1  LIG1       -0.0531
     21 C           1.9315   -3.7976   -1.4106 C.3     1  LIG1       -0.0531
     22 C           2.7976   -4.8492   -2.0995 C.3     1  LIG1       -0.0531
     23 C           4.2911   -4.5516   -1.9465 C.3     1  LIG1       -0.0530
     24 C           4.6757   -3.2089   -2.5717 C.3     1  LIG1       -0.0507
     25 C           6.1686   -2.9156   -2.4382 C.3     1  LIG1       -0.0271
     26 C           6.5392   -1.5608   -3.0533 C.3     1  LIG1        0.0524
     27 O           6.2252   -1.5447   -4.4430 O.3     1  LIG1       -0.3921
     28 H           5.9772   -0.7530   -2.5695 H       1  LIG1        0.0590
     29 C           8.0276   -1.2807   -2.9191 C.3     1  LIG1       -0.0389
     30 N          -3.3464    2.8974    1.0657 N.4     1  LIG1        0.2338
     31 H          -2.3493    2.9933    0.8471 H       1  LIG1        0.2020
     32 H          -3.8705    2.8731    0.1827 H       1  LIG1        0.2020
     33 CL         -7.0484    4.0646    3.2362 Cl      2  LIG2        0.0000
     34 H          -4.0173    6.2256    1.3445 H       1  LIG1        0.0285
     35 H          -4.2588    5.1781   -0.0560 H       1  LIG1        0.0285
     36 H          -2.6198    5.4571    0.5561 H       1  LIG1        0.0285
     37 H           0.6305    4.7214    3.3220 H       1  LIG1        0.0342
     38 H           0.1610    5.3437    4.9277 H       1  LIG1        0.0342
     39 H           0.7399    6.4595    3.6481 H       1  LIG1        0.0342
     40 H          -4.3574    3.0221    4.4044 H       1  LIG1        0.0305
     41 H          -2.6584    2.9990    4.8297 H       1  LIG1        0.0305
     42 H          -3.7854    0.9129    3.7874 H       1  LIG1        0.0321
     43 H          -2.1581    1.3256    3.3335 H       1  LIG1        0.0321
     44 H          -1.8156    0.6501    1.1270 H       1  LIG1        0.0320
     45 H          -3.1197   -0.4386    1.5784 H       1  LIG1        0.0320
     46 H          -3.0284    1.2622   -0.9834 H       1  LIG1        0.0267
     47 H          -4.3280    0.1462   -0.5560 H       1  LIG1        0.0267
     48 H          -1.3974   -0.5095   -1.0434 H       1  LIG1        0.0265
     49 H          -2.7053   -0.8276   -2.1717 H       1  LIG1        0.0265
     50 H          -3.7746   -2.3985   -0.5613 H       1  LIG1        0.0265
     51 H          -2.4856   -2.1277    0.6056 H       1  LIG1        0.0265
     52 H          -2.1218   -3.3661   -2.1441 H       1  LIG1        0.0265
     53 H          -2.1357   -4.2082   -0.5937 H       1  LIG1        0.0265
     54 H          -0.1324   -2.9343    0.1582 H       1  LIG1        0.0265
     55 H          -0.0936   -2.0540   -1.3662 H       1  LIG1        0.0265
     56 H           0.1969   -4.1543   -2.6327 H       1  LIG1        0.0265
     57 H           0.2124   -5.0742   -1.1190 H       1  LIG1        0.0265
     58 H           2.1959   -3.7396   -0.3478 H       1  LIG1        0.0265
     59 H           2.1174   -2.8083   -1.8428 H       1  LIG1        0.0265
     60 H           2.5404   -4.9037   -3.1646 H       1  LIG1        0.0265
     61 H           2.5835   -5.8356   -1.6705 H       1  LIG1        0.0265
     62 H           4.8612   -5.3571   -2.4254 H       1  LIG1        0.0265
     63 H           4.5579   -4.5594   -0.8830 H       1  LIG1        0.0265
     64 H           4.1333   -2.3924   -2.0846 H       1  LIG1        0.0266
     65 H           4.3773   -3.2152   -3.6263 H       1  LIG1        0.0266
     66 H           6.7289   -3.7172   -2.9331 H       1  LIG1        0.0290
     67 H           6.4437   -2.9228   -1.3760 H       1  LIG1        0.0290
     68 H           5.2629   -1.4372   -4.5278 H       1  LIG1        0.2098
     69 H           8.6178   -2.0514   -3.4269 H       1  LIG1        0.0254
     70 H           8.3342   -1.2352   -1.8701 H       1  LIG1        0.0254
     71 H           8.2778   -0.3282   -3.3988 H       1  LIG1        0.0254
@<TRIPOS>BOND
     1     1     2    1
     2     2     3    1
     3     2     4    1
     4     4     5    1
     5     4     6    1
     6     6     7    1
     7     7     8    1
     8     7     9    2
     9     4    10    1
    10    10    11    1
    11    11    12    1
    12    14    15    1
    13    15    16    1
    14    16    17    1
    15    17    18    1
    16    18    19    1
    17    19    20    1
    18    20    21    1
    19    21    22    1
    20    22    23    1
    21    23    24    1
    22    24    25    1
    23    25    26    1
    24    26    27    1
    25    26    28    1
    26    26    29    1
    27    12    30    1
    28    30    31    1
    29     2    30    1
    30    30    32    1
    31    12    14    1
    32    12    13    1
    33     1    34    1
    34     1    35    1
    35     1    36    1
    36     8    37    1
    37     8    38    1
    38     8    39    1
    39    10    40    1
    40    10    41    1
    41    11    42    1
    42    11    43    1
    43    14    44    1
    44    14    45    1
    45    15    46    1
    46    15    47    1
    47    16    48    1
    48    16    49    1
    49    17    50    1
    50    17    51    1
    51    18    52    1
    52    18    53    1
    53    19    54    1
    54    19    55    1
    55    20    56    1
    56    20    57    1
    57    21    58    1
    58    21    59    1
    59    22    60    1
    60    22    61    1
    61    23    62    1
    62    23    63    1
    63    24    64    1
    64    24    65    1
    65    25    66    1
    66    25    67    1
    67    27    68    1
    68    29    69    1
    69    29    70    1
    70    29    71    1
