REMARK  Name = NuBBE_452
REMARK  15 active torsions:
REMARK  status: ('A' for Active; 'I' for Inactive)
REMARK    1  A    between atoms: O_1  and  C_2
REMARK    2  A    between atoms: C_4  and  C_6
REMARK    3  A    between atoms: C_9  and  C_11
REMARK    4  A    between atoms: C_11  and  C_12
REMARK    5  A    between atoms: C_12  and  C_13
REMARK    6  A    between atoms: C_13  and  C_14
REMARK    7  A    between atoms: C_14  and  C_15
REMARK    8  A    between atoms: C_15  and  C_16
REMARK    9  A    between atoms: C_16  and  C_17
REMARK   10  A    between atoms: C_17  and  C_18
REMARK   11  A    between atoms: C_18  and  C_19
REMARK   12  A    between atoms: C_19  and  C_20
REMARK   13  A    between atoms: C_20  and  C_21
REMARK   14  A    between atoms: C_21  and  O_22
REMARK   15  A    between atoms: C_21  and  C_23
REMARK                            x       y       z     vdW  Elec       q    Type
REMARK                         _______ _______ _______ _____ _____    ______ ____
ROOT
ATOM      1  C   LIG A   1      -3.389   0.165   2.243  0.00  0.00    +0.002 C 
ENDROOT
BRANCH   1   2
ATOM      2  C   LIG A   1      -2.661  -0.129   3.603  0.00  0.00    +0.019 C 
BRANCH   2   8
ATOM      3  C   LIG A   1       1.285  -2.049   3.950  0.00  0.00    +0.131 C 
ATOM      4  C   LIG A   1       0.095  -2.542   4.807  0.00  0.00    +0.079 C 
ATOM      5  C   LIG A   1       0.619  -2.941   6.177  0.00  0.00    +0.026 C 
ATOM      6  N   LIG A   1      -0.968  -1.500   4.961  0.00  0.00    -0.308 NA
ATOM      7  H   LIG A   1      -1.662  -1.809   5.625  0.00  0.00    +0.122 HD
ATOM      8  C   LIG A   1      -1.624  -1.303   3.661  0.00  0.00    +0.054 C 
ATOM      9  C   LIG A   1      -0.524  -1.058   2.684  0.00  0.00    +0.021 C 
ATOM     10  C   LIG A   1       0.780  -1.793   2.568  0.00  0.00    +0.034 C 
BRANCH   3  11
ATOM     11  O   LIG A   1       1.823  -0.829   4.461  0.00  0.00    -0.390 OA
ATOM     12  H   LIG A   1       1.036  -0.305   4.748  0.00  0.00    +0.210 HD
ENDBRANCH   3  11
ENDBRANCH   2   8
ENDBRANCH   1   2
BRANCH   1  13
ATOM     13  C   LIG A   1      -2.662   0.839   1.032  0.00  0.00    +0.000 C 
BRANCH  13  14
ATOM     14  C   LIG A   1      -1.572   0.015   0.382  0.00  0.00    -0.000 C 
BRANCH  14  15
ATOM     15  C   LIG A   1      -0.692   0.412  -0.760  0.00  0.00    -0.000 C 
BRANCH  15  16
ATOM     16  C   LIG A   1      -1.502   0.569  -2.000  0.00  0.00    -0.000 C 
BRANCH  16  17
ATOM     17  C   LIG A   1      -0.636   1.079  -3.137  0.00  0.00    -0.000 C 
BRANCH  17  18
ATOM     18  C   LIG A   1       0.444   0.073  -3.551  0.00  0.00    +0.000 C 
BRANCH  18  19
ATOM     19  C   LIG A   1       1.238   0.482  -4.792  0.00  0.00    +0.002 C 
BRANCH  19  20
ATOM     20  C   LIG A   1       2.046   1.781  -4.641  0.00  0.00    +0.031 C 
BRANCH  20  21
ATOM     21  C   LIG A   1       2.857   2.107  -5.901  0.00  0.00    +0.111 C 
ATOM     22  C   LIG A   1       3.653   3.397  -5.746  0.00  0.00    +0.037 C 
BRANCH  21  23
ATOM     23  O   LIG A   1       1.978   2.259  -7.028  0.00  0.00    -0.392 OA
ATOM     24  H   LIG A   1       2.505   2.311  -7.802  0.00  0.00    +0.210 HD
ENDBRANCH  21  23
ENDBRANCH  20  21
ENDBRANCH  19  20
ENDBRANCH  18  19
ENDBRANCH  17  18
ENDBRANCH  16  17
ENDBRANCH  15  16
ENDBRANCH  14  15
ENDBRANCH  13  14
ENDBRANCH   1  13
TORSDOF 13
