REMARK  Name = NuBBE_230
REMARK  21 active torsions:
REMARK  status: ('A' for Active; 'I' for Inactive)
REMARK    1  A    between atoms: C_1  and  C_2
REMARK    2  A    between atoms: C_4  and  O_6
REMARK    3  A    between atoms: C_7  and  O_9
REMARK    4  A    between atoms: O_9  and  C_10
REMARK    5  A    between atoms: C_10  and  C_11
REMARK    6  A    between atoms: C_15  and  O_17
REMARK    7  A    between atoms: O_17  and  C_18
REMARK    8  A    between atoms: C_18  and  C_19
REMARK    9  A    between atoms: C_19  and  C_20
REMARK   10  A    between atoms: C_20  and  C_21
REMARK   11  A    between atoms: C_24  and  O_26
REMARK   12  A    between atoms: O_26  and  C_27
REMARK   13  A    between atoms: C_27  and  C_28
REMARK   14  A    between atoms: C_28  and  C_29
REMARK   15  A    between atoms: C_29  and  C_30
REMARK   16  A    between atoms: C_33  and  O_35
REMARK   17  A    between atoms: C_39  and  C_40
REMARK   18  A    between atoms: C_39  and  C_41
REMARK   19  A    between atoms: C_41  and  C_42
REMARK   20  A    between atoms: C_43  and  C_44
REMARK   21  A    between atoms: C_43  and  C_46
REMARK                            x       y       z     vdW  Elec       q    Type
REMARK                         _______ _______ _______ _____ _____    ______ ____
ROOT
ATOM      1  C   LIG A   1      -3.011   2.821   1.197  0.00  0.00    +0.011 C 
ATOM      2  C   LIG A   1      -2.168   1.717   0.543  0.00  0.00    +0.025 C 
ATOM      3  C   LIG A   1      -1.524   0.822   1.620  0.00  0.00    +0.159 C 
ATOM      4  C   LIG A   1      -0.254  -0.013   1.264  0.00  0.00    +0.222 C 
ATOM      5  C   LIG A   1       0.071  -0.280  -0.251  0.00  0.00    +0.103 C 
ATOM      6  C   LIG A   1      -0.313  -1.701  -0.720  0.00  0.00    +0.013 C 
ATOM      7  C   LIG A   1       0.778  -2.304  -1.585  0.00  0.00    +0.343 C 
ATOM      8  O   LIG A   1       1.763  -1.250  -1.653  0.00  0.00    -0.297 OA
ATOM      9  C   LIG A   1       1.625  -0.517  -0.423  0.00  0.00    +0.328 C 
ATOM     10  C   LIG A   1      -1.580  -2.141  -0.746  0.00  0.00    +0.010 C 
ATOM     11  C   LIG A   1      -2.632  -1.139  -1.014  0.00  0.00    +0.138 C 
ATOM     12  C   LIG A   1      -1.998  -0.012  -1.862  0.00  0.00    +0.040 C 
ATOM     13  C   LIG A   1      -0.709   0.714  -1.233  0.00  0.00    +0.018 C 
ATOM     14  C   LIG A   1      -1.189   2.119  -0.605  0.00  0.00    -0.020 C 
ATOM     15  C   LIG A   1      -1.955   2.927  -1.713  0.00  0.00    +0.012 C 
ENDROOT
BRANCH   3  16
ATOM     16  O   LIG A   1      -2.541  -0.051   2.130  0.00  0.00    -0.388 OA
ATOM     17  H   LIG A   1      -2.170  -0.516   2.903  0.00  0.00    +0.210 HD
ENDBRANCH   3  16
BRANCH  11  18
ATOM     18  O   LIG A   1      -3.639  -1.765  -1.806  0.00  0.00    -0.388 OA
ATOM     19  H   LIG A   1      -4.007  -2.487  -1.266  0.00  0.00    +0.210 HD
ENDBRANCH  11  18
BRANCH   4  20
ATOM     20  O   LIG A   1       0.837   0.696   1.938  0.00  0.00    -0.458 OA
BRANCH  20  21
ATOM     21  C   LIG A   1       0.972   0.427   3.272  0.00  0.00    +0.304 C 
ATOM     22  C   LIG A   1       1.538   1.600   4.017  0.00  0.00    +0.136 C 
ATOM     23  O   LIG A   1       0.594  -0.602   3.815  0.00  0.00    -0.251 OA
ENDBRANCH  20  21
ENDBRANCH   4  20
BRANCH   7  24
ATOM     24  O   LIG A   1       0.299  -2.547  -2.933  0.00  0.00    -0.431 OA
BRANCH  24  25
ATOM     25  C   LIG A   1      -0.435  -3.695  -3.097  0.00  0.00    +0.309 C 
ATOM     26  O   LIG A   1      -0.596  -4.522  -2.205  0.00  0.00    -0.251 OA
BRANCH  25  27
ATOM     27  C   LIG A   1      -1.019  -3.791  -4.462  0.00  0.00    +0.120 C 
BRANCH  27  28
ATOM     28  C   LIG A   1      -1.621  -5.208  -4.721  0.00  0.00    +0.008 C 
ATOM     29  C   LIG A   1      -2.848  -5.522  -3.878  0.00  0.00    +0.004 C 
ENDBRANCH  27  28
ENDBRANCH  25  27
ENDBRANCH  24  25
ENDBRANCH   7  24
BRANCH   9  30
ATOM     30  O   LIG A   1       2.128  -1.388   0.644  0.00  0.00    -0.434 OA
BRANCH  30  31
ATOM     31  C   LIG A   1       3.459  -1.436   0.923  0.00  0.00    +0.309 C 
ATOM     32  O   LIG A   1       4.274  -0.593   0.611  0.00  0.00    -0.251 OA
BRANCH  31  33
ATOM     33  C   LIG A   1       3.794  -2.769   1.599  0.00  0.00    +0.120 C 
BRANCH  33  34
ATOM     34  C   LIG A   1       4.433  -2.671   2.983  0.00  0.00    +0.008 C 
ATOM     35  C   LIG A   1       4.680  -4.050   3.603  0.00  0.00    +0.004 C 
ENDBRANCH  33  34
ENDBRANCH  31  33
ENDBRANCH  30  31
ENDBRANCH   9  30
BRANCH  14  36
ATOM     36  C   LIG A   1       0.005   3.043  -0.148  0.00  0.00    +0.034 C 
BRANCH  36  37
ATOM     37  C   LIG A   1      -0.400   4.407   0.394  0.00  0.00    -0.023 C 
ATOM     38  C   LIG A   1       0.356   5.412   0.869  0.00  0.00    -0.055 C 
ATOM     39  C   LIG A   1      -0.298   6.634   1.474  0.00  0.00    +0.043 C 
BRANCH  38  40
ATOM     40  C   LIG A   1       1.799   5.398   0.871  0.00  0.00    -0.005 C 
ATOM     41  C   LIG A   1       2.531   5.330  -0.247  0.00  0.00    +0.008 C 
ENDBRANCH  38  40
ENDBRANCH  36  37
ENDBRANCH  14  36
TORSDOF 15
