@<TRIPOS>MOLECULE
NuBBE_854
 43 46 0 0 0
SMALL
GASTEIGER

@<TRIPOS>ATOM
      1 O          -0.6328    3.2750   -1.4294 O.2     1  LIG1       -0.2891
      2 C          -0.1758    2.9069   -0.3426 C.2     1  LIG1        0.1961
      3 C           0.1654    3.9275    0.8288 C.3     1  LIG1        0.1537
      4 O          -1.1694    3.2977    1.1671 O.3     1  LIG1       -0.3783
      5 C           1.6815    3.5532    0.5532 C.3     1  LIG1        0.0189
      6 C           1.8868    2.3148    1.3990 C.3     1  LIG1        0.1191
      7 H           2.9423    2.0843    1.5684 H       1  LIG1        0.0678
      8 O           1.2348    2.6549    2.6261 O.3     1  LIG1       -0.3655
      9 C           0.5349    3.8868    2.3607 C.3     1  LIG1        0.0847
     10 C           0.1754    1.4410   -0.1607 C.2     1  LIG1        0.0384
     11 C           1.1483    1.1776    0.7389 C.2     1  LIG1        0.1337
     12 O           1.6116   -0.1010    1.0302 O.2     1  LIG1       -0.4869
     13 C           1.1721   -1.0975    0.0930 C.3     1  LIG1        0.1112
     14 C           2.1254   -1.0756   -1.1186 C.3     1  LIG1       -0.0247
     15 C          -0.3252   -0.9245   -0.2096 C.3     1  LIG1        0.0093
     16 C          -0.5827    0.3955   -0.9195 C.3     1  LIG1       -0.0140
     17 H          -0.8606   -0.8637    0.7543 H       1  LIG1        0.0348
     18 C          -0.7208   -2.2334   -0.8971 C.3     1  LIG1       -0.0135
     19 H          -0.3782   -2.2155   -1.9408 H       1  LIG1        0.0349
     20 C          -2.2176   -2.4751   -0.9063 C.2     1  LIG1       -0.0762
     21 C          -2.9133   -2.2108   -2.2154 C.3     1  LIG1       -0.0438
     22 C          -2.9135   -2.8854    0.1678 C.2     1  LIG1       -0.0994
     23 C           0.1467   -3.2886   -0.1538 C.3     1  LIG1       -0.0425
     24 C           1.1523   -2.5006    0.7082 C.3     1  LIG1       -0.0123
     25 H          -1.0440    2.5126    1.7422 H       1  LIG1        0.2109
     26 H           2.3294    4.3823    0.8800 H       1  LIG1        0.0327
     27 H           1.9809    3.4222   -0.4996 H       1  LIG1        0.0327
     28 H           1.1861    4.7287    2.6382 H       1  LIG1        0.0593
     29 H          -0.3114    3.9566    3.0578 H       1  LIG1        0.0593
     30 H           2.1296   -0.1035   -1.6220 H       1  LIG1        0.0268
     31 H           1.8864   -1.8387   -1.8646 H       1  LIG1        0.0268
     32 H           3.1564   -1.2444   -0.7851 H       1  LIG1        0.0268
     33 H          -1.6553    0.6188   -0.9163 H       1  LIG1        0.0319
     34 H          -0.2497    0.3679   -1.9625 H       1  LIG1        0.0319
     35 H          -3.9936   -2.3787   -2.1510 H       1  LIG1        0.0274
     36 H          -2.5199   -2.8729   -2.9937 H       1  LIG1        0.0274
     37 H          -2.7569   -1.1736   -2.5281 H       1  LIG1        0.0274
     38 H          -3.9874   -3.0433    0.1222 H       1  LIG1        0.0534
     39 H          -2.4408   -3.0626    1.1287 H       1  LIG1        0.0534
     40 H           0.6842   -3.8971   -0.8916 H       1  LIG1        0.0272
     41 H          -0.4239   -3.9846    0.4681 H       1  LIG1        0.0272
     42 H           2.1384   -2.9764    0.7274 H       1  LIG1        0.0304
     43 H           0.8038   -2.4569    1.7480 H       1  LIG1        0.0304
@<TRIPOS>BOND
     1     1     2    2
     2     2     3    1
     3     3     4    1
     4     3     5    1
     5     5     6    1
     6     6     7    1
     7     6     8    1
     8     8     9    1
     9     3     9    1
    10     2    10    1
    11    10    11    2
    12     6    11    1
    13    11    12    1
    14    12    13    1
    15    13    14    1
    16    13    15    1
    17    15    16    1
    18    10    16    1
    19    15    17    1
    20    15    18    1
    21    20    21    1
    22    20    22    2
    23    18    23    1
    24    23    24    1
    25    13    24    1
    26    18    20    1
    27    18    19    1
    28     4    25    1
    29     5    26    1
    30     5    27    1
    31     9    28    1
    32     9    29    1
    33    14    30    1
    34    14    31    1
    35    14    32    1
    36    16    33    1
    37    16    34    1
    38    21    35    1
    39    21    36    1
    40    21    37    1
    41    22    38    1
    42    22    39    1
    43    23    40    1
    44    23    41    1
    45    24    42    1
    46    24    43    1
