REMARK  Name = NuBBE_1593
REMARK  7 active torsions:
REMARK  status: ('A' for Active; 'I' for Inactive)
REMARK    1  A    between atoms: C_1  and  O_2
REMARK    2  A    between atoms: O_2  and  C_3
REMARK    3  A    between atoms: C_4  and  O_5
REMARK    4  A    between atoms: O_5  and  C_6
REMARK    5  A    between atoms: C_8  and  O_9
REMARK    6  A    between atoms: O_9  and  C_10
REMARK    7  A    between atoms: C_14  and  C_15
REMARK                            x       y       z     vdW  Elec       q    Type
REMARK                         _______ _______ _______ _____ _____    ______ ____
ROOT
ATOM      1  C   LIG A   1      -1.004  -1.193  -1.099  0.00  0.00    +0.205 A 
ATOM      2  C   LIG A   1      -1.283  -2.560  -1.267  0.00  0.00    +0.169 A 
ATOM      3  C   LIG A   1      -0.715  -3.487  -0.383  0.00  0.00    +0.096 A 
ATOM      4  C   LIG A   1       0.075  -3.089   0.700  0.00  0.00    +0.138 A 
ATOM      5  C   LIG A   1       0.343  -1.727   0.882  0.00  0.00    +0.109 A 
ATOM      6  C   LIG A   1      -0.193  -0.790  -0.010  0.00  0.00    +0.188 A 
ATOM      7  O   LIG A   1       0.046   0.565   0.122  0.00  0.00    -0.451 OA
ATOM      8  C   LIG A   1       0.922   1.013   1.098  0.00  0.00    +0.140 A 
ATOM      9  C   LIG A   1       1.504   0.208   1.993  0.00  0.00    +0.098 A 
ATOM     10  C   LIG A   1       1.197  -1.232   1.989  0.00  0.00    +0.197 A 
ATOM     11  O   LIG A   1       1.645  -1.928   2.883  0.00  0.00    -0.287 OA
ENDROOT
BRANCH   8  12
ATOM     12  C   LIG A   1       1.191   2.472   1.058  0.00  0.00    +0.021 A 
ATOM     13  C   LIG A   1       1.111   3.155  -0.168  0.00  0.00    +0.061 A 
ATOM     14  C   LIG A   1       1.355   4.513  -0.188  0.00  0.00    +0.167 A 
ATOM     15  C   LIG A   1       1.669   5.212   0.951  0.00  0.00    +0.166 A 
ATOM     16  O   LIG A   1       1.866   6.535   0.712  0.00  0.00    -0.453 OA
ATOM     17  C   LIG A   1       1.642   6.589  -0.713  0.00  0.00    +0.466 C 
ATOM     18  O   LIG A   1       1.317   5.308  -1.291  0.00  0.00    -0.453 OA
ATOM     19  C   LIG A   1       1.755   4.591   2.176  0.00  0.00    +0.050 A 
ATOM     20  C   LIG A   1       1.509   3.212   2.226  0.00  0.00    +0.015 A 
ENDBRANCH   8  12
BRANCH   1  22
ATOM     21  C   LIG A   1      -2.221  -0.425  -3.042  0.00  0.00    +0.277 C 
ATOM     22  O   LIG A   1      -1.421  -0.157  -1.899  0.00  0.00    -0.488 OA
ENDBRANCH   1  22
BRANCH   2  23
ATOM     23  O   LIG A   1      -2.021  -2.983  -2.342  0.00  0.00    -0.491 OA
ATOM     24  C   LIG A   1      -2.836  -4.137  -2.148  0.00  0.00    +0.277 C 
ENDBRANCH   2  23
BRANCH   4  25
ATOM     25  O   LIG A   1       0.674  -4.006   1.523  0.00  0.00    -0.494 OA
ATOM     26  C   LIG A   1      -0.069  -5.190   1.797  0.00  0.00    +0.277 C 
ENDBRANCH   4  25
TORSDOF 4
