REMARK  Name = NuBBE_1433
REMARK  4 active torsions:
REMARK  status: ('A' for Active; 'I' for Inactive)
REMARK    1  A    between atoms: C_1  and  C_2
REMARK    2  A    between atoms: C_2  and  C_4
REMARK    3  A    between atoms: C_16  and  O_17
REMARK    4  A    between atoms: O_17  and  C_18
REMARK                            x       y       z     vdW  Elec       q    Type
REMARK                         _______ _______ _______ _____ _____    ______ ____
ROOT
ATOM      1  C   LIG A   1      -3.759   1.584  -0.413  0.00  0.00    +0.060 C 
ATOM      2  C   LIG A   1      -2.464   1.925  -1.158  0.00  0.00    +0.124 C 
ATOM      3  O   LIG A   1      -1.377   1.515  -0.312  0.00  0.00    -0.479 OA
ATOM      4  C   LIG A   1      -2.338   3.446  -1.304  0.00  0.00    +0.060 C 
ATOM      5  C   LIG A   1      -2.493   1.296  -2.530  0.00  0.00    +0.020 C 
ATOM      6  C   LIG A   1      -1.647   0.338  -2.913  0.00  0.00    +0.011 C 
ATOM      7  C   LIG A   1      -0.655  -0.121  -1.954  0.00  0.00    +0.019 A 
ATOM      8  C   LIG A   1      -0.556   0.476  -0.689  0.00  0.00    +0.155 A 
ATOM      9  C   LIG A   1       0.399   0.065   0.257  0.00  0.00    +0.120 A 
ATOM     10  N   LIG A   1       0.454   0.684   1.452  0.00  0.00    -0.208 NA
ATOM     11  C   LIG A   1       1.408   0.257   2.286  0.00  0.00    +0.231 A 
ATOM     12  O   LIG A   1       1.617   0.802   3.519  0.00  0.00    -0.445 OA
ATOM     13  C   LIG A   1       2.665   0.144   4.078  0.00  0.00    +0.198 A 
ATOM     14  C   LIG A   1       3.135  -0.827   3.226  0.00  0.00    +0.055 A 
ATOM     15  C   LIG A   1       2.318  -0.766   2.067  0.00  0.00    +0.082 A 
ATOM     16  C   LIG A   1       2.221  -1.436   0.841  0.00  0.00    +0.142 A 
ATOM     17  C   LIG A   1       1.267  -0.997  -0.103  0.00  0.00    +0.046 A 
ATOM     18  C   LIG A   1       1.162  -1.589  -1.378  0.00  0.00    +0.014 A 
ATOM     19  C   LIG A   1       0.211  -1.156  -2.295  0.00  0.00    +0.012 A 
ENDROOT
BRANCH  16  20
ATOM     20  O   LIG A   1       3.098  -2.452   0.514  0.00  0.00    -0.494 OA
ATOM     21  C   LIG A   1       2.692  -3.669   1.143  0.00  0.00    +0.277 C 
ENDBRANCH  16  20
TORSDOF 1
