@<TRIPOS>MOLECULE
NuBBE_557
 68 72 0 0 0
SMALL
GASTEIGER

@<TRIPOS>ATOM
      1 O          -3.1448    6.6421   -2.7174 O.3     1  LIG1       -0.5065
      2 C          -3.0081    5.4435   -2.0819 C.ar    1  LIG1        0.1239
      3 C          -2.2688    4.3987   -2.6350 C.ar    1  LIG1        0.0231
      4 C          -2.1598    3.1898   -1.9369 C.ar    1  LIG1        0.1465
      5 C          -2.7915    3.0316   -0.7113 C.ar    1  LIG1        0.1092
      6 C          -3.5226    4.0943   -0.1639 C.ar    1  LIG1        0.1348
      7 O          -4.1581    4.0176    1.0464 O.3     1  LIG1       -0.5058
      8 C          -3.6348    5.2993   -0.8495 C.ar    1  LIG1        0.0223
      9 C          -2.7107    1.7292   -0.0386 C.ar    1  LIG1        0.2382
     10 C          -1.9448    0.6341   -0.7100 C.ar    1  LIG1        0.2138
     11 O          -1.9316   -0.6615   -0.2053 O.3     1  LIG1       -0.4532
     12 C          -2.0687   -0.8953    1.2271 C.3     1  LIG1        0.2311
     13 H          -3.0287   -0.5040    1.5709 H       1  LIG1        0.1084
     14 O          -0.9975   -0.2715    1.9296 O.3     1  LIG1       -0.3327
     15 C          -0.8091   -0.7074    3.2870 C.3     1  LIG1        0.0994
     16 H           0.1027   -0.1930    3.6167 H       1  LIG1        0.0632
     17 C          -0.5199   -2.2180    3.3209 C.3     1  LIG1        0.1575
     18 H          -0.3202   -2.5288    4.3539 H       1  LIG1        0.0787
     19 C          -1.6788   -3.0043    2.7338 C.3     1  LIG1        0.1261
     20 H          -1.3786   -4.0495    2.5884 H       1  LIG1        0.0659
     21 C          -2.1405   -2.4475    1.3788 C.3     1  LIG1        0.1465
     22 H          -1.5290   -2.9013    0.5899 H       1  LIG1        0.0683
     23 O          -3.4932   -2.9348    1.1730 O.3     1  LIG1       -0.3829
     24 O          -2.7718   -3.0373    3.6619 O.3     1  LIG1       -0.3852
     25 O           0.6305   -2.4018    2.4703 O.3     1  LIG1       -0.4529
     26 C           1.7499   -2.8847    3.0466 C.2     1  LIG1        0.3324
     27 C           2.9361   -2.2900    2.3867 C.2     1  LIG1        0.0231
     28 C           2.8529   -1.3953    1.3869 C.2     1  LIG1       -0.0478
     29 C           4.0130   -0.7887    0.7232 C.ar    1  LIG1       -0.0246
     30 C           5.2275   -1.4766    0.6033 C.ar    1  LIG1       -0.0511
     31 C           6.3030   -0.9147   -0.0843 C.ar    1  LIG1       -0.0196
     32 C           6.1614    0.3377   -0.6671 C.ar    1  LIG1        0.1169
     33 C           4.9682    1.0410   -0.5600 C.ar    1  LIG1       -0.0196
     34 C           3.8915    0.4767    0.1303 C.ar    1  LIG1       -0.0511
     35 O           7.1831    0.9070   -1.3659 O.3     1  LIG1       -0.5068
     36 O           1.8136   -3.6267    4.0002 O.2     1  LIG1       -0.2456
     37 C          -1.9294   -0.2545    4.2200 C.3     1  LIG1       -0.0350
     38 C          -1.3537    0.9508   -1.8888 C.ar    1  LIG1        0.1809
     39 O          -1.4160    2.1938   -2.5093 O.2     1  LIG1       -0.4507
     40 C          -0.5691    0.0021   -2.7109 C.ar    1  LIG1        0.0213
     41 C          -1.1869   -0.7361   -3.7326 C.ar    1  LIG1       -0.0475
     42 C          -0.4348   -1.5698   -4.5725 C.ar    1  LIG1       -0.0195
     43 C           0.9421   -1.6576   -4.3984 C.ar    1  LIG1        0.1169
     44 C           1.5778   -0.9124   -3.4130 C.ar    1  LIG1       -0.0195
     45 C           0.8249   -0.0828   -2.5719 C.ar    1  LIG1       -0.0475
     46 O           1.7116   -2.4634   -5.1848 O.3     1  LIG1       -0.5068
     47 O          -3.3232    1.5869    1.0163 O.2     1  LIG1       -0.2830
     48 H          -2.5934    6.6519   -3.5166 H       1  LIG1        0.2921
     49 H          -1.7855    4.5084   -3.6014 H       1  LIG1        0.0691
     50 H          -4.0061    3.1173    1.4130 H       1  LIG1        0.2922
     51 H          -4.2086    6.1181   -0.4243 H       1  LIG1        0.0691
     52 H          -3.9271   -2.3444    0.5300 H       1  LIG1        0.2102
     53 H          -3.5367   -3.3490    3.1345 H       1  LIG1        0.2101
     54 H           3.8794   -2.6032    2.8175 H       1  LIG1        0.0689
     55 H           1.8834   -1.0705    1.0097 H       1  LIG1        0.0626
     56 H           5.3512   -2.4678    1.0311 H       1  LIG1        0.0625
     57 H           7.2305   -1.4725   -0.1555 H       1  LIG1        0.0654
     58 H           4.8755    2.0228   -1.0159 H       1  LIG1        0.0654
     59 H           2.9627    1.0393    0.2020 H       1  LIG1        0.0625
     60 H           7.9170    0.2714   -1.4084 H       1  LIG1        0.2921
     61 H          -2.9191   -0.5752    3.8853 H       1  LIG1        0.0256
     62 H          -1.9643    0.8386    4.2653 H       1  LIG1        0.0256
     63 H          -1.7661   -0.6337    5.2349 H       1  LIG1        0.0256
     64 H          -2.2577   -0.6490   -3.8999 H       1  LIG1        0.0626
     65 H          -0.9354   -2.1254   -5.3598 H       1  LIG1        0.0654
     66 H           2.6585   -0.9699   -3.3048 H       1  LIG1        0.0654
     67 H           1.3437    0.5133   -1.8263 H       1  LIG1        0.0626
     68 H           1.1329   -2.9875   -5.7629 H       1  LIG1        0.2921
@<TRIPOS>BOND
     1     1     2    1
     2     2     3   ar
     3     3     4   ar
     4     4     5   ar
     5     5     6   ar
     6     6     7    1
     7     6     8   ar
     8     2     8   ar
     9     5     9   ar
    10     9    10   ar
    11    10    11    1
    12    11    12    1
    13    12    13    1
    14    12    14    1
    15    14    15    1
    16    15    17    1
    17    17    18    1
    18    17    19    1
    19    19    21    1
    20    12    21    1
    21    17    25    1
    22    25    26    1
    23    26    27    1
    24    27    28    2
    25    28    29    1
    26    29    30   ar
    27    30    31   ar
    28    31    32   ar
    29    32    33   ar
    30    33    34   ar
    31    29    34   ar
    32    32    35    1
    33    26    36    2
    34    10    38   ar
    35    38    39   ar
    36     4    39   ar
    37    38    40    1
    38    40    41   ar
    39    41    42   ar
    40    42    43   ar
    41    43    44   ar
    42    44    45   ar
    43    40    45   ar
    44    43    46    1
    45     9    47    2
    46    15    37    1
    47    15    16    1
    48    19    24    1
    49    19    20    1
    50    21    23    1
    51    21    22    1
    52     1    48    1
    53     3    49    1
    54     7    50    1
    55     8    51    1
    56    23    52    1
    57    24    53    1
    58    27    54    1
    59    28    55    1
    60    30    56    1
    61    31    57    1
    62    33    58    1
    63    34    59    1
    64    35    60    1
    65    37    61    1
    66    37    62    1
    67    37    63    1
    68    41    64    1
    69    42    65    1
    70    44    66    1
    71    45    67    1
    72    46    68    1
