REMARK  Name = NuBBE_1408
REMARK  0 active torsions:
REMARK  status: ('A' for Active; 'I' for Inactive)
REMARK                            x       y       z     vdW  Elec       q    Type
REMARK                         _______ _______ _______ _____ _____    ______ ____
ROOT
ATOM      1  O   LIG A   1      -3.976  -0.934   0.000  0.00  0.00    -0.245 OA
ATOM      2  C   LIG A   1      -2.752  -0.992   0.001  0.00  0.00    +0.337 A 
ATOM      3  C   LIG A   1      -2.061  -2.292   0.001  0.00  0.00    +0.092 A 
ATOM      4  C   LIG A   1      -0.729  -2.397   0.001  0.00  0.00    +0.018 A 
ATOM      5  O   LIG A   1      -1.953   0.142   0.000  0.00  0.00    -0.421 OA
ATOM      6  C   LIG A   1      -0.541   0.057   0.000  0.00  0.00    +0.150 A 
ATOM      7  C   LIG A   1       0.092  -1.195   0.001  0.00  0.00    +0.018 A 
ATOM      8  C   LIG A   1       1.490  -1.274   0.000  0.00  0.00    +0.015 A 
ATOM      9  C   LIG A   1       2.284  -0.119  -0.001  0.00  0.00    +0.048 A 
ATOM     10  C   LIG A   1       1.612   1.102  -0.001  0.00  0.00    +0.138 A 
ATOM     11  C   LIG A   1       0.229   1.232  -0.001  0.00  0.00    +0.063 A 
ATOM     12  C   LIG A   1      -0.028   2.629  -0.001  0.00  0.00    +0.053 A 
ATOM     13  C   LIG A   1       1.201   3.249  -0.001  0.00  0.00    +0.196 A 
ATOM     14  O   LIG A   1       2.202   2.330  -0.001  0.00  0.00    -0.463 OA
ENDROOT
TORSDOF 0
