@<TRIPOS>MOLECULE
NuBBE_937
 28 30 0 0 0
SMALL
GASTEIGER

@<TRIPOS>ATOM
      1 O          -2.7045    0.3120    0.1038 O.3     1  LIG1       -0.4937
      2 C          -3.4622    1.3098   -0.5679 C.3     1  LIG1        0.0788
      3 C          -1.3237    0.4302    0.0055 C.ar    1  LIG1        0.1417
      4 C          -0.5840   -0.7836    0.0005 C.ar    1  LIG1        0.0464
      5 C           0.8358   -0.7325   -0.0254 C.ar    1  LIG1        0.1198
      6 N           1.5051    0.4297   -0.0641 N.ar    1  LIG1       -0.2082
      7 C           0.7710    1.5433   -0.0366 C.ar    1  LIG1        0.2312
      8 C          -0.6149    1.6457    0.0087 C.ar    1  LIG1        0.0820
      9 C          -0.8865    3.0422    0.0672 C.ar    1  LIG1       -0.0109
     10 C           0.3290    3.6838    0.0296 C.ar    1  LIG1        0.0952
     11 O           1.3370    2.7820   -0.0345 O.2     1  LIG1       -0.4449
     12 C           1.5341   -1.9556   -0.0208 C.ar    1  LIG1        0.1461
     13 O           2.9039   -2.1235   -0.0456 O.3     1  LIG1       -0.4930
     14 C           3.6904   -1.1025    0.5590 C.3     1  LIG1        0.0789
     15 C           0.8604   -3.1860   -0.0361 C.ar    1  LIG1       -0.0178
     16 C          -0.5230   -3.2305   -0.0168 C.ar    1  LIG1       -0.0575
     17 C          -1.2361   -2.0386    0.0078 C.ar    1  LIG1       -0.0488
     18 H          -4.4596    0.9002   -0.7557 H       1  LIG1        0.0660
     19 H          -3.0276    1.5850   -1.5346 H       1  LIG1        0.0660
     20 H          -3.5910    2.1833    0.0764 H       1  LIG1        0.0660
     21 H          -1.8421    3.5391    0.1313 H       1  LIG1        0.0657
     22 H           0.6315    4.7218    0.0466 H       1  LIG1        0.1030
     23 H           4.6758   -1.5301    0.7702 H       1  LIG1        0.0660
     24 H           3.2697   -0.7693    1.5140 H       1  LIG1        0.0660
     25 H           3.8465   -0.2695   -0.1323 H       1  LIG1        0.0660
     26 H           1.4316   -4.1113   -0.0532 H       1  LIG1        0.0655
     27 H          -1.0429   -4.1844   -0.0203 H       1  LIG1        0.0619
     28 H          -2.3239   -2.0908    0.0233 H       1  LIG1        0.0625
@<TRIPOS>BOND
     1     1     2    1
     2     1     3    1
     3     3     4   ar
     4     4     5   ar
     5     5     6   ar
     6     6     7   ar
     7     7     8   ar
     8     3     8   ar
     9     8     9   ar
    10     9    10   ar
    11    10    11   ar
    12     7    11   ar
    13     5    12   ar
    14    12    13    1
    15    13    14    1
    16    12    15   ar
    17    15    16   ar
    18    16    17   ar
    19     4    17   ar
    20     2    18    1
    21     2    19    1
    22     2    20    1
    23     9    21    1
    24    10    22    1
    25    14    23    1
    26    14    24    1
    27    14    25    1
    28    15    26    1
    29    16    27    1
    30    17    28    1
