@<TRIPOS>MOLECULE
NuBBE_288
 68 73 0 0 0
SMALL
GASTEIGER

@<TRIPOS>ATOM
      1 O          -5.0925   -0.2224    2.3325 O.3     1  LIG1       -0.5065
      2 C          -3.7973   -0.6363    2.2387 C.ar    1  LIG1        0.1238
      3 C          -3.4375   -1.9598    2.4737 C.ar    1  LIG1        0.0218
      4 C          -2.0989   -2.3396    2.3449 C.ar    1  LIG1        0.1276
      5 O          -1.8383   -3.6569    2.6104 O.3     1  LIG1       -0.5062
      6 C          -1.1079   -1.4093    2.0009 C.ar    1  LIG1        0.0461
      7 C           0.3538   -1.7712    1.8219 C.3     1  LIG1        0.0528
      8 H           0.5708   -2.3602    2.7241 H       1  LIG1        0.0429
      9 C           1.3372   -0.5699    1.9073 C.3     1  LIG1        0.1074
     10 H           1.8431   -0.4114    0.9493 H       1  LIG1        0.0643
     11 C           0.6086    0.7140    2.3553 C.3     1  LIG1        0.1518
     12 H           0.3415    0.6256    3.4233 H       1  LIG1        0.0811
     13 O          -0.5919    0.9235    1.6003 O.3     1  LIG1       -0.4811
     14 C          -1.5013   -0.0741    1.8424 C.ar    1  LIG1        0.1323
     15 C          -2.8374    0.3091    1.9202 C.ar    1  LIG1        0.0221
     16 C           1.4535    1.9767    2.2169 C.ar    1  LIG1       -0.0012
     17 C           1.7569    2.7609    3.3472 C.ar    1  LIG1       -0.0513
     18 C           2.5106    3.9374    3.2337 C.ar    1  LIG1       -0.0162
     19 C           2.9631    4.3292    1.9792 C.ar    1  LIG1        0.1582
     20 C           2.6709    3.5634    0.8581 C.ar    1  LIG1        0.1586
     21 O           3.1248    3.9540   -0.3726 O.3     1  LIG1       -0.5033
     22 C           1.9175    2.3999    0.9600 C.ar    1  LIG1       -0.0098
     23 O           3.6982    5.4706    1.8007 O.3     1  LIG1       -0.5033
     24 O           2.3743   -0.8790    2.8679 O.3     1  LIG1       -0.3868
     25 C           0.6330   -2.6621    0.5961 C.ar    1  LIG1        0.0463
     26 C           0.3862   -2.2558   -0.7404 C.ar    1  LIG1        0.1355
     27 C           0.6128   -3.1345   -1.8235 C.ar    1  LIG1        0.0387
     28 C           0.3052   -2.7233   -3.2342 C.3     1  LIG1        0.0092
     29 C          -0.4845   -1.4287   -3.3299 C.3     1  LIG1        0.1004
     30 H          -1.5477   -1.6366   -3.1538 H       1  LIG1        0.0637
     31 C           0.0627   -0.4551   -2.2706 C.3     1  LIG1        0.1513
     32 H           1.1364   -0.2751   -2.4246 H       1  LIG1        0.0811
     33 O          -0.1022   -0.9854   -0.9388 O.3     1  LIG1       -0.4808
     34 C          -0.6435    0.8899   -2.3844 C.ar    1  LIG1       -0.0012
     35 C          -1.8534    1.1554   -1.7190 C.ar    1  LIG1       -0.0513
     36 C          -2.5105    2.3806   -1.8809 C.ar    1  LIG1       -0.0162
     37 C          -1.9660    3.3372   -2.7275 C.ar    1  LIG1        0.1582
     38 C          -0.7771    3.0805   -3.4021 C.ar    1  LIG1        0.1586
     39 O          -0.2531    4.0174   -4.2456 O.3     1  LIG1       -0.5033
     40 C          -0.1121    1.8744   -3.2361 C.ar    1  LIG1       -0.0098
     41 O          -2.5678    4.5470   -2.9377 O.3     1  LIG1       -0.5033
     42 O          -0.3378   -0.9593   -4.6762 O.3     1  LIG1       -0.3875
     43 C           1.1553   -4.3983   -1.5658 C.ar    1  LIG1        0.1271
     44 C           1.4377   -4.8050   -0.2707 C.ar    1  LIG1        0.0221
     45 C           1.1724   -3.9467    0.7916 C.ar    1  LIG1        0.1277
     46 O           1.4356   -4.3750    2.0653 O.3     1  LIG1       -0.5062
     47 O           1.4449   -5.3073   -2.5450 O.3     1  LIG1       -0.5063
     48 H          -5.6391   -0.9807    2.5999 H       1  LIG1        0.2921
     49 H          -4.1743   -2.7029    2.7533 H       1  LIG1        0.0691
     50 H          -0.8887   -3.8408    2.5087 H       1  LIG1        0.2921
     51 H          -3.1182    1.3474    1.7605 H       1  LIG1        0.0691
     52 H           1.4016    2.4622    4.3304 H       1  LIG1        0.0623
     53 H           2.7246    4.5180    4.1230 H       1  LIG1        0.0655
     54 H           3.6052    4.7874   -0.1986 H       1  LIG1        0.2923
     55 H           1.6883    1.8357    0.0600 H       1  LIG1        0.0659
     56 H           3.7903    5.9061    2.6629 H       1  LIG1        0.2923
     57 H           2.8154   -1.6907    2.5594 H       1  LIG1        0.2100
     58 H          -0.2671   -3.5070   -3.7471 H       1  LIG1        0.0342
     59 H           1.2531   -2.6201   -3.7801 H       1  LIG1        0.0342
     60 H          -2.2903    0.4063   -1.0615 H       1  LIG1        0.0623
     61 H          -3.4357    2.5603   -1.3425 H       1  LIG1        0.0655
     62 H          -0.8492    4.7870   -4.1537 H       1  LIG1        0.2923
     63 H           0.8120    1.7012   -3.7830 H       1  LIG1        0.0659
     64 H          -3.3472    4.5967   -2.3576 H       1  LIG1        0.2923
     65 H          -0.9572   -0.2153   -4.7959 H       1  LIG1        0.2100
     66 H           1.8544   -5.7954   -0.1142 H       1  LIG1        0.0691
     67 H           1.8770   -5.2428    2.0167 H       1  LIG1        0.2921
     68 H           1.2966   -4.9206   -3.4229 H       1  LIG1        0.2921
@<TRIPOS>BOND
     1     1     2    1
     2     2     3   ar
     3     3     4   ar
     4     4     5    1
     5     4     6   ar
     6     6     7    1
     7     7     9    1
     8     9    10    1
     9     9    11    1
    10    11    12    1
    11    11    13    1
    12    13    14    1
    13     6    14   ar
    14    14    15   ar
    15     2    15   ar
    16    11    16    1
    17    16    17   ar
    18    17    18   ar
    19    18    19   ar
    20    19    20   ar
    21    20    21    1
    22    20    22   ar
    23    16    22   ar
    24    19    23    1
    25     9    24    1
    26    25    26   ar
    27    26    27   ar
    28    27    28    1
    29    28    29    1
    30    29    30    1
    31    29    31    1
    32    31    32    1
    33    31    33    1
    34    26    33    1
    35    31    34    1
    36    34    35   ar
    37    35    36   ar
    38    36    37   ar
    39    37    38   ar
    40    38    39    1
    41    38    40   ar
    42    34    40   ar
    43    37    41    1
    44    29    42    1
    45    27    43   ar
    46    43    44   ar
    47    44    45   ar
    48    25    45   ar
    49    45    46    1
    50    43    47    1
    51     7    25    1
    52     7     8    1
    53     1    48    1
    54     3    49    1
    55     5    50    1
    56    15    51    1
    57    17    52    1
    58    18    53    1
    59    21    54    1
    60    22    55    1
    61    23    56    1
    62    24    57    1
    63    28    58    1
    64    28    59    1
    65    35    60    1
    66    36    61    1
    67    39    62    1
    68    40    63    1
    69    41    64    1
    70    42    65    1
    71    44    66    1
    72    46    67    1
    73    47    68    1
