@<TRIPOS>MOLECULE
NuBBE_1796
 63 63 0 0 0
SMALL
GASTEIGER

@<TRIPOS>ATOM
      1 O          -3.2292   -1.0518    2.3024 O.2     1  LIG1       -0.2505
      2 C          -2.0225   -1.1584    2.0537 C.2     1  LIG1        0.3107
      3 O          -1.4499   -2.2706    1.5105 O.3     1  LIG1       -0.4611
      4 C          -0.9891   -0.0898    2.2768 C.3     1  LIG1        0.0632
      5 C          -0.4483   -0.0910    3.7234 C.3     1  LIG1        0.0006
      6 C           0.6187    0.9934    4.0190 C.3     1  LIG1        0.1377
      7 O          -0.0182    2.2704    3.8059 O.3     1  LIG1       -0.4581
      8 C           0.1029    2.8137    2.5672 C.2     1  LIG1        0.3043
      9 C          -1.0245    3.7667    2.3218 C.3     1  LIG1        0.0332
     10 O           0.9195    2.4750    1.7198 O.2     1  LIG1       -0.2512
     11 C           1.1529    0.9413    5.4689 C.3     1  LIG1        0.1293
     12 O           0.0993    1.1259    6.4332 O.3     1  LIG1       -0.4611
     13 C          -0.0758    2.4031    6.8770 C.2     1  LIG1        0.3041
     14 C          -1.2621    2.4937    7.7895 C.3     1  LIG1        0.0332
     15 O           0.5996    3.3699    6.5555 O.2     1  LIG1       -0.2512
     16 C           0.0192   -0.4959    1.2291 C.3     1  LIG1       -0.0026
     17 C          -0.0618   -2.0035    1.2627 C.3     1  LIG1        0.1038
     18 C           0.3478   -2.5995   -0.0749 C.3     1  LIG1       -0.0156
     19 C           1.8140   -2.3253   -0.4241 C.3     1  LIG1       -0.0497
     20 C           2.1999   -2.8845   -1.7950 C.3     1  LIG1       -0.0529
     21 C           1.4169   -2.2783   -2.9610 C.3     1  LIG1       -0.0531
     22 C           1.6717   -0.7772   -3.1339 C.3     1  LIG1       -0.0531
     23 C           0.9637   -0.1967   -4.3489 C.3     1  LIG1       -0.0531
     24 C          -0.5575   -0.3302   -4.2906 C.3     1  LIG1       -0.0531
     25 C          -1.2245    0.2621   -5.5308 C.3     1  LIG1       -0.0533
     26 C          -0.7582   -0.4297   -6.8142 C.3     1  LIG1       -0.0559
     27 C          -1.4633    0.1082   -8.0418 C.3     1  LIG1       -0.0653
     28 H          -1.4401    0.8689    2.0047 H       1  LIG1        0.0416
     29 H          -0.0461   -1.0792    3.9741 H       1  LIG1        0.0310
     30 H          -1.3085    0.0735    4.3840 H       1  LIG1        0.0310
     31 H           1.4895    0.8666    3.3645 H       1  LIG1        0.0768
     32 H          -1.9743    3.2765    2.5634 H       1  LIG1        0.0342
     33 H          -1.0500    4.0211    1.2584 H       1  LIG1        0.0342
     34 H          -0.8969    4.6710    2.9163 H       1  LIG1        0.0342
     35 H           1.9461    1.6859    5.6158 H       1  LIG1        0.0735
     36 H           1.6099   -0.0348    5.6727 H       1  LIG1        0.0735
     37 H          -1.5378    1.5092    8.1772 H       1  LIG1        0.0342
     38 H          -2.1043    2.9143    7.2352 H       1  LIG1        0.0342
     39 H          -1.0150    3.1332    8.6416 H       1  LIG1        0.0342
     40 H           1.0343   -0.1230    1.3756 H       1  LIG1        0.0309
     41 H          -0.3292   -0.1265    0.2534 H       1  LIG1        0.0309
     42 H           0.5160   -2.4383    2.0885 H       1  LIG1        0.0734
     43 H          -0.3095   -2.1610   -0.8340 H       1  LIG1        0.0301
     44 H           0.1398   -3.6756   -0.0910 H       1  LIG1        0.0301
     45 H           2.4658   -2.7673    0.3391 H       1  LIG1        0.0266
     46 H           2.0171   -1.2493   -0.4065 H       1  LIG1        0.0266
     47 H           2.0438   -3.9697   -1.7935 H       1  LIG1        0.0265
     48 H           3.2706   -2.7182   -1.9602 H       1  LIG1        0.0265
     49 H           0.3506   -2.4788   -2.8207 H       1  LIG1        0.0265
     50 H           1.6988   -2.8001   -3.8832 H       1  LIG1        0.0265
     51 H           2.7461   -0.6086   -3.2745 H       1  LIG1        0.0265
     52 H           1.3658   -0.2173   -2.2446 H       1  LIG1        0.0265
     53 H           1.3643   -0.7036   -5.2318 H       1  LIG1        0.0265
     54 H           1.2273    0.8640   -4.4436 H       1  LIG1        0.0265
     55 H          -0.9354    0.1759   -3.3934 H       1  LIG1        0.0265
     56 H          -0.8530   -1.3817   -4.2106 H       1  LIG1        0.0265
     57 H          -1.0044    1.3350   -5.5826 H       1  LIG1        0.0265
     58 H          -2.3110    0.1602   -5.4250 H       1  LIG1        0.0265
     59 H          -0.9211   -1.5113   -6.7371 H       1  LIG1        0.0263
     60 H           0.3151   -0.2746   -6.9631 H       1  LIG1        0.0263
     61 H          -2.5261   -0.1461   -8.0240 H       1  LIG1        0.0230
     62 H          -1.0186   -0.3274   -8.9422 H       1  LIG1        0.0230
     63 H          -1.3607    1.1958   -8.1042 H       1  LIG1        0.0230
@<TRIPOS>BOND
     1     1     2    2
     2     2     3    1
     3     2     4    1
     4     4     5    1
     5     5     6    1
     6     6     7    1
     7     7     8    1
     8     8     9    1
     9     8    10    2
    10     6    11    1
    11    11    12    1
    12    12    13    1
    13    13    14    1
    14    13    15    2
    15     4    16    1
    16    16    17    1
    17     3    17    1
    18    17    18    1
    19    18    19    1
    20    19    20    1
    21    20    21    1
    22    21    22    1
    23    22    23    1
    24    23    24    1
    25    24    25    1
    26    25    26    1
    27    26    27    1
    28     4    28    1
    29     5    29    1
    30     5    30    1
    31     6    31    1
    32     9    32    1
    33     9    33    1
    34     9    34    1
    35    11    35    1
    36    11    36    1
    37    14    37    1
    38    14    38    1
    39    14    39    1
    40    16    40    1
    41    16    41    1
    42    17    42    1
    43    18    43    1
    44    18    44    1
    45    19    45    1
    46    19    46    1
    47    20    47    1
    48    20    48    1
    49    21    49    1
    50    21    50    1
    51    22    51    1
    52    22    52    1
    53    23    53    1
    54    23    54    1
    55    24    55    1
    56    24    56    1
    57    25    57    1
    58    25    58    1
    59    26    59    1
    60    26    60    1
    61    27    61    1
    62    27    62    1
    63    27    63    1
