@<TRIPOS>MOLECULE
NuBBE_371
 60 64 0 0 0
SMALL
GASTEIGER

@<TRIPOS>ATOM
      1 O           2.5285   -7.1641    3.9673 O.3     1  LIG1       -0.5032
      2 C           1.8787   -6.1843    3.2708 C.ar    1  LIG1        0.1618
      3 C           2.5976   -5.1465    2.6783 C.ar    1  LIG1        0.0265
      4 C           1.9161   -4.1536    1.9714 C.ar    1  LIG1        0.1430
      5 O           2.6860   -3.1652    1.4075 O.2     1  LIG1       -0.4542
      6 C           2.0569   -2.1728    0.6942 C.ar    1  LIG1        0.1463
      7 C           2.8830   -1.2029    0.1242 C.ar    1  LIG1        0.0235
      8 C           2.3278   -0.1553   -0.6189 C.ar    1  LIG1        0.1296
      9 C           0.9456   -0.0594   -0.8320 C.ar    1  LIG1        0.0684
     10 C           0.3339    1.0473   -1.6874 C.3     1  LIG1        0.1303
     11 H          -0.7020    0.7651   -1.8598 H       1  LIG1        0.0687
     12 O           0.9086    1.0381   -3.0068 O.3     1  LIG1       -0.3598
     13 C           0.2251    1.9559   -3.8711 C.3     1  LIG1        0.1109
     14 H          -0.8603    1.7798   -3.8428 H       1  LIG1        0.0646
     15 C           0.5222    3.3850   -3.4060 C.3     1  LIG1        0.1128
     16 H           1.6053    3.5599   -3.4063 H       1  LIG1        0.0647
     17 C          -0.0186    3.5902   -1.9906 C.3     1  LIG1        0.1231
     18 H          -1.1085    3.6795   -2.0276 H       1  LIG1        0.0658
     19 C           0.4136    2.4575   -1.0316 C.3     1  LIG1        0.1618
     20 H           1.4468    2.6783   -0.7316 H       1  LIG1        0.0791
     21 O          -0.3533    2.5180    0.1979 O.3     1  LIG1       -0.4522
     22 C          -1.6714    2.1874    0.1199 C.2     1  LIG1        0.3396
     23 C          -2.3007    2.2708    1.4489 C.ar    1  LIG1        0.0590
     24 C          -3.5273    1.6218    1.6365 C.ar    1  LIG1       -0.0478
     25 C          -4.2105    1.7781    2.8405 C.ar    1  LIG1       -0.0610
     26 C          -3.6648    2.5744    3.8476 C.ar    1  LIG1       -0.0617
     27 C          -2.4318    3.2028    3.6655 C.ar    1  LIG1       -0.0610
     28 C          -1.7428    3.0465    2.4671 C.ar    1  LIG1       -0.0478
     29 O          -2.2887    1.8866   -0.8765 O.2     1  LIG1       -0.2449
     30 O           0.4295    4.8764   -1.5174 O.3     1  LIG1       -0.3854
     31 O          -0.0508    4.3822   -4.2718 O.3     1  LIG1       -0.3865
     32 C           0.6903    1.7197   -5.3086 C.3     1  LIG1        0.0729
     33 O           0.0270    2.5748   -6.2346 O.3     1  LIG1       -0.3924
     34 C           0.1271   -1.0406   -0.2300 C.ar    1  LIG1        0.1405
     35 O          -1.2326   -0.9486   -0.3960 O.3     1  LIG1       -0.5054
     36 O           3.1502    0.8015   -1.1447 O.3     1  LIG1       -0.5062
     37 C           0.6805   -2.0909    0.5212 C.ar    1  LIG1        0.1064
     38 C          -0.1564   -3.1399    1.1278 C.ar    1  LIG1        0.2038
     39 O          -1.3768   -3.1181    1.0086 O.2     1  LIG1       -0.2863
     40 C           0.5270   -4.2064    1.8698 C.ar    1  LIG1        0.0684
     41 C          -0.1995   -5.2473    2.4590 C.ar    1  LIG1       -0.0022
     42 C           0.4863   -6.2359    3.1592 C.ar    1  LIG1        0.1591
     43 O          -0.1924   -7.2665    3.7455 O.3     1  LIG1       -0.5033
     44 H           3.4829   -6.9939    3.9584 H       1  LIG1        0.2923
     45 H           3.6790   -5.0993    2.7578 H       1  LIG1        0.0692
     46 H           3.9577   -1.2803    0.2601 H       1  LIG1        0.0691
     47 H          -3.9582    1.0157    0.8420 H       1  LIG1        0.0626
     48 H          -5.1733    1.2945    2.9822 H       1  LIG1        0.0618
     49 H          -4.2075    2.7136    4.7787 H       1  LIG1        0.0618
     50 H          -2.0137    3.8314    4.4464 H       1  LIG1        0.0618
     51 H          -0.7945    3.5588    2.3218 H       1  LIG1        0.0626
     52 H           0.4144    5.4760   -2.2909 H       1  LIG1        0.2101
     53 H          -1.0230    4.3434   -4.1755 H       1  LIG1        0.2100
     54 H           0.4813    0.6846   -5.5977 H       1  LIG1        0.0584
     55 H           1.7725    1.8631   -5.3937 H       1  LIG1        0.0584
     56 H           0.0909    3.4850   -5.8771 H       1  LIG1        0.2095
     57 H          -1.6642   -1.7111    0.0528 H       1  LIG1        0.2922
     58 H           4.0745    0.5854   -0.9389 H       1  LIG1        0.2922
     59 H          -1.2814   -5.2741    2.3652 H       1  LIG1        0.0663
     60 H          -1.1422   -7.1722    3.5714 H       1  LIG1        0.2923
@<TRIPOS>BOND
     1     1     2    1
     2     2     3   ar
     3     3     4   ar
     4     4     5   ar
     5     5     6   ar
     6     6     7   ar
     7     7     8   ar
     8     8     9   ar
     9    10    12    1
    10    12    13    1
    11    13    14    1
    12    13    15    1
    13    15    17    1
    14    17    18    1
    15    17    19    1
    16    10    19    1
    17    21    22    1
    18    22    23    1
    19    23    24   ar
    20    24    25   ar
    21    25    26   ar
    22    26    27   ar
    23    27    28   ar
    24    23    28   ar
    25    22    29    2
    26    17    30    1
    27    13    32    1
    28    32    33    1
    29     9    34   ar
    30    34    35    1
    31     8    36    1
    32     6    37   ar
    33    34    37   ar
    34    37    38   ar
    35    38    39    2
    36     4    40   ar
    37    38    40   ar
    38    40    41   ar
    39    41    42   ar
    40     2    42   ar
    41    42    43    1
    42    10    11    1
    43    10     9    1
    44    15    31    1
    45    15    16    1
    46    19    21    1
    47    19    20    1
    48     1    44    1
    49     3    45    1
    50     7    46    1
    51    24    47    1
    52    25    48    1
    53    26    49    1
    54    27    50    1
    55    28    51    1
    56    30    52    1
    57    31    53    1
    58    32    54    1
    59    32    55    1
    60    33    56    1
    61    35    57    1
    62    36    58    1
    63    41    59    1
    64    43    60    1
