REMARK  Name = NuBBE_1250
REMARK  11 active torsions:
REMARK  status: ('A' for Active; 'I' for Inactive)
REMARK    1  A    between atoms: C_5  and  O_6
REMARK    2  A    between atoms: C_7  and  O_40
REMARK    3  A    between atoms: C_14  and  O_15
REMARK    4  A    between atoms: C_16  and  O_17
REMARK    5  A    between atoms: O_17  and  C_18
REMARK    6  A    between atoms: C_21  and  C_35
REMARK    7  A    between atoms: C_23  and  O_34
REMARK    8  A    between atoms: C_25  and  O_33
REMARK    9  A    between atoms: C_27  and  O_29
REMARK   10  A    between atoms: O_29  and  C_30
REMARK   11  A    between atoms: C_30  and  C_31
REMARK                            x       y       z     vdW  Elec       q    Type
REMARK                         _______ _______ _______ _____ _____    ______ ____
ROOT
ATOM      1  O   LIG A   1      -2.626  -5.634  -1.627  0.00  0.00    -0.244 OA
ATOM      2  C   LIG A   1      -2.296  -4.660  -0.962  0.00  0.00    +0.345 A 
ATOM      3  C   LIG A   1      -2.906  -4.398   0.371  0.00  0.00    +0.074 A 
ATOM      4  C   LIG A   1      -3.834  -5.298   0.933  0.00  0.00    +0.065 A 
ATOM      5  C   LIG A   1      -4.380  -5.022   2.188  0.00  0.00    +0.163 A 
ATOM      6  C   LIG A   1      -4.028  -3.862   2.873  0.00  0.00    +0.202 A 
ATOM      7  C   LIG A   1      -3.115  -2.986   2.306  0.00  0.00    +0.185 A 
ATOM      8  O   LIG A   1      -2.747  -1.833   3.030  0.00  0.00    -0.418 OA
ATOM      9  C   LIG A   1      -2.538  -3.247   1.067  0.00  0.00    +0.047 A 
ATOM     10  C   LIG A   1      -1.567  -2.331   0.536  0.00  0.00    +0.047 A 
ATOM     11  C   LIG A   1      -0.962  -2.577  -0.686  0.00  0.00    +0.185 A 
ATOM     12  O   LIG A   1      -1.329  -3.743  -1.411  0.00  0.00    -0.418 OA
ATOM     13  C   LIG A   1      -0.003  -1.692  -1.211  0.00  0.00    +0.203 A 
ATOM     14  C   LIG A   1       0.320  -0.497  -0.531  0.00  0.00    +0.170 A 
ATOM     15  C   LIG A   1      -0.292  -0.262   0.703  0.00  0.00    +0.065 A 
ATOM     16  C   LIG A   1      -1.206  -1.187   1.242  0.00  0.00    +0.074 A 
ATOM     17  C   LIG A   1      -1.764  -0.954   2.596  0.00  0.00    +0.345 A 
ATOM     18  O   LIG A   1      -1.360  -0.031   3.296  0.00  0.00    -0.244 OA
ENDROOT
BRANCH   5  19
ATOM     19  O   LIG A   1      -5.259  -5.867   2.806  0.00  0.00    -0.503 OA
ATOM     20  H   LIG A   1      -5.404  -6.647   2.243  0.00  0.00    +0.292 HD
ENDBRANCH   5  19
BRANCH  13  21
ATOM     21  O   LIG A   1       0.616  -1.984  -2.397  0.00  0.00    -0.501 OA
ATOM     22  H   LIG A   1       0.213  -2.794  -2.760  0.00  0.00    +0.292 HD
ENDBRANCH  13  21
BRANCH   6  23
ATOM     23  O   LIG A   1      -4.560  -3.603   4.103  0.00  0.00    -0.501 OA
ATOM     24  H   LIG A   1      -5.128  -4.368   4.315  0.00  0.00    +0.292 HD
ENDBRANCH   6  23
BRANCH  14  25
ATOM     25  O   LIG A   1       1.259   0.339  -1.093  0.00  0.00    -0.456 OA
BRANCH  25  26
ATOM     26  C   LIG A   1       1.238   1.761  -0.770  0.00  0.00    +0.352 C 
ATOM     27  O   LIG A   1       0.061   2.366  -1.315  0.00  0.00    -0.333 OA
ATOM     28  C   LIG A   1      -0.005   3.795  -1.202  0.00  0.00    +0.151 C 
ATOM     29  C   LIG A   1       1.217   4.480  -1.846  0.00  0.00    +0.175 C 
ATOM     30  C   LIG A   1       2.524   3.939  -1.267  0.00  0.00    +0.192 C 
ATOM     31  C   LIG A   1       2.546   2.400  -1.325  0.00  0.00    +0.275 C 
ATOM     32  C   LIG A   1      -0.277   4.231   0.238  0.00  0.00    +0.040 C 
BRANCH  30  33
ATOM     33  O   LIG A   1       2.692   4.416   0.075  0.00  0.00    -0.385 OA
ATOM     34  H   LIG A   1       3.566   4.104   0.373  0.00  0.00    +0.210 HD
ENDBRANCH  30  33
BRANCH  29  35
ATOM     35  O   LIG A   1       1.227   4.241  -3.260  0.00  0.00    -0.387 OA
ATOM     36  H   LIG A   1       0.365   4.514  -3.620  0.00  0.00    +0.210 HD
ENDBRANCH  29  35
BRANCH  31  37
ATOM     37  O   LIG A   1       3.634   1.881  -0.518  0.00  0.00    -0.453 OA
BRANCH  37  38
ATOM     38  C   LIG A   1       4.880   1.894  -1.077  0.00  0.00    +0.304 C 
ATOM     39  C   LIG A   1       5.773   0.984  -0.272  0.00  0.00    +0.136 C 
ATOM     40  O   LIG A   1       5.212   2.513  -2.065  0.00  0.00    -0.251 OA
ENDBRANCH  37  38
ENDBRANCH  31  37
ENDBRANCH  25  26
ENDBRANCH  14  25
TORSDOF 9
