@<TRIPOS>MOLECULE
NuBBE_909
 43 45 0 0 0
SMALL
GASTEIGER

@<TRIPOS>ATOM
      1 S          -2.1394    1.7986   -0.4897 S.3     1  LIG1       -0.1290
      2 C          -2.5517    3.2111    0.5732 C.3     1  LIG1       -0.0156
      3 C          -0.4352    1.3432    0.1721 C.3     1  LIG1        0.1643
      4 N           0.0379    0.1921   -0.5881 N.am    1  LIG1       -0.2664
      5 C           0.6348    0.6135   -1.8433 C.3     1  LIG1        0.0790
      6 H          -0.1865    0.7744   -2.5544 H       1  LIG1        0.0577
      7 C           1.2314    1.9407   -1.4251 C.2     1  LIG1       -0.0432
      8 C           2.3119    2.4517   -2.0340 C.2     1  LIG1       -0.0608
      9 C           2.9277    1.7312   -3.1274 C.2     1  LIG1       -0.0632
     10 C           2.6813    0.4237   -3.3204 C.2     1  LIG1       -0.0538
     11 C           1.6923   -0.3383   -2.4749 C.3     1  LIG1        0.0960
     12 H           2.2386   -0.8961   -1.7052 H       1  LIG1        0.0660
     13 O           1.0619   -1.2925   -3.3311 O.3     1  LIG1       -0.3856
     14 C           0.6005    2.4337   -0.1468 C.3     1  LIG1        0.0102
     15 C          -0.4943   -1.0604   -0.3670 C.2     1  LIG1        0.2539
     16 O          -0.5344   -1.9034   -1.2606 O.2     1  LIG1       -0.2721
     17 C          -0.6891   -1.4027    1.1593 C.3     1  LIG1        0.1830
     18 N          -1.1632   -0.2226    1.9464 N.am    1  LIG1       -0.2777
     19 C          -0.5958    1.0406    1.6838 C.2     1  LIG1        0.2512
     20 O          -0.5014    1.9270    2.5310 O.2     1  LIG1       -0.2722
     21 C          -1.6994   -0.4391    3.2834 C.3     1  LIG1        0.0051
     22 C          -1.6498   -2.6294    1.2133 C.3     1  LIG1        0.0837
     23 O          -1.8090   -3.1970    2.5163 O.3     1  LIG1       -0.3915
     24 S           1.0421   -1.8077    1.8258 S.3     1  LIG1       -0.1271
     25 C           1.5123   -3.2295    0.8086 C.3     1  LIG1       -0.0156
     26 H          -3.4839    3.6544    0.2117 H       1  LIG1        0.0341
     27 H          -1.7808    3.9832    0.5374 H       1  LIG1        0.0341
     28 H          -2.7153    2.8928    1.6049 H       1  LIG1        0.0341
     29 H           2.7811    3.3707   -1.6959 H       1  LIG1        0.0618
     30 H           3.6450    2.2604   -3.7481 H       1  LIG1        0.0615
     31 H           3.1922   -0.1194   -4.1094 H       1  LIG1        0.0598
     32 H           0.3763   -1.7300   -2.7811 H       1  LIG1        0.2103
     33 H           0.1801    3.4343   -0.2697 H       1  LIG1        0.0345
     34 H           1.3690    2.4785    0.6347 H       1  LIG1        0.0345
     35 H          -2.6324   -1.0029    3.2106 H       1  LIG1        0.0429
     36 H          -1.9395    0.5109    3.7708 H       1  LIG1        0.0429
     37 H          -0.9721   -0.9691    3.9030 H       1  LIG1        0.0429
     38 H          -1.3074   -3.4374    0.5576 H       1  LIG1        0.0592
     39 H          -2.6426   -2.3280    0.8578 H       1  LIG1        0.0592
     40 H          -2.5050   -3.8746    2.4506 H       1  LIG1        0.2095
     41 H           2.5600   -3.4666    1.0171 H       1  LIG1        0.0341
     42 H           1.4389   -3.0138   -0.2580 H       1  LIG1        0.0341
     43 H           0.9127   -4.1064    1.0609 H       1  LIG1        0.0341
@<TRIPOS>BOND
     1     1     2    1
     2     1     3    1
     3     3     4    1
     4     4     5    1
     5     5     6    1
     6     5     7    1
     7     7     8    2
     8     8     9    1
     9     9    10    2
    10    10    11    1
    11     5    11    1
    12     7    14    1
    13     3    14    1
    14     4    15   am
    15    15    16    2
    16    15    17    1
    17    17    18    1
    18    18    19   am
    19     3    19    1
    20    19    20    2
    21    18    21    1
    22    17    22    1
    23    22    23    1
    24    17    24    1
    25    24    25    1
    26    11    13    1
    27    11    12    1
    28     2    26    1
    29     2    27    1
    30     2    28    1
    31     8    29    1
    32     9    30    1
    33    10    31    1
    34    13    32    1
    35    14    33    1
    36    14    34    1
    37    21    35    1
    38    21    36    1
    39    21    37    1
    40    22    38    1
    41    22    39    1
    42    23    40    1
    43    25    41    1
    44    25    42    1
    45    25    43    1
