@<TRIPOS>MOLECULE
NuBBE_1655
 54 53 0 0 0
SMALL
GASTEIGER

@<TRIPOS>ATOM
      1 C           2.5180    0.7393   -1.2722 C.2     1  LIG1       -0.0762
      2 C           1.6734    0.1773   -2.1604 C.2     1  LIG1       -0.0847
      3 C           1.7794    0.1132   -3.6538 C.3     1  LIG1       -0.0308
      4 C           0.3858    0.1388   -4.3174 C.3     1  LIG1       -0.0281
      5 C          -0.3973    1.4130   -3.9990 C.2     1  LIG1       -0.0656
      6 C          -1.5941    1.3288   -3.3724 C.2     1  LIG1        0.0213
      7 C          -2.5273    2.3688   -2.9099 C.2     1  LIG1        0.3295
      8 O          -3.7193    2.0977   -2.6703 O.2     1  LIG1       -0.2458
      9 O          -2.0168    3.5802   -2.6843 O.3     1  LIG1       -0.4775
     10 C           0.2878    2.6685   -4.4495 C.3     1  LIG1       -0.0433
     11 C           2.2452    0.7242    0.2228 C.3     1  LIG1       -0.0286
     12 C           0.9360    0.0547    0.6252 C.3     1  LIG1       -0.0308
     13 C           0.7635    0.0320    2.1078 C.2     1  LIG1       -0.0847
     14 C           0.8644   -1.0514    2.9038 C.2     1  LIG1       -0.0762
     15 C           0.3202   -0.9420    4.3341 C.3     1  LIG1       -0.0286
     16 C          -1.1288   -0.3587    4.5497 C.3     1  LIG1       -0.0303
     17 C          -2.4302   -1.0407    4.0622 C.2     1  LIG1       -0.0740
     18 C          -2.6783   -1.8085    2.9769 C.2     1  LIG1        0.0294
     19 C          -3.9785   -2.3568    2.4870 C.2     1  LIG1        0.3322
     20 O          -4.0765   -3.3363    1.8074 O.2     1  LIG1       -0.2455
     21 O          -5.0109   -1.5200    2.7661 O.3     1  LIG1       -0.4774
     22 C          -1.6678   -2.2838    2.0269 C.3     1  LIG1       -0.0332
     23 C           1.2573   -2.4482    2.3682 C.3     1  LIG1       -0.0438
     24 C           3.8224    1.3970   -1.6347 C.3     1  LIG1       -0.0438
     25 H           0.7653   -0.3009   -1.8005 H       1  LIG1        0.0572
     26 H           2.2801   -0.8229   -3.9224 H       1  LIG1        0.0310
     27 H           2.3874    0.9370   -4.0377 H       1  LIG1        0.0310
     28 H          -0.1776   -0.7542   -4.0106 H       1  LIG1        0.0313
     29 H           0.5050    0.0544   -5.4048 H       1  LIG1        0.0313
     30 H          -1.9962    0.3395   -3.1513 H       1  LIG1        0.0688
     31 H          -1.0477    3.6197   -2.7679 H       1  LIG1        0.2954
     32 H           1.0532    2.4548   -5.2040 H       1  LIG1        0.0274
     33 H           0.7973    3.1339   -3.5990 H       1  LIG1        0.0274
     34 H          -0.4090    3.3762   -4.9045 H       1  LIG1        0.0274
     35 H           2.2469    1.7554    0.5984 H       1  LIG1        0.0313
     36 H           3.0704    0.1971    0.7202 H       1  LIG1        0.0313
     37 H           0.8973   -0.9548    0.2086 H       1  LIG1        0.0310
     38 H           0.0772    0.5850    0.1899 H       1  LIG1        0.0310
     39 H           0.4549    0.9851    2.5336 H       1  LIG1        0.0572
     40 H           1.0194   -0.2855    4.8733 H       1  LIG1        0.0313
     41 H           0.3702   -1.9112    4.8417 H       1  LIG1        0.0313
     42 H          -1.1606    0.6799    4.1878 H       1  LIG1        0.0311
     43 H          -1.2371   -0.2483    5.6426 H       1  LIG1        0.0311
     44 H          -3.2673   -0.8123    4.7261 H       1  LIG1        0.0577
     45 H          -4.6930   -0.6723    3.1138 H       1  LIG1        0.2954
     46 H          -0.8363   -2.2886    2.6680 H       1  LIG1        0.0280
     47 H          -1.5568   -1.6257    1.1631 H       1  LIG1        0.0280
     48 H          -1.6942   -3.3320    1.7224 H       1  LIG1        0.0280
     49 H           0.9556   -2.5802    1.3180 H       1  LIG1        0.0274
     50 H           0.7426   -3.2757    2.8834 H       1  LIG1        0.0274
     51 H           2.3212   -2.6459    2.4494 H       1  LIG1        0.0274
     52 H           4.1027    1.2429   -2.6790 H       1  LIG1        0.0274
     53 H           4.6352    0.9880   -1.0233 H       1  LIG1        0.0274
     54 H           3.7661    2.4745   -1.4494 H       1  LIG1        0.0274
@<TRIPOS>BOND
     1     1     2    2
     2     2     3    1
     3     3     4    1
     4     4     5    1
     5     5     6    2
     6     6     7    1
     7     7     8    2
     8     7     9    1
     9     5    10    1
    10     1    11    1
    11    11    12    1
    12    12    13    1
    13    13    14    2
    14    14    15    1
    15    15    16    1
    16    16    17    1
    17    17    18    2
    18    18    19    1
    19    19    20    2
    20    19    21    1
    21    18    22    1
    22    14    23    1
    23     1    24    1
    24     2    25    1
    25     3    26    1
    26     3    27    1
    27     4    28    1
    28     4    29    1
    29     6    30    1
    30     9    31    1
    31    10    32    1
    32    10    33    1
    33    10    34    1
    34    11    35    1
    35    11    36    1
    36    12    37    1
    37    12    38    1
    38    13    39    1
    39    15    40    1
    40    15    41    1
    41    16    42    1
    42    16    43    1
    43    17    44    1
    44    21    45    1
    45    22    46    1
    46    22    47    1
    47    22    48    1
    48    23    49    1
    49    23    50    1
    50    23    51    1
    51    24    52    1
    52    24    53    1
    53    24    54    1
