@<TRIPOS>MOLECULE
NuBBE_2302
 61 66 0 0 0
SMALL
GASTEIGER

@<TRIPOS>ATOM
      1 C          -3.7406   -0.9791    0.4485 C.ar    1  LIG1        0.1417
      2 C          -4.3090   -0.0029    1.2694 C.ar    1  LIG1       -0.0181
      3 C          -3.6185    1.1835    1.5526 C.ar    1  LIG1       -0.0579
      4 C          -2.3464    1.4086    1.0231 C.ar    1  LIG1       -0.0559
      5 C          -1.7869    0.4469    0.1878 C.ar    1  LIG1       -0.0126
      6 C          -0.4106    0.4411   -0.5038 C.3     1  LIG1        0.0366
      7 C           0.7135    0.9857    0.3726 C.3     1  LIG1        0.0301
      8 H           0.2761    1.2107    1.3544 H       1  LIG1        0.0478
      9 C           1.9584    0.0947    0.5836 C.3     1  LIG1        0.0135
     10 C           1.4084   -1.1619    1.2979 C.3     1  LIG1       -0.0416
     11 C           0.1816   -1.8001    0.5829 C.3     1  LIG1       -0.0295
     12 C          -0.2889   -1.0919   -0.7666 C.3     1  LIG1        0.0535
     13 N          -1.7425   -1.4989   -1.0458 N.am    1  LIG1       -0.2611
     14 C          -2.5055   -0.7152   -0.1354 C.ar    1  LIG1        0.0826
     15 C          -2.2286   -1.7076   -2.3489 C.2     1  LIG1        0.2173
     16 O          -1.5076   -1.7926   -3.3417 O.2     1  LIG1       -0.2755
     17 C          -3.7169   -1.8563   -2.5663 C.3     1  LIG1        0.0127
     18 C           0.7030   -1.5150   -1.8702 C.3     1  LIG1       -0.0301
     19 C           2.1668   -1.5587   -1.4789 C.3     1  LIG1       -0.0504
     20 C           2.6860   -0.3376   -0.7360 C.3     1  LIG1       -0.0435
     21 C           2.9705    0.9438    1.5046 C.3     1  LIG1        0.0665
     22 C           2.4203    2.3512    1.8610 C.3     1  LIG1       -0.0132
     23 C           1.8600    3.1075    0.6379 C.3     1  LIG1        0.0016
     24 N           1.1717    2.2077   -0.2666 N.3     1  LIG1       -0.2978
     25 C           0.1185    2.7237   -1.1147 C.3     1  LIG1        0.0001
     26 C          -0.4566    1.4245   -1.6909 C.3     1  LIG1       -0.0270
     27 O           4.2507    1.0671    0.8601 O.3     1  LIG1       -0.3791
     28 C           5.2808    1.6642    1.6300 C.3     1  LIG1        0.0368
     29 O          -4.4569   -2.1301    0.2951 O.3     1  LIG1       -0.4932
     30 C          -3.7360   -3.3011    0.6819 C.3     1  LIG1        0.0789
     31 H          -5.2866   -0.1753    1.7131 H       1  LIG1        0.0655
     32 H          -4.0732    1.9264    2.2043 H       1  LIG1        0.0619
     33 H          -1.8177    2.3241    1.2702 H       1  LIG1        0.0621
     34 H           1.0999   -0.8963    2.3187 H       1  LIG1        0.0273
     35 H           2.1993   -1.9120    1.4218 H       1  LIG1        0.0273
     36 H          -0.6335   -1.8208    1.3178 H       1  LIG1        0.0286
     37 H           0.3805   -2.8624    0.3868 H       1  LIG1        0.0286
     38 H          -3.9120   -1.8778   -3.6445 H       1  LIG1        0.0323
     39 H          -4.2822   -1.0139   -2.1671 H       1  LIG1        0.0323
     40 H          -4.0597   -2.8081   -2.1591 H       1  LIG1        0.0323
     41 H           0.6075   -0.8863   -2.7590 H       1  LIG1        0.0286
     42 H           0.4574   -2.5353   -2.1956 H       1  LIG1        0.0286
     43 H           2.7653   -1.6958   -2.3890 H       1  LIG1        0.0266
     44 H           2.3631   -2.4610   -0.8854 H       1  LIG1        0.0266
     45 H           2.7542    0.5061   -1.4321 H       1  LIG1        0.0272
     46 H           3.7206   -0.6156   -0.4985 H       1  LIG1        0.0272
     47 H           3.1350    0.3881    2.4366 H       1  LIG1        0.0602
     48 H           3.1756    2.9781    2.3444 H       1  LIG1        0.0303
     49 H           1.6245    2.2344    2.6087 H       1  LIG1        0.0303
     50 H           2.6802    3.5946    0.0991 H       1  LIG1        0.0427
     51 H           1.1921    3.8972    1.0021 H       1  LIG1        0.0427
     52 H           0.5059    3.3722   -1.9062 H       1  LIG1        0.0427
     53 H          -0.6389    3.2739   -0.5473 H       1  LIG1        0.0427
     54 H           0.1930    1.1039   -2.5106 H       1  LIG1        0.0287
     55 H          -1.4591    1.5801   -2.1039 H       1  LIG1        0.0287
     56 H           6.2407    1.3840    1.1871 H       1  LIG1        0.0524
     57 H           5.2601    1.3226    2.6684 H       1  LIG1        0.0524
     58 H           5.2038    2.7540    1.5818 H       1  LIG1        0.0524
     59 H          -4.3447   -3.8430    1.4123 H       1  LIG1        0.0660
     60 H          -2.7612   -3.1020    1.1390 H       1  LIG1        0.0660
     61 H          -3.6047   -3.9460   -0.1915 H       1  LIG1        0.0660
@<TRIPOS>BOND
     1     1     2   ar
     2     2     3   ar
     3     3     4   ar
     4     4     5   ar
     5     5     6    1
     6     6     7    1
     7     7     9    1
     8     9    10    1
     9    10    11    1
    10    11    12    1
    11     6    12    1
    12    12    13    1
    13    13    14    1
    14     1    14   ar
    15     5    14   ar
    16    15    16    2
    17    15    17    1
    18    12    18    1
    19    18    19    1
    20    19    20    1
    21     9    20    1
    22     9    21    1
    23    21    22    1
    24    22    23    1
    25    23    24    1
    26     7    24    1
    27    24    25    1
    28    25    26    1
    29     6    26    1
    30    27    28    1
    31    29    30    1
    32     1    29    1
    33     7     8    1
    34    13    15   am
    35    21    27    1
    36     2    31    1
    37     3    32    1
    38     4    33    1
    39    10    34    1
    40    10    35    1
    41    11    36    1
    42    11    37    1
    43    17    38    1
    44    17    39    1
    45    17    40    1
    46    18    41    1
    47    18    42    1
    48    19    43    1
    49    19    44    1
    50    20    45    1
    51    20    46    1
    52    21    47    1
    53    22    48    1
    54    22    49    1
    55    23    50    1
    56    23    51    1
    57    25    52    1
    58    25    53    1
    59    26    54    1
    60    26    55    1
    61    28    56    1
    62    28    57    1
    63    28    58    1
    64    30    59    1
    65    30    60    1
    66    30    61    1
