REMARK  Name = NuBBE_1384
REMARK  4 active torsions:
REMARK  status: ('A' for Active; 'I' for Inactive)
REMARK    1  A    between atoms: C_1  and  C_2
REMARK    2  A    between atoms: C_2  and  C_3
REMARK    3  A    between atoms: C_3  and  C_4
REMARK    4  A    between atoms: C_5  and  C_6
REMARK                            x       y       z     vdW  Elec       q    Type
REMARK                         _______ _______ _______ _____ _____    ______ ____
ROOT
ATOM      1  C   LIG A   1       0.999   0.432  -0.231  0.00  0.00    -0.024 C 
ATOM      2  C   LIG A   1       1.758   0.905   0.770  0.00  0.00    +0.038 C 
ENDROOT
BRANCH   2   3
ATOM      3  C   LIG A   1       3.231   0.886   0.664  0.00  0.00    +0.250 C 
ATOM      4  O   LIG A   1       3.942   1.318   1.564  0.00  0.00    -0.296 OA
ENDBRANCH   2   3
BRANCH   1   5
ATOM      5  C   LIG A   1      -0.505   0.446  -0.211  0.00  0.00    +0.027 C 
BRANCH   5   7
ATOM      6  C   LIG A   1      -2.608  -0.948  -0.349  0.00  0.00    +0.004 C 
ATOM      7  C   LIG A   1      -1.086  -0.964  -0.337  0.00  0.00    +0.001 C 
ENDBRANCH   5   7
ENDBRANCH   1   5
TORSDOF 3
