REMARK  Name = NuBBE_94
REMARK  10 active torsions:
REMARK  status: ('A' for Active; 'I' for Inactive)
REMARK    1  A    between atoms: C_6  and  C_7
REMARK    2  A    between atoms: C_9  and  C_10
REMARK    3  A    between atoms: C_15  and  C_16
REMARK    4  A    between atoms: C_19  and  C_20
REMARK    5  A    between atoms: C_21  and  C_22
REMARK    6  A    between atoms: C_25  and  C_26
REMARK    7  A    between atoms: C_30  and  C_31
REMARK    8  A    between atoms: C_30  and  C_32
REMARK    9  A    between atoms: C_32  and  O_33
REMARK   10  A    between atoms: O_33  and  C_34
REMARK                            x       y       z     vdW  Elec       q    Type
REMARK                         _______ _______ _______ _____ _____    ______ ____
ROOT
ATOM      1  O   LIG A   1       5.954  -3.272  -1.657  0.00  0.00    -0.284 OA
ATOM      2  C   LIG A   1       5.620  -2.185  -1.217  0.00  0.00    +0.226 C 
ATOM      3  C   LIG A   1       6.603  -1.266  -0.512  0.00  0.00    +0.233 C 
ATOM      4  C   LIG A   1       6.034  -0.230   0.366  0.00  0.00    +0.035 A 
ATOM      5  C   LIG A   1       6.881   0.514   1.195  0.00  0.00    +0.032 A 
ATOM      6  C   LIG A   1       6.343   1.459   2.073  0.00  0.00    +0.070 A 
ATOM      7  C   LIG A   1       4.947   1.604   2.171  0.00  0.00    +0.077 A 
ATOM      8  C   LIG A   1       4.097   0.835   1.338  0.00  0.00    +0.002 A 
ATOM      9  C   LIG A   1       2.630   0.853   1.486  0.00  0.00    +0.010 C 
ATOM     10  C   LIG A   1       1.789   0.478   0.497  0.00  0.00    -0.052 C 
ATOM     11  C   LIG A   1       2.384   0.047  -0.872  0.00  0.00    +0.015 C 
ATOM     12  C   LIG A   1       2.671   1.312  -1.732  0.00  0.00    +0.021 C 
ATOM     13  C   LIG A   1       1.437  -0.859  -1.706  0.00  0.00    +0.016 C 
ATOM     14  C   LIG A   1      -0.059  -0.569  -1.569  0.00  0.00    +0.009 C 
ATOM     15  C   LIG A   1      -0.531  -0.548  -0.089  0.00  0.00    -0.020 C 
ATOM     16  C   LIG A   1      -0.187  -1.948   0.498  0.00  0.00    +0.012 C 
ATOM     17  C   LIG A   1       0.242   0.618   0.664  0.00  0.00    -0.004 C 
ATOM     18  C   LIG A   1      -0.080   2.044   0.112  0.00  0.00    +0.016 C 
ATOM     19  C   LIG A   1      -0.248   0.617   2.154  0.00  0.00    +0.012 C 
ATOM     20  C   LIG A   1      -1.768   0.776   2.332  0.00  0.00    +0.008 C 
ATOM     21  C   LIG A   1      -2.649  -0.159   1.468  0.00  0.00    -0.029 C 
ATOM     22  C   LIG A   1      -2.810  -1.506   2.223  0.00  0.00    +0.011 C 
ATOM     23  C   LIG A   1      -2.089  -0.268   0.005  0.00  0.00    +0.003 C 
ATOM     24  C   LIG A   1      -2.994  -1.163  -0.880  0.00  0.00    +0.022 C 
ATOM     25  C   LIG A   1      -4.477  -0.718  -0.901  0.00  0.00    +0.065 C 
ATOM     26  C   LIG A   1      -5.348  -1.879  -1.440  0.00  0.00    +0.023 C 
ATOM     27  C   LIG A   1      -5.023  -0.351   0.497  0.00  0.00    +0.018 C 
ATOM     28  C   LIG A   1      -4.066   0.471   1.363  0.00  0.00    +0.008 C 
ATOM     29  C   LIG A   1       4.650  -0.025   0.372  0.00  0.00    -0.002 A 
ATOM     30  C   LIG A   1       3.775  -0.636  -0.661  0.00  0.00    -0.025 C 
ATOM     31  C   LIG A   1       4.241  -1.677  -1.376  0.00  0.00    +0.060 C 
ATOM     32  O   LIG A   1       7.809  -1.389  -0.655  0.00  0.00    -0.283 OA
ENDROOT
BRANCH   6  33
ATOM     33  C   LIG A   1       7.241   2.256   2.856  0.00  0.00    +0.101 C 
ATOM     34  N   LIG A   1       7.981   2.905   3.476  0.00  0.00    -0.191 NA
ENDBRANCH   6  33
BRANCH   7  35
ATOM     35  C   LIG A   1       4.395   2.564   3.087  0.00  0.00    +0.101 C 
ATOM     36  N   LIG A   1       3.933   3.338   3.820  0.00  0.00    -0.191 NA
ENDBRANCH   7  35
BRANCH  25  37
ATOM     37  C   LIG A   1      -4.637   0.490  -1.849  0.00  0.00    +0.313 C 
ATOM     38  O   LIG A   1      -4.532   1.663  -1.516  0.00  0.00    -0.250 OA
BRANCH  37  39
ATOM     39  O   LIG A   1      -4.919   0.077  -3.115  0.00  0.00    -0.468 OA
ATOM     40  C   LIG A   1      -5.494   1.056  -3.980  0.00  0.00    +0.280 C 
ENDBRANCH  37  39
ENDBRANCH  25  37
TORSDOF 4
