REMARK  Name = NuBBE_1645
REMARK  21 active torsions:
REMARK  status: ('A' for Active; 'I' for Inactive)
REMARK    1  A    between atoms: C_1  and  C_2
REMARK    2  A    between atoms: C_1  and  C_21
REMARK    3  A    between atoms: C_2  and  C_3
REMARK    4  A    between atoms: C_3  and  C_4
REMARK    5  A    between atoms: C_3  and  C_20
REMARK    6  A    between atoms: C_4  and  C_5
REMARK    7  A    between atoms: C_5  and  C_6
REMARK    8  A    between atoms: C_6  and  C_7
REMARK    9  A    between atoms: C_7  and  C_8
REMARK   10  A    between atoms: C_7  and  C_19
REMARK   11  A    between atoms: C_8  and  C_9
REMARK   12  A    between atoms: C_9  and  C_10
REMARK   13  A    between atoms: C_10  and  C_11
REMARK   14  A    between atoms: C_11  and  C_12
REMARK   15  A    between atoms: C_11  and  C_18
REMARK   16  A    between atoms: C_12  and  C_13
REMARK   17  A    between atoms: C_13  and  C_14
REMARK   18  A    between atoms: C_14  and  C_15
REMARK   19  A    between atoms: C_15  and  C_16
REMARK   20  A    between atoms: C_15  and  C_17
REMARK   21  A    between atoms: C_29  and  O_31
REMARK                            x       y       z     vdW  Elec       q    Type
REMARK                         _______ _______ _______ _____ _____    ______ ____
ROOT
ATOM      1  C   LIG A   1      -4.060   1.049   0.975  0.00  0.00    -0.014 C 
ATOM      2  C   LIG A   1      -4.948   2.093   1.651  0.00  0.00    +0.007 C 
ENDROOT
BRANCH   1   3
ATOM      3  C   LIG A   1      -4.912  -0.232   0.778  0.00  0.00    +0.003 C 
BRANCH   3   4
ATOM      4  C   LIG A   1      -4.252  -1.355  -0.017  0.00  0.00    +0.000 C 
BRANCH   4   5
ATOM      5  C   LIG A   1      -3.856  -0.953  -1.442  0.00  0.00    +0.003 C 
BRANCH   5   6
ATOM      6  C   LIG A   1      -3.102  -2.062  -2.207  0.00  0.00    -0.014 C 
ATOM      7  C   LIG A   1      -3.994  -3.282  -2.450  0.00  0.00    +0.007 C 
BRANCH   6   8
ATOM      8  C   LIG A   1      -1.810  -2.513  -1.492  0.00  0.00    +0.003 C 
BRANCH   8   9
ATOM      9  C   LIG A   1      -0.802  -1.388  -1.284  0.00  0.00    +0.000 C 
BRANCH   9  10
ATOM     10  C   LIG A   1       0.420  -1.862  -0.471  0.00  0.00    +0.003 C 
BRANCH  10  11
ATOM     11  C   LIG A   1       1.534  -0.799  -0.311  0.00  0.00    -0.014 C 
ATOM     12  C   LIG A   1       1.983  -0.349  -1.703  0.00  0.00    +0.007 C 
BRANCH  11  13
ATOM     13  C   LIG A   1       2.765  -1.229   0.565  0.00  0.00    +0.003 C 
BRANCH  13  14
ATOM     14  C   LIG A   1       3.635  -2.366  -0.010  0.00  0.00    +0.000 C 
BRANCH  14  15
ATOM     15  C   LIG A   1       4.857  -2.861   0.818  0.00  0.00    +0.003 C 
BRANCH  15  16
ATOM     16  C   LIG A   1       6.009  -1.872   1.143  0.00  0.00    -0.017 C 
ATOM     17  C   LIG A   1       7.165  -2.547   1.913  0.00  0.00    +0.007 C 
ATOM     18  C   LIG A   1       6.617  -1.214  -0.097  0.00  0.00    +0.007 C 
ENDBRANCH  15  16
ENDBRANCH  14  15
ENDBRANCH  13  14
ENDBRANCH  11  13
ENDBRANCH  10  11
ENDBRANCH   9  10
ENDBRANCH   8   9
ENDBRANCH   6   8
ENDBRANCH   5   6
ENDBRANCH   4   5
ENDBRANCH   3   4
ENDBRANCH   1   3
BRANCH   1  19
ATOM     19  C   LIG A   1      -2.743   0.768   1.747  0.00  0.00    +0.008 C 
BRANCH  19  20
ATOM     20  C   LIG A   1      -1.808   1.969   2.053  0.00  0.00    +0.039 C 
BRANCH  20  21
ATOM     21  C   LIG A   1      -1.153   2.712   0.906  0.00  0.00    -0.001 A 
ATOM     22  C   LIG A   1      -0.607   3.982   1.036  0.00  0.00    +0.139 A 
ATOM     23  C   LIG A   1       0.127   4.588   0.013  0.00  0.00    +0.009 A 
ATOM     24  C   LIG A   1       0.499   5.943   0.441  0.00  0.00    +0.160 C 
ATOM     25  C   LIG A   1      -0.095   5.981   1.845  0.00  0.00    +0.317 C 
ATOM     26  O   LIG A   1      -0.008   6.905   2.594  0.00  0.00    -0.250 OA
ATOM     27  O   LIG A   1      -0.763   4.787   2.149  0.00  0.00    -0.425 OA
ATOM     28  C   LIG A   1       0.384   3.964  -1.181  0.00  0.00    +0.053 A 
ATOM     29  C   LIG A   1      -0.200   2.729  -1.360  0.00  0.00    +0.118 A 
ATOM     30  C   LIG A   1      -0.977   2.136  -0.353  0.00  0.00    +0.052 A 
BRANCH  29  31
ATOM     31  O   LIG A   1      -0.032   2.106  -2.559  0.00  0.00    -0.507 OA
ATOM     32  H   LIG A   1      -0.294   1.177  -2.446  0.00  0.00    +0.292 HD
ENDBRANCH  29  31
ENDBRANCH  20  21
ENDBRANCH  19  20
ENDBRANCH   1  19
TORSDOF 16
