@<TRIPOS>MOLECULE
NuBBE_2113
 45 44 0 0 0
SMALL
GASTEIGER

@<TRIPOS>ATOM
      1 C          -3.7999    4.3963   -3.0442 C.2     1  LIG1       -0.1026
      2 C          -2.7909    4.9149   -3.7269 C.2     1  LIG1       -0.0911
      3 C          -1.3061    4.8452   -3.4187 C.3     1  LIG1       -0.0350
      4 C          -0.8649    4.0195   -2.1902 C.3     1  LIG1       -0.0496
      5 C          -1.2096    2.5295   -2.3187 C.3     1  LIG1       -0.0528
      6 C          -0.8638    1.6493   -1.1194 C.3     1  LIG1       -0.0530
      7 C           0.6331    1.4684   -0.8572 C.3     1  LIG1       -0.0531
      8 C           0.8272    0.5297    0.3412 C.3     1  LIG1       -0.0531
      9 C           2.2865    0.1942    0.6600 C.3     1  LIG1       -0.0531
     10 C           2.4152   -0.7557    1.8756 C.3     1  LIG1       -0.0531
     11 C           1.7861   -2.1479    1.6585 C.3     1  LIG1       -0.0531
     12 C           1.9319   -3.0995    2.8589 C.3     1  LIG1       -0.0531
     13 C           1.2983   -4.4906    2.6379 C.3     1  LIG1       -0.0533
     14 C          -0.2234   -4.4961    2.4444 C.3     1  LIG1       -0.0559
     15 C          -0.7663   -5.9095    2.2449 C.3     1  LIG1       -0.0653
     16 H          -4.8325    4.4804   -3.3932 H       1  LIG1        0.0532
     17 H          -3.6699    3.8334   -2.1096 H       1  LIG1        0.0532
     18 H          -3.0330    5.4675   -4.6388 H       1  LIG1        0.0566
     19 H          -0.9532    5.8729   -3.2939 H       1  LIG1        0.0307
     20 H          -0.7990    4.4510   -4.3039 H       1  LIG1        0.0307
     21 H          -1.3039    4.4528   -1.2833 H       1  LIG1        0.0268
     22 H           0.2241    4.1331   -2.0926 H       1  LIG1        0.0268
     23 H          -0.7511    2.1249   -3.2267 H       1  LIG1        0.0265
     24 H          -2.2843    2.4028   -2.4556 H       1  LIG1        0.0265
     25 H          -1.2996    0.6598   -1.3179 H       1  LIG1        0.0265
     26 H          -1.3660    2.0259   -0.2193 H       1  LIG1        0.0265
     27 H           1.1023    2.4362   -0.6551 H       1  LIG1        0.0265
     28 H           1.1081    1.0455   -1.7504 H       1  LIG1        0.0265
     29 H           0.2768   -0.3949    0.1418 H       1  LIG1        0.0265
     30 H           0.3758    0.9922    1.2271 H       1  LIG1        0.0265
     31 H           2.8199    1.1270    0.8871 H       1  LIG1        0.0265
     32 H           2.7809   -0.2423   -0.2166 H       1  LIG1        0.0265
     33 H           1.9438   -0.2756    2.7420 H       1  LIG1        0.0265
     34 H           3.4796   -0.8655    2.1176 H       1  LIG1        0.0265
     35 H           2.2440   -2.6129    0.7782 H       1  LIG1        0.0265
     36 H           0.7209   -2.0250    1.4516 H       1  LIG1        0.0265
     37 H           1.5019   -2.6436    3.7590 H       1  LIG1        0.0265
     38 H           2.9997   -3.2508    3.0638 H       1  LIG1        0.0265
     39 H           1.5350   -5.1139    3.5107 H       1  LIG1        0.0265
     40 H           1.7745   -4.9708    1.7750 H       1  LIG1        0.0265
     41 H          -0.5020   -3.8998    1.5698 H       1  LIG1        0.0263
     42 H          -0.7116   -4.0477    3.3171 H       1  LIG1        0.0263
     43 H          -0.4078   -6.3369    1.3025 H       1  LIG1        0.0230
     44 H          -1.8611   -5.8963    2.2085 H       1  LIG1        0.0230
     45 H          -0.4658   -6.5771    3.0591 H       1  LIG1        0.0230
@<TRIPOS>BOND
     1     1     2    2
     2     2     3    1
     3     3     4    1
     4     4     5    1
     5     5     6    1
     6     6     7    1
     7     7     8    1
     8     8     9    1
     9     9    10    1
    10    10    11    1
    11    11    12    1
    12    12    13    1
    13    13    14    1
    14    14    15    1
    15     1    16    1
    16     1    17    1
    17     2    18    1
    18     3    19    1
    19     3    20    1
    20     4    21    1
    21     4    22    1
    22     5    23    1
    23     5    24    1
    24     6    25    1
    25     6    26    1
    26     7    27    1
    27     7    28    1
    28     8    29    1
    29     8    30    1
    30     9    31    1
    31     9    32    1
    32    10    33    1
    33    10    34    1
    34    11    35    1
    35    11    36    1
    36    12    37    1
    37    12    38    1
    38    13    39    1
    39    13    40    1
    40    14    41    1
    41    14    42    1
    42    15    43    1
    43    15    44    1
    44    15    45    1
