@<TRIPOS>MOLECULE
NuBBE_621
 45 47 0 0 0
SMALL
GASTEIGER

@<TRIPOS>ATOM
      1 C          -1.2901    3.4088   -3.0498 C.3     1  LIG1       -0.0521
      2 C          -0.6680    2.0716   -3.5235 C.3     1  LIG1        0.0146
      3 C          -1.3523    1.6555   -4.8462 C.3     1  LIG1       -0.0521
      4 C           0.8223    2.3892   -3.7726 C.2     1  LIG1       -0.0809
      5 C           1.5184    2.2467   -4.9116 C.2     1  LIG1       -0.1018
      6 C          -0.8531    0.9846   -2.4313 C.ar    1  LIG1        0.0470
      7 C           0.1541    0.3318   -1.8158 C.ar    1  LIG1       -0.0403
      8 C          -0.0766   -0.5976   -0.7159 C.ar    1  LIG1        0.0184
      9 C           0.9666   -1.2846   -0.0823 C.ar    1  LIG1       -0.0443
     10 C           0.6681   -2.0094    1.0631 C.ar    1  LIG1       -0.0013
     11 C           1.5620   -2.7368    1.9990 C.3     1  LIG1        0.0157
     12 C           0.6640   -2.6988    3.2556 C.3     1  LIG1        0.1322
     13 H           0.8116   -3.6361    3.8092 H       1  LIG1        0.0765
     14 C           0.9691   -1.5065    4.2273 C.3     1  LIG1        0.0974
     15 O           2.3304   -1.6308    4.6709 O.3     1  LIG1       -0.3855
     16 C           0.8196   -0.1226    3.5776 C.3     1  LIG1       -0.0328
     17 C           0.0743   -1.5554    5.4745 C.3     1  LIG1       -0.0328
     18 O          -0.7175   -2.6658    2.7941 O.3     1  LIG1       -0.4853
     19 C          -0.6284   -2.0686    1.5602 C.ar    1  LIG1        0.1279
     20 C          -1.6827   -1.4616    0.9212 C.ar    1  LIG1        0.0234
     21 C          -1.3778   -0.7211   -0.2188 C.ar    1  LIG1        0.1426
     22 O          -2.4421   -0.0697   -0.8552 O.2     1  LIG1       -0.4218
     23 C          -2.2629    0.6565   -2.0270 C.ar    1  LIG1        0.3413
     24 O          -3.2369    1.0275   -2.6594 O.2     1  LIG1       -0.2449
     25 H          -1.1189    4.2079   -3.7824 H       1  LIG1        0.0241
     26 H          -0.8602    3.7405   -2.0962 H       1  LIG1        0.0241
     27 H          -2.3739    3.3398   -2.9115 H       1  LIG1        0.0241
     28 H          -1.1903    2.4061   -5.6301 H       1  LIG1        0.0241
     29 H          -2.4372    1.5621   -4.7572 H       1  LIG1        0.0241
     30 H          -0.9686    0.6945   -5.2077 H       1  LIG1        0.0241
     31 H           1.3645    2.7939   -2.9161 H       1  LIG1        0.0575
     32 H           1.0773    1.8708   -5.8291 H       1  LIG1        0.0532
     33 H           2.5692    2.5170   -4.9591 H       1  LIG1        0.0532
     34 H           1.1932    0.5186   -2.0671 H       1  LIG1        0.0630
     35 H           1.9920   -1.2060   -0.4310 H       1  LIG1        0.0628
     36 H           2.5386   -2.2695    2.1419 H       1  LIG1        0.0351
     37 H           1.6922   -3.7656    1.6436 H       1  LIG1        0.0351
     38 H           2.4792   -0.9613    5.3621 H       1  LIG1        0.2103
     39 H           1.0901    0.6743    4.2782 H       1  LIG1        0.0258
     40 H          -0.2057    0.0647    3.2435 H       1  LIG1        0.0258
     41 H           1.5007   -0.0059    2.7287 H       1  LIG1        0.0258
     42 H           0.3098   -0.7209    6.1478 H       1  LIG1        0.0258
     43 H           0.2535   -2.4682    6.0527 H       1  LIG1        0.0258
     44 H          -0.9893   -1.4946    5.2252 H       1  LIG1        0.0258
     45 H          -2.6882   -1.5050    1.3205 H       1  LIG1        0.0691
@<TRIPOS>BOND
     1     1     2    1
     2     2     3    1
     3     2     4    1
     4     4     5    2
     5     2     6    1
     6     6     7   ar
     7     7     8   ar
     8     8     9   ar
     9     9    10   ar
    10    10    11    1
    11    11    12    1
    12    14    15    1
    13    14    16    1
    14    14    17    1
    15    12    18    1
    16    10    19   ar
    17    18    19    1
    18    19    20   ar
    19    20    21   ar
    20     8    21   ar
    21    21    22   ar
    22    22    23   ar
    23     6    23   ar
    24    23    24    2
    25    12    14    1
    26    12    13    1
    27     1    25    1
    28     1    26    1
    29     1    27    1
    30     3    28    1
    31     3    29    1
    32     3    30    1
    33     4    31    1
    34     5    32    1
    35     5    33    1
    36     7    34    1
    37     9    35    1
    38    11    36    1
    39    11    37    1
    40    15    38    1
    41    16    39    1
    42    16    40    1
    43    16    41    1
    44    17    42    1
    45    17    43    1
    46    17    44    1
    47    20    45    1
