@<TRIPOS>MOLECULE
NuBBE_2337
 39 40 0 0 0
SMALL
GASTEIGER

@<TRIPOS>ATOM
      1 C          -1.3409    2.5263   -0.6369 C.3     1  LIG1       -0.0587
      2 C           0.1721    2.3318   -0.6246 C.3     1  LIG1       -0.0219
      3 H           0.5887    2.7071   -1.5673 H       1  LIG1        0.0343
      4 C           0.8112    3.0877    0.5538 C.3     1  LIG1       -0.0430
      5 C           1.6602    2.0879    1.3345 C.3     1  LIG1       -0.0307
      6 C           0.6132    0.9071   -0.4161 C.2     1  LIG1       -0.0632
      7 C           1.4390    0.7879    0.6308 C.2     1  LIG1       -0.0669
      8 C           2.0386   -0.4762    1.1806 C.3     1  LIG1       -0.0222
      9 H           2.5094   -0.2253    2.1412 H       1  LIG1        0.0343
     10 C           3.1555   -1.0370    0.2931 C.3     1  LIG1       -0.0587
     11 C           0.9444   -1.5121    1.5003 C.3     1  LIG1       -0.0430
     12 C           0.2622   -2.1743    0.2959 C.3     1  LIG1       -0.0307
     13 C          -0.6288   -1.2715   -0.5555 C.2     1  LIG1       -0.0668
     14 C           0.1589   -0.2097   -1.3157 C.3     1  LIG1       -0.0098
     15 C          -1.9725   -1.4463   -0.6751 C.2     1  LIG1       -0.0762
     16 C          -2.8588   -0.6919   -1.6399 C.3     1  LIG1       -0.0438
     17 C          -2.7902   -2.4235    0.1419 C.3     1  LIG1       -0.0438
     18 H          -1.5920    3.5918   -0.6819 H       1  LIG1        0.0235
     19 H          -1.8109    2.1047    0.2584 H       1  LIG1        0.0235
     20 H          -1.7921    2.0520   -1.5122 H       1  LIG1        0.0235
     21 H           0.0592    3.5379    1.2140 H       1  LIG1        0.0274
     22 H           1.4331    3.9136    0.1879 H       1  LIG1        0.0274
     23 H           1.3199    2.0282    2.3747 H       1  LIG1        0.0310
     24 H           2.7164    2.3736    1.3286 H       1  LIG1        0.0310
     25 H           3.9734   -0.3157    0.1904 H       1  LIG1        0.0235
     26 H           2.8180   -1.2831   -0.7172 H       1  LIG1        0.0235
     27 H           3.5695   -1.9525    0.7297 H       1  LIG1        0.0235
     28 H           0.1811   -1.0514    2.1429 H       1  LIG1        0.0274
     29 H           1.4034   -2.3063    2.1041 H       1  LIG1        0.0274
     30 H          -0.2913   -3.0354    0.6782 H       1  LIG1        0.0310
     31 H           1.0171   -2.6291   -0.3571 H       1  LIG1        0.0310
     32 H          -0.3921    0.2114   -2.1569 H       1  LIG1        0.0355
     33 H           1.0256   -0.6753   -1.7982 H       1  LIG1        0.0355
     34 H          -2.3274   -0.0675   -2.3568 H       1  LIG1        0.0274
     35 H          -3.5595   -0.0534   -1.0930 H       1  LIG1        0.0274
     36 H          -3.4385   -1.4042   -2.2392 H       1  LIG1        0.0274
     37 H          -2.2430   -2.9217    0.9420 H       1  LIG1        0.0274
     38 H          -3.2165   -3.1946   -0.5081 H       1  LIG1        0.0274
     39 H          -3.6156   -1.8910    0.6288 H       1  LIG1        0.0274
@<TRIPOS>BOND
     1     1     2    1
     2     2     3    1
     3     2     4    1
     4     4     5    1
     5     2     6    1
     6     6     7    2
     7     5     7    1
     8     7     8    1
     9     8     9    1
    10     8    10    1
    11     8    11    1
    12    11    12    1
    13    12    13    1
    14    13    14    1
    15     6    14    1
    16    13    15    2
    17    15    16    1
    18    15    17    1
    19     1    18    1
    20     1    19    1
    21     1    20    1
    22     4    21    1
    23     4    22    1
    24     5    23    1
    25     5    24    1
    26    10    25    1
    27    10    26    1
    28    10    27    1
    29    11    28    1
    30    11    29    1
    31    12    30    1
    32    12    31    1
    33    14    32    1
    34    14    33    1
    35    16    34    1
    36    16    35    1
    37    16    36    1
    38    17    37    1
    39    17    38    1
    40    17    39    1
