REMARK  Name = NuBBE_1090
REMARK  7 active torsions:
REMARK  status: ('A' for Active; 'I' for Inactive)
REMARK    1  A    between atoms: O_1  and  C_2
REMARK    2  A    between atoms: C_7  and  C_24
REMARK    3  A    between atoms: N_9  and  C_23
REMARK    4  A    between atoms: C_24  and  C_25
REMARK    5  A    between atoms: C_25  and  C_26
REMARK    6  A    between atoms: C_28  and  O_29
REMARK    7  A    between atoms: O_29  and  C_30
REMARK                            x       y       z     vdW  Elec       q    Type
REMARK                         _______ _______ _______ _____ _____    ______ ____
ROOT
ATOM      1  C   LIG A   1      -3.696  -1.375  -1.234  0.00  0.00    +0.159 A 
ATOM      2  C   LIG A   1      -2.906  -2.497  -1.479  0.00  0.00    +0.050 A 
ATOM      3  C   LIG A   1      -1.536  -2.465  -1.220  0.00  0.00    +0.012 A 
ATOM      4  C   LIG A   1      -0.927  -1.327  -0.673  0.00  0.00    -0.007 A 
ATOM      5  C   LIG A   1      -1.744  -0.205  -0.402  0.00  0.00    +0.026 A 
ATOM      6  C   LIG A   1      -1.092   0.981   0.300  0.00  0.00    +0.115 C 
ATOM      7  N   LIG A   1       0.275   1.231  -0.255  0.00  0.00    -0.324 N 
ATOM      8  C   LIG A   1       1.114   0.069  -0.264  0.00  0.00    +0.046 A 
ATOM      9  C   LIG A   1       0.530  -1.220  -0.428  0.00  0.00    +0.004 A 
ATOM     10  C   LIG A   1       1.370  -2.342  -0.382  0.00  0.00    +0.011 A 
ATOM     11  C   LIG A   1       2.752  -2.213  -0.234  0.00  0.00    +0.009 A 
ATOM     12  C   LIG A   1       3.348  -0.957  -0.112  0.00  0.00    -0.012 A 
ATOM     13  C   LIG A   1       2.530   0.213  -0.106  0.00  0.00    +0.007 A 
ATOM     14  C   LIG A   1       3.169   1.465   0.069  0.00  0.00    +0.060 A 
ATOM     15  C   LIG A   1       4.544   1.519   0.171  0.00  0.00    +0.167 A 
ATOM     16  O   LIG A   1       5.292   2.647   0.305  0.00  0.00    -0.453 OA
ATOM     17  C   LIG A   1       6.622   2.090   0.326  0.00  0.00    +0.466 C 
ATOM     18  O   LIG A   1       6.640   0.649   0.245  0.00  0.00    -0.453 OA
ATOM     19  C   LIG A   1       5.311   0.385   0.137  0.00  0.00    +0.167 A 
ATOM     20  C   LIG A   1       4.746  -0.863   0.010  0.00  0.00    +0.058 A 
ATOM     21  C   LIG A   1       0.268   1.883  -1.575  0.00  0.00    +0.130 C 
ATOM     22  C   LIG A   1      -3.125  -0.206  -0.719  0.00  0.00    +0.167 A 
ENDROOT
BRANCH   1  23
ATOM     23  O   LIG A   1      -5.034  -1.466  -1.498  0.00  0.00    -0.503 OA
ATOM     24  H   LIG A   1      -5.247  -2.370  -1.782  0.00  0.00    +0.292 HD
ENDBRANCH   1  23
BRANCH  22  25
ATOM     25  O   LIG A   1      -3.761   0.980  -0.467  0.00  0.00    -0.491 OA
ATOM     26  C   LIG A   1      -5.173   1.056  -0.594  0.00  0.00    +0.277 C 
ENDBRANCH  22  25
BRANCH   6  27
ATOM     27  C   LIG A   1      -0.990   0.792   1.825  0.00  0.00    +0.101 C 
BRANCH  27  28
ATOM     28  C   LIG A   1      -2.336   0.640   2.502  0.00  0.00    +0.132 C 
ATOM     29  C   LIG A   1      -2.866  -0.761   2.707  0.00  0.00    +0.086 C 
ATOM     30  O   LIG A   1      -2.994   1.617   2.849  0.00  0.00    -0.298 OA
ENDBRANCH  27  28
ENDBRANCH   6  27
TORSDOF 4
