@<TRIPOS>MOLECULE
NuBBE_553
 33 35 0 0 0
SMALL
GASTEIGER

@<TRIPOS>ATOM
      1 C           2.1234    1.7466   -1.0228 C.3     1  LIG1       -0.0515
      2 C           1.3265    0.5080   -0.4463 C.3     1  LIG1        0.0213
      3 C          -0.2265    0.3515   -0.6383 C.2     1  LIG1        0.0093
      4 C          -0.9192   -0.6174    0.3135 C.2     1  LIG1        0.1935
      5 C          -0.5514   -0.4188    1.6794 C.ar    1  LIG1        0.0657
      6 C          -1.1214   -0.8127    2.9225 C.ar    1  LIG1       -0.0016
      7 C          -2.2729   -1.7162    3.1591 C.3     1  LIG1       -0.0360
      8 C          -0.3727   -0.1529    3.8806 C.ar    1  LIG1        0.0957
      9 O           0.7163    0.4430    3.3198 O.2     1  LIG1       -0.4668
     10 C           0.6268    0.2017    1.9902 C.ar    1  LIG1        0.1170
     11 C           1.6938    0.6503    1.0821 C.3     1  LIG1        0.0192
     12 O          -1.6453   -1.5511   -0.0468 O.2     1  LIG1       -0.2868
     13 C          -0.7757    0.4629   -1.8766 C.2     1  LIG1       -0.0613
     14 C          -2.2011    0.1738   -2.2735 C.3     1  LIG1       -0.0428
     15 C           0.2301    0.4602   -3.0117 C.3     1  LIG1       -0.0131
     16 C           1.3281   -0.5635   -2.6561 C.2     1  LIG1       -0.0831
     17 C           1.8373   -0.5982   -1.3908 C.2     1  LIG1       -0.0769
     18 H           1.5866    2.6870   -0.8936 H       1  LIG1        0.0241
     19 H           2.4309    1.6686   -2.0733 H       1  LIG1        0.0241
     20 H           3.0961    1.8286   -0.5081 H       1  LIG1        0.0241
     21 H          -2.5127   -2.3072    2.2703 H       1  LIG1        0.0279
     22 H          -3.1630   -1.1558    3.4553 H       1  LIG1        0.0279
     23 H          -2.0289   -2.4274    3.9571 H       1  LIG1        0.0279
     24 H          -0.4534   -0.0571    4.9549 H       1  LIG1        0.1032
     25 H           2.6447    0.1618    1.3128 H       1  LIG1        0.0355
     26 H           1.8133    1.7199    1.3217 H       1  LIG1        0.0355
     27 H          -2.8271   -0.1993   -1.4602 H       1  LIG1        0.0275
     28 H          -2.2281   -0.5808   -3.0676 H       1  LIG1        0.0275
     29 H          -2.6834    1.0830   -2.6425 H       1  LIG1        0.0275
     30 H          -0.2439    0.1847   -3.9588 H       1  LIG1        0.0352
     31 H           0.6296    1.4699   -3.1663 H       1  LIG1        0.0352
     32 H           1.5988   -1.2894   -3.4149 H       1  LIG1        0.0572
     33 H           2.5444   -1.3534   -1.0712 H       1  LIG1        0.0578
@<TRIPOS>BOND
     1     1     2    1
     2     2     3    1
     3     3     4    1
     4     4     5    1
     5     5     6   ar
     6     6     7    1
     7     6     8   ar
     8     8     9   ar
     9     5    10   ar
    10     9    10   ar
    11    10    11    1
    12     2    11    1
    13     4    12    2
    14     3    13    2
    15    13    14    1
    16    13    15    1
    17    15    16    1
    18    16    17    2
    19     2    17    1
    20     1    18    1
    21     1    19    1
    22     1    20    1
    23     7    21    1
    24     7    22    1
    25     7    23    1
    26     8    24    1
    27    11    25    1
    28    11    26    1
    29    14    27    1
    30    14    28    1
    31    14    29    1
    32    15    30    1
    33    15    31    1
    34    16    32    1
    35    17    33    1
