@<TRIPOS>MOLECULE
NuBBE_466
 75 78 0 0 0
SMALL
GASTEIGER

@<TRIPOS>ATOM
      1 C          -5.9105   -2.2837   -1.2284 C.3     1  LIG1       -0.0064
      2 C          -4.6889   -2.5281   -0.4098 C.2     1  LIG1        0.1023
      3 C          -3.8188   -1.5533   -0.0564 C.2     1  LIG1       -0.0159
      4 C          -2.4489   -1.9106    0.3463 C.2     1  LIG1       -0.0052
      5 C          -1.4625   -1.0098    0.5941 C.2     1  LIG1        0.0113
      6 C          -0.1563   -1.6442    0.7173 C.2     1  LIG1        0.2072
      7 C           0.1401   -2.8417   -0.2454 C.3     1  LIG1        0.2126
      8 C           1.5959   -3.2776   -0.0215 C.3     1  LIG1       -0.0134
      9 O          -0.0313   -2.8657   -1.7579 O.3     1  LIG1       -0.4463
     10 C          -0.2314   -1.9319   -2.7480 C.2     1  LIG1        0.3050
     11 C           0.1447   -2.4434   -4.1336 C.3     1  LIG1        0.0333
     12 O          -0.6168   -0.7728   -2.6139 O.2     1  LIG1       -0.2511
     13 C          -0.7609   -3.8999    0.4142 C.3     1  LIG1        0.1779
     14 H          -0.7016   -4.8005   -0.2094 H       1  LIG1        0.0832
     15 O          -0.2679   -4.3579    1.7217 O.3     1  LIG1       -0.4521
     16 C          -0.3849   -3.6735    2.8933 C.2     1  LIG1        0.3047
     17 C           0.5890   -4.1866    3.9229 C.3     1  LIG1        0.0333
     18 O          -1.1318   -2.7298    3.1014 O.2     1  LIG1       -0.2511
     19 C          -2.1699   -3.3959    0.3645 C.2     1  LIG1        0.0395
     20 C          -3.1641   -4.2617    0.0971 C.2     1  LIG1        0.0993
     21 O          -4.4435   -3.8810   -0.2140 O.2     1  LIG1       -0.4677
     22 O           0.6956   -1.2355    1.5465 O.2     1  LIG1       -0.2879
     23 C          -1.4372    0.5170    0.8181 C.3     1  LIG1        0.0056
     24 C          -0.2346    1.4577    0.3425 C.2     1  LIG1        0.0113
     25 C           0.9631    1.2566   -0.2966 C.2     1  LIG1       -0.0052
     26 C           2.0060    2.2722   -0.4172 C.2     1  LIG1        0.0395
     27 C           1.8829    3.5334    0.3520 C.3     1  LIG1        0.1779
     28 H           2.5039    4.2671   -0.1629 H       1  LIG1        0.0832
     29 O           2.5801    3.3707    1.6212 O.3     1  LIG1       -0.4521
     30 C           2.0995    2.6199    2.6507 C.2     1  LIG1        0.3047
     31 C           3.1700    2.2304    3.5959 C.3     1  LIG1        0.0333
     32 O           0.9338    2.2604    2.7902 O.2     1  LIG1       -0.2511
     33 C           0.4498    4.0430    0.3598 C.3     1  LIG1        0.2126
     34 C           0.3370    5.2860    1.2622 C.3     1  LIG1       -0.0134
     35 O          -0.0433    4.4139   -0.9677 O.3     1  LIG1       -0.4463
     36 C           0.4354    5.5613   -1.5145 C.2     1  LIG1        0.3050
     37 C          -0.7004    6.4589   -1.8789 C.3     1  LIG1        0.0333
     38 O           1.6140    5.8618   -1.5880 O.2     1  LIG1       -0.2511
     39 C          -0.5162    2.9165    0.7926 C.2     1  LIG1        0.2072
     40 O          -1.5355    3.1787    1.4410 O.2     1  LIG1       -0.2879
     41 C           3.1009    2.0510   -1.1701 C.2     1  LIG1        0.0993
     42 O           3.4129    0.8534   -1.7848 O.2     1  LIG1       -0.4677
     43 C           2.5031   -0.1734   -1.6406 C.2     1  LIG1        0.1023
     44 C           2.9222   -1.3803   -2.4397 C.3     1  LIG1       -0.0064
     45 C           1.3716    0.0230   -0.9466 C.2     1  LIG1       -0.0159
     46 H          -6.7823   -2.0608   -0.6071 H       1  LIG1        0.0308
     47 H          -6.1369   -3.1670   -1.8346 H       1  LIG1        0.0308
     48 H          -5.7348   -1.4630   -1.9339 H       1  LIG1        0.0308
     49 H          -4.0556   -0.5128   -0.2348 H       1  LIG1        0.0657
     50 H           1.8356   -3.4911    1.0169 H       1  LIG1        0.0274
     51 H           2.2698   -2.4638   -0.2637 H       1  LIG1        0.0274
     52 H           1.8365   -4.1382   -0.6482 H       1  LIG1        0.0274
     53 H          -0.4864   -3.3044   -4.3869 H       1  LIG1        0.0342
     54 H           1.1949   -2.7181   -4.2335 H       1  LIG1        0.0342
     55 H          -0.0401   -1.6667   -4.8820 H       1  LIG1        0.0342
     56 H           0.1758   -4.0063    4.9188 H       1  LIG1        0.0342
     57 H           1.5525   -3.6766    3.8406 H       1  LIG1        0.0342
     58 H           0.7289   -5.2656    3.8127 H       1  LIG1        0.0342
     59 H          -3.0445   -5.3321    0.0115 H       1  LIG1        0.1033
     60 H          -1.4732    0.6319    1.9230 H       1  LIG1        0.0364
     61 H          -2.3840    0.9514    0.4694 H       1  LIG1        0.0364
     62 H           4.0262    2.9041    3.5086 H       1  LIG1        0.0342
     63 H           3.4768    1.2051    3.3875 H       1  LIG1        0.0342
     64 H           2.7778    2.3059    4.6095 H       1  LIG1        0.0342
     65 H           0.3874    5.0296    2.3183 H       1  LIG1        0.0274
     66 H          -0.5917    5.8255    1.0741 H       1  LIG1        0.0274
     67 H           1.1489    5.9857    1.0434 H       1  LIG1        0.0274
     68 H          -0.9545    6.3631   -2.9406 H       1  LIG1        0.0342
     69 H          -0.4297    7.4946   -1.6445 H       1  LIG1        0.0342
     70 H          -1.5723    6.2082   -1.2658 H       1  LIG1        0.0342
     71 H           3.8974    2.7478   -1.3493 H       1  LIG1        0.1033
     72 H           4.0130   -1.4707   -2.4566 H       1  LIG1        0.0308
     73 H           2.5822   -1.2529   -3.4691 H       1  LIG1        0.0308
     74 H           2.5632   -2.3603   -2.1241 H       1  LIG1        0.0308
     75 H           0.6248   -0.6970   -0.9590 H       1  LIG1        0.0657
@<TRIPOS>BOND
     1     1     2    1
     2     2     3    2
     3     3     4    1
     4     4     5    2
     5     5     6    1
     6     6     7    1
     7     9    10    1
     8    10    11    1
     9    10    12    2
    10     7    13    1
    11    13    14    1
    12    13    15    1
    13    15    16    1
    14    16    17    1
    15    16    18    2
    16    13    19    1
    17     4    19    1
    18    19    20    2
    19    20    21    1
    20     2    21    1
    21     6    22    2
    22     5    23    1
    23    23    24    1
    24    24    25    2
    25    25    26    1
    26    26    27    1
    27    27    28    1
    28    27    29    1
    29    29    30    1
    30    30    31    1
    31    30    32    2
    32    27    33    1
    33    35    36    1
    34    36    37    1
    35    36    38    2
    36    33    39    1
    37    24    39    1
    38    39    40    2
    39    26    41    2
    40    41    42    1
    41    42    43    1
    42    43    44    1
    43    43    45    2
    44    25    45    1
    45     7     9    1
    46     7     8    1
    47    33    35    1
    48    33    34    1
    49     1    46    1
    50     1    47    1
    51     1    48    1
    52     3    49    1
    53     8    50    1
    54     8    51    1
    55     8    52    1
    56    11    53    1
    57    11    54    1
    58    11    55    1
    59    17    56    1
    60    17    57    1
    61    17    58    1
    62    20    59    1
    63    23    60    1
    64    23    61    1
    65    31    62    1
    66    31    63    1
    67    31    64    1
    68    34    65    1
    69    34    66    1
    70    34    67    1
    71    37    68    1
    72    37    69    1
    73    37    70    1
    74    41    71    1
    75    44    72    1
    76    44    73    1
    77    44    74    1
    78    45    75    1
