REMARK  Name = NuBBE_1735
REMARK  4 active torsions:
REMARK  status: ('A' for Active; 'I' for Inactive)
REMARK    1  A    between atoms: C_1  and  C_2
REMARK    2  A    between atoms: C_2  and  C_3
REMARK    3  A    between atoms: C_6  and  C_7
REMARK    4  A    between atoms: C_11  and  C_15
REMARK                            x       y       z     vdW  Elec       q    Type
REMARK                         _______ _______ _______ _____ _____    ______ ____
ROOT
ATOM      1  C   LIG A   1       0.362  -3.170  -1.989  0.00  0.00    +0.015 C 
ATOM      2  C   LIG A   1      -0.271  -2.205  -0.967  0.00  0.00    -0.013 C 
ATOM      3  C   LIG A   1      -1.731  -2.668  -0.715  0.00  0.00    +0.015 C 
ATOM      4  C   LIG A   1       0.559  -2.375   0.378  0.00  0.00    +0.037 C 
ATOM      5  C   LIG A   1      -0.126  -1.665   1.515  0.00  0.00    -0.027 C 
ATOM      6  C   LIG A   1       0.320  -0.527   2.058  0.00  0.00    -0.076 C 
ATOM      7  C   LIG A   1       1.786  -0.158   2.173  0.00  0.00    +0.038 C 
ATOM      8  C   LIG A   1      -0.718   0.580   2.227  0.00  0.00    +0.034 C 
ATOM      9  C   LIG A   1      -0.213   1.863   1.550  0.00  0.00    +0.031 C 
ATOM     10  C   LIG A   1      -0.984   2.549   0.454  0.00  0.00    -0.027 C 
ATOM     11  C   LIG A   1      -0.393   2.723  -0.754  0.00  0.00    -0.073 C 
ATOM     12  C   LIG A   1       0.504   1.746  -1.523  0.00  0.00    +0.057 C 
ATOM     13  C   LIG A   1       0.441   0.288  -1.177  0.00  0.00    -0.026 C 
ATOM     14  C   LIG A   1      -0.341  -0.759  -1.557  0.00  0.00    -0.024 C 
ATOM     15  C   LIG A   1      -0.197   4.177  -1.150  0.00  0.00    +0.039 C 
ENDROOT
TORSDOF 0
