REMARK  Name = NuBBE_1965
REMARK  8 active torsions:
REMARK  status: ('A' for Active; 'I' for Inactive)
REMARK    1  A    between atoms: C_4  and  O_5
REMARK    2  A    between atoms: O_5  and  C_6
REMARK    3  A    between atoms: C_6  and  C_7
REMARK    4  A    between atoms: C_10  and  O_11
REMARK    5  A    between atoms: O_11  and  C_12
REMARK    6  A    between atoms: C_18  and  O_19
REMARK    7  A    between atoms: O_19  and  C_20
REMARK    8  A    between atoms: C_22  and  C_23
REMARK                            x       y       z     vdW  Elec       q    Type
REMARK                         _______ _______ _______ _____ _____    ______ ____
ROOT
ATOM      1  O   LIG A   1      -1.856  -0.223   0.512  0.00  0.00    -0.286 OA
ATOM      2  C   LIG A   1      -0.672  -0.264   0.201  0.00  0.00    +0.204 A 
ATOM      3  C   LIG A   1       0.111   0.965   0.001  0.00  0.00    +0.107 A 
ATOM      4  C   LIG A   1      -0.498   2.221  -0.082  0.00  0.00    +0.149 A 
ATOM      5  C   LIG A   1       0.262   3.364  -0.276  0.00  0.00    +0.092 A 
ATOM      6  C   LIG A   1       1.652   3.273  -0.344  0.00  0.00    +0.127 A 
ATOM      7  C   LIG A   1       2.269   2.017  -0.281  0.00  0.00    +0.092 A 
ATOM      8  C   LIG A   1       1.495   0.861  -0.107  0.00  0.00    +0.146 A 
ATOM      9  O   LIG A   1       2.166  -0.337  -0.035  0.00  0.00    -0.454 OA
ATOM     10  C   LIG A   1       1.427  -1.500  -0.049  0.00  0.00    +0.143 A 
ATOM     11  C   LIG A   1       2.156  -2.686  -0.159  0.00  0.00    +0.092 A 
ATOM     12  C   LIG A   1       1.504  -3.920  -0.212  0.00  0.00    +0.124 A 
ATOM     13  C   LIG A   1       0.109  -3.960  -0.161  0.00  0.00    +0.050 A 
ATOM     14  C   LIG A   1      -0.646  -2.781  -0.043  0.00  0.00    -0.033 A 
ATOM     15  C   LIG A   1      -2.147  -2.896  -0.013  0.00  0.00    +0.045 C 
ATOM     16  C   LIG A   1       0.033  -1.548   0.033  0.00  0.00    +0.068 A 
ENDROOT
BRANCH   6  17
ATOM     17  O   LIG A   1       2.466   4.367  -0.497  0.00  0.00    -0.495 OA
ATOM     18  C   LIG A   1       1.912   5.582   0.020  0.00  0.00    +0.277 C 
ENDBRANCH   6  17
BRANCH  12  19
ATOM     19  O   LIG A   1       2.326  -5.007  -0.321  0.00  0.00    -0.495 OA
ATOM     20  C   LIG A   1       1.697  -6.284  -0.355  0.00  0.00    +0.277 C 
ENDBRANCH  12  19
BRANCH   4  21
ATOM     21  O   LIG A   1      -1.907   2.274  -0.020  0.00  0.00    -0.425 OA
BRANCH  21  22
ATOM     22  C   LIG A   1      -2.657   3.329   0.502  0.00  0.00    +0.309 C 
ATOM     23  C   LIG A   1      -4.067   2.834   0.647  0.00  0.00    +0.136 C 
ATOM     24  O   LIG A   1      -2.264   4.441   0.797  0.00  0.00    -0.251 OA
ENDBRANCH  21  22
ENDBRANCH   4  21
TORSDOF 4
