REMARK  Name = NuBBE_676
REMARK  11 active torsions:
REMARK  status: ('A' for Active; 'I' for Inactive)
REMARK    1  A    between atoms: C_4  and  C_6
REMARK    2  A    between atoms: C_8  and  C_9
REMARK    3  A    between atoms: C_9  and  C_10
REMARK    4  A    between atoms: C_10  and  C_12
REMARK    5  A    between atoms: C_10  and  C_13
REMARK    6  A    between atoms: C_13  and  C_16
REMARK    7  A    between atoms: C_25  and  C_26
REMARK    8  A    between atoms: C_27  and  C_28
REMARK    9  A    between atoms: C_28  and  C_30
REMARK   10  A    between atoms: C_28  and  C_31
REMARK   11  A    between atoms: C_31  and  C_32
REMARK                            x       y       z     vdW  Elec       q    Type
REMARK                         _______ _______ _______ _____ _____    ______ ____
ROOT
ATOM      1 CL   LIG A   1       0.968  -3.711  -3.370  0.00  0.00    -0.079 Cl
ATOM      2  C   LIG A   1       0.266  -3.197  -1.871  0.00  0.00    +0.096 C 
ATOM      3  C   LIG A   1      -0.724  -4.156  -1.255  0.00  0.00    +0.222 C 
ATOM      4  C   LIG A   1      -1.240  -3.846   0.167  0.00  0.00    +0.200 C 
ATOM      5  O   LIG A   1      -2.579  -4.275   0.343  0.00  0.00    -0.442 OA
ATOM      6  C   LIG A   1      -0.387  -4.568   1.210  0.00  0.00    +0.070 C 
ATOM      7  C   LIG A   1      -1.310  -2.379   0.372  0.00  0.00    +0.031 C 
ATOM      8  C   LIG A   1      -2.553  -1.972   0.661  0.00  0.00    +0.110 C 
ATOM      9  C   LIG A   1      -3.365  -3.200   0.619  0.00  0.00    +0.344 C 
ATOM     10  O   LIG A   1      -4.573  -3.279   0.760  0.00  0.00    -0.245 OA
ATOM     11  O   LIG A   1      -1.086  -5.166  -1.860  0.00  0.00    -0.286 OA
ATOM     12  C   LIG A   1       0.574  -2.029  -1.265  0.00  0.00    +0.011 C 
ATOM     13  C   LIG A   1      -0.119  -1.657  -0.013  0.00  0.00    +0.027 C 
ATOM     14  C   LIG A   1       0.450  -0.676   0.711  0.00  0.00    +0.204 C 
ATOM     15  O   LIG A   1       1.542   0.071   0.292  0.00  0.00    -0.463 OA
ATOM     16  C   LIG A   1       1.956  -0.058  -1.036  0.00  0.00    +0.128 C 
ATOM     17  C   LIG A   1       1.522  -1.064  -1.816  0.00  0.00    +0.056 C 
ENDROOT
BRANCH   8  18
ATOM     18  C   LIG A   1      -3.058  -0.585   0.836  0.00  0.00    +0.173 C 
ATOM     19  O   LIG A   1      -2.288   0.369   0.721  0.00  0.00    -0.291 OA
BRANCH  18  20
ATOM     20  C   LIG A   1      -4.534  -0.336   1.159  0.00  0.00    +0.057 C 
ATOM     21  C   LIG A   1      -5.217   0.222  -0.090  0.00  0.00    +0.016 C 
BRANCH  20  22
ATOM     22  C   LIG A   1      -4.706   0.624   2.348  0.00  0.00    +0.007 C 
ATOM     23  C   LIG A   1      -4.062   0.109   3.630  0.00  0.00    +0.004 C 
ENDBRANCH  20  22
ENDBRANCH  18  20
ENDBRANCH   8  18
BRANCH  16  24
ATOM     24  C   LIG A   1       2.812   0.995  -1.546  0.00  0.00    +0.042 C 
ATOM     25  C   LIG A   1       3.322   2.014  -0.835  0.00  0.00    -0.020 C 
BRANCH  25  26
ATOM     26  C   LIG A   1       4.124   3.139  -1.456  0.00  0.00    +0.008 C 
ATOM     27  C   LIG A   1       3.288   4.421  -1.427  0.00  0.00    +0.012 C 
BRANCH  26  28
ATOM     28  C   LIG A   1       5.473   3.295  -0.731  0.00  0.00    +0.004 C 
ATOM     29  C   LIG A   1       6.348   4.402  -1.305  0.00  0.00    +0.004 C 
ENDBRANCH  26  28
ENDBRANCH  25  26
ENDBRANCH  16  24
TORSDOF 6
