REMARK  Name = NuBBE_617
REMARK  6 active torsions:
REMARK  status: ('A' for Active; 'I' for Inactive)
REMARK    1  A    between atoms: C_3  and  C_4
REMARK    2  A    between atoms: C_4  and  C_5
REMARK    3  A    between atoms: C_5  and  O_6
REMARK    4  A    between atoms: C_11  and  C_12
REMARK    5  A    between atoms: C_13  and  C_15
REMARK    6  A    between atoms: C_16  and  O_18
REMARK                            x       y       z     vdW  Elec       q    Type
REMARK                         _______ _______ _______ _____ _____    ______ ____
ROOT
ATOM      1  O   LIG A   1      -3.530   0.474  -1.211  0.00  0.00    -0.289 OA
ATOM      2  C   LIG A   1      -2.392   0.335  -0.781  0.00  0.00    +0.194 C 
ATOM      3  C   LIG A   1      -1.540  -0.840  -1.113  0.00  0.00    +0.181 C 
ATOM      4  O   LIG A   1      -1.276  -1.673   0.041  0.00  0.00    -0.351 OA
ATOM      5  C   LIG A   1      -0.158  -0.976  -0.517  0.00  0.00    +0.174 C 
ATOM      6  C   LIG A   1       0.439   0.148   0.322  0.00  0.00    +0.024 C 
ATOM      7  C   LIG A   1       1.613   0.729  -0.509  0.00  0.00    +0.019 C 
ATOM      8  C   LIG A   1       0.927  -0.431   1.701  0.00  0.00    +0.027 C 
ATOM      9  C   LIG A   1       1.989  -1.535   1.558  0.00  0.00    +0.011 C 
ATOM     10  C   LIG A   1       1.431   0.678   2.658  0.00  0.00    +0.119 C 
ATOM     11  C   LIG A   1       0.388   1.776   2.856  0.00  0.00    +0.036 C 
ATOM     12  C   LIG A   1      -0.063   2.379   1.536  0.00  0.00    +0.034 C 
ATOM     13  C   LIG A   1      -0.549   1.298   0.598  0.00  0.00    -0.057 C 
ATOM     14  C   LIG A   1      -1.796   1.366   0.100  0.00  0.00    +0.049 C 
ENDROOT
BRANCH   3  15
ATOM     15  C   LIG A   1      -1.708  -1.380  -2.486  0.00  0.00    -0.010 C 
ATOM     16  C   LIG A   1      -2.185  -2.612  -2.747  0.00  0.00    +0.013 C 
BRANCH  15  17
ATOM     17  C   LIG A   1      -1.329  -0.453  -3.612  0.00  0.00    +0.189 C 
BRANCH  17  18
ATOM     18  O   LIG A   1       0.072  -0.566  -3.829  0.00  0.00    -0.391 OA
ATOM     19  H   LIG A   1       0.266  -0.059  -4.635  0.00  0.00    +0.210 HD
ENDBRANCH  17  18
ENDBRANCH  15  17
ENDBRANCH   3  15
BRANCH  10  20
ATOM     20  O   LIG A   1       1.720   0.145   3.950  0.00  0.00    -0.392 OA
ATOM     21  H   LIG A   1       2.540  -0.372   3.886  0.00  0.00    +0.210 HD
ENDBRANCH  10  20
TORSDOF 4
