@<TRIPOS>MOLECULE
NuBBE_1685
 56 56 0 0 0
SMALL
GASTEIGER

@<TRIPOS>ATOM
      1 C           6.7277    0.7878   -5.3776 C.2     1  LIG1       -0.1023
      2 C           6.3929    1.3737   -4.2059 C.2     1  LIG1       -0.0874
      3 C           5.5933    0.7029   -3.0982 C.3     1  LIG1       -0.0168
      4 C           5.1945    1.5017   -1.8572 C.2     1  LIG1       -0.0839
      5 C           3.9661    1.9539   -1.4771 C.2     1  LIG1       -0.0839
      6 C           2.6835    2.0592   -2.3119 C.3     1  LIG1       -0.0165
      7 C           1.3407    2.1859   -1.5666 C.2     1  LIG1       -0.0842
      8 C           0.1293    1.5612   -1.6370 C.2     1  LIG1       -0.0876
      9 C          -0.3748    0.3619   -2.4325 C.3     1  LIG1       -0.0348
     10 C          -1.8954    0.2287   -2.8339 C.3     1  LIG1       -0.0496
     11 C          -3.0368    0.0060   -1.7939 C.3     1  LIG1       -0.0528
     12 C          -2.9678   -1.2930   -0.9740 C.3     1  LIG1       -0.0530
     13 C          -4.0984   -1.4524    0.0757 C.3     1  LIG1       -0.0528
     14 C          -3.9464   -2.7196    0.9401 C.3     1  LIG1       -0.0491
     15 C          -2.6492   -2.8061    1.7497 C.3     1  LIG1       -0.0275
     16 C          -2.3391   -1.7288    2.7660 C.ar    1  LIG1       -0.0405
     17 C          -2.6609   -1.8427    4.1262 C.ar    1  LIG1       -0.0165
     18 C          -2.1332   -0.9218    5.0560 C.ar    1  LIG1        0.1235
     19 O          -2.5425   -0.9977    6.3620 O.3     1  LIG1       -0.5064
     20 C          -1.1558    0.0195    4.6942 C.ar    1  LIG1        0.0323
     21 C          -0.5591    0.9977    5.6667 C.3     1  LIG1       -0.0328
     22 C          -0.8010    0.0422    3.3436 C.ar    1  LIG1        0.1235
     23 O           0.3670    0.5835    2.8673 O.3     1  LIG1       -0.5064
     24 C          -1.4958   -0.6888    2.3886 C.ar    1  LIG1       -0.0165
     25 H           7.2959    1.3331   -6.0708 H       1  LIG1        0.0532
     26 H           6.3873   -0.1866   -5.5323 H       1  LIG1        0.0532
     27 H           6.7895    2.3907   -3.9797 H       1  LIG1        0.0569
     28 H           6.1884   -0.1424   -2.7214 H       1  LIG1        0.0350
     29 H           4.6977    0.2944   -3.5552 H       1  LIG1        0.0350
     30 H           6.0036    1.5950   -1.1327 H       1  LIG1        0.0572
     31 H           3.9192    2.3877   -0.4745 H       1  LIG1        0.0572
     32 H           2.6467    1.2876   -3.0799 H       1  LIG1        0.0350
     33 H           2.8000    3.0278   -2.8230 H       1  LIG1        0.0350
     34 H           1.3514    3.0498   -0.8935 H       1  LIG1        0.0572
     35 H          -0.6471    1.9797   -0.9931 H       1  LIG1        0.0569
     36 H          -0.1037   -0.5432   -1.8805 H       1  LIG1        0.0307
     37 H           0.1825    0.3452   -3.3782 H       1  LIG1        0.0307
     38 H          -1.9553   -0.6231   -3.5288 H       1  LIG1        0.0268
     39 H          -2.1753    1.1073   -3.4301 H       1  LIG1        0.0268
     40 H          -3.9835   -0.0316   -2.3576 H       1  LIG1        0.0265
     41 H          -3.1142    0.8736   -1.1319 H       1  LIG1        0.0265
     42 H          -1.9987   -1.3187   -0.4811 H       1  LIG1        0.0265
     43 H          -3.0075   -2.1580   -1.6472 H       1  LIG1        0.0265
     44 H          -5.0701   -1.5112   -0.4351 H       1  LIG1        0.0265
     45 H          -4.1512   -0.5781    0.7340 H       1  LIG1        0.0265
     46 H          -3.9785   -3.5928    0.2715 H       1  LIG1        0.0268
     47 H          -4.8095   -2.8271    1.6099 H       1  LIG1        0.0268
     48 H          -1.8059   -2.8487    1.0470 H       1  LIG1        0.0313
     49 H          -2.6095   -3.7809    2.2531 H       1  LIG1        0.0313
     50 H          -3.2728   -2.6733    4.4645 H       1  LIG1        0.0657
     51 H          -3.3423   -1.5503    6.3914 H       1  LIG1        0.2921
     52 H          -0.5309    0.6168    6.6925 H       1  LIG1        0.0280
     53 H          -1.1394    1.9287    5.6608 H       1  LIG1        0.0280
     54 H           0.4722    1.2501    5.3964 H       1  LIG1        0.0280
     55 H           0.4707    1.4956    3.1885 H       1  LIG1        0.2921
     56 H          -1.2488   -0.5119    1.3464 H       1  LIG1        0.0657
@<TRIPOS>BOND
     1     1     2    2
     2     2     3    1
     3     3     4    1
     4     4     5    2
     5     5     6    1
     6     6     7    1
     7     7     8    2
     8     8     9    1
     9     9    10    1
    10    10    11    1
    11    11    12    1
    12    12    13    1
    13    13    14    1
    14    14    15    1
    15    15    16    1
    16    16    17   ar
    17    17    18   ar
    18    18    19    1
    19    18    20   ar
    20    20    21    1
    21    20    22   ar
    22    22    23    1
    23    22    24   ar
    24    16    24   ar
    25     1    25    1
    26     1    26    1
    27     2    27    1
    28     3    28    1
    29     3    29    1
    30     4    30    1
    31     5    31    1
    32     6    32    1
    33     6    33    1
    34     7    34    1
    35     8    35    1
    36     9    36    1
    37     9    37    1
    38    10    38    1
    39    10    39    1
    40    11    40    1
    41    11    41    1
    42    12    42    1
    43    12    43    1
    44    13    44    1
    45    13    45    1
    46    14    46    1
    47    14    47    1
    48    15    48    1
    49    15    49    1
    50    17    50    1
    51    19    51    1
    52    21    52    1
    53    21    53    1
    54    21    54    1
    55    23    55    1
    56    24    56    1
