@<TRIPOS>MOLECULE
NuBBE_2106
 50 49 0 0 0
SMALL
GASTEIGER

@<TRIPOS>ATOM
      1 C          -4.2884    1.0948   -3.8805 C.3     1  LIG1       -0.0653
      2 C          -5.4344    0.1663   -3.5170 C.3     1  LIG1       -0.0559
      3 C          -5.9340    0.1044   -2.0510 C.3     1  LIG1       -0.0533
      4 C          -5.0999   -0.6025   -0.9512 C.3     1  LIG1       -0.0531
      5 C          -3.8106    0.0718   -0.4285 C.3     1  LIG1       -0.0531
      6 C          -2.7690    0.1386   -1.5175 C.3     1  LIG1       -0.0531
      7 C          -1.4746    0.8917   -1.4080 C.3     1  LIG1       -0.0531
      8 C          -0.6153    0.3564   -0.3346 C.3     1  LIG1       -0.0531
      9 C           0.6103    1.2284   -0.1844 C.3     1  LIG1       -0.0531
     10 C           1.4453    0.6871    0.9503 C.3     1  LIG1       -0.0531
     11 C           2.6944    1.5230    1.1682 C.3     1  LIG1       -0.0531
     12 C           3.5401    0.9939    2.3236 C.3     1  LIG1       -0.0531
     13 C           4.0595   -0.4284    2.0952 C.3     1  LIG1       -0.0531
     14 C           4.8752   -0.9082    3.2956 C.3     1  LIG1       -0.0533
     15 C           5.3779   -2.3455    3.1524 C.3     1  LIG1       -0.0559
     16 C           6.3385   -2.5403    1.9898 C.3     1  LIG1       -0.0653
     17 H          -4.2954    1.5156   -4.8655 H       1  LIG1        0.0230
     18 H          -3.3517    0.5007   -3.8765 H       1  LIG1        0.0230
     19 H          -4.2437    1.9462   -3.1733 H       1  LIG1        0.0230
     20 H          -5.1936   -0.8487   -3.8528 H       1  LIG1        0.0263
     21 H          -6.2737    0.5165   -4.1312 H       1  LIG1        0.0263
     22 H          -6.8757   -0.4582   -2.1013 H       1  LIG1        0.0265
     23 H          -6.2186    1.1079   -1.7071 H       1  LIG1        0.0265
     24 H          -4.8821   -1.6320   -1.2690 H       1  LIG1        0.0265
     25 H          -5.7588   -0.6957   -0.0753 H       1  LIG1        0.0265
     26 H          -3.4338   -0.4573    0.4356 H       1  LIG1        0.0265
     27 H          -4.0561    1.1001   -0.1197 H       1  LIG1        0.0265
     28 H          -3.2277    0.8262   -2.1063 H       1  LIG1        0.0265
     29 H          -2.6429   -0.8321   -2.0643 H       1  LIG1        0.0265
     30 H          -1.6921    1.9630   -1.2535 H       1  LIG1        0.0265
     31 H          -0.9590    0.8470   -2.3874 H       1  LIG1        0.0265
     32 H          -0.3335   -0.6871   -0.5692 H       1  LIG1        0.0265
     33 H          -1.1798    0.3350    0.6095 H       1  LIG1        0.0265
     34 H           0.3041    2.2645    0.0185 H       1  LIG1        0.0265
     35 H           1.1805    1.2384   -1.1237 H       1  LIG1        0.0265
     36 H           1.7050   -0.3500    0.7098 H       1  LIG1        0.0265
     37 H           0.8453    0.6670    1.8694 H       1  LIG1        0.0265
     38 H           2.3989    2.5561    1.3924 H       1  LIG1        0.0265
     39 H           3.2888    1.5553    0.2472 H       1  LIG1        0.0265
     40 H           2.9491    1.0275    3.2469 H       1  LIG1        0.0265
     41 H           4.3912    1.6699    2.4630 H       1  LIG1        0.0265
     42 H           4.6658   -0.4392    1.1830 H       1  LIG1        0.0265
     43 H           3.2303   -1.1273    1.9430 H       1  LIG1        0.0265
     44 H           4.2461   -0.8549    4.1934 H       1  LIG1        0.0265
     45 H           5.7228   -0.2336    3.4603 H       1  LIG1        0.0265
     46 H           4.5271   -3.0276    3.0393 H       1  LIG1        0.0263
     47 H           5.8888   -2.6285    4.0805 H       1  LIG1        0.0263
     48 H           5.8673   -2.3059    1.0312 H       1  LIG1        0.0230
     49 H           6.6683   -3.5829    1.9458 H       1  LIG1        0.0230
     50 H           7.2239   -1.9073    2.1044 H       1  LIG1        0.0230
@<TRIPOS>BOND
     1     1     2    1
     2     2     3    1
     3     3     4    1
     4     4     5    1
     5     5     6    1
     6     6     7    1
     7     7     8    1
     8     8     9    1
     9     9    10    1
    10    10    11    1
    11    11    12    1
    12    12    13    1
    13    13    14    1
    14    14    15    1
    15    15    16    1
    16     1    17    1
    17     1    18    1
    18     1    19    1
    19     2    20    1
    20     2    21    1
    21     3    22    1
    22     3    23    1
    23     4    24    1
    24     4    25    1
    25     5    26    1
    26     5    27    1
    27     6    28    1
    28     6    29    1
    29     7    30    1
    30     7    31    1
    31     8    32    1
    32     8    33    1
    33     9    34    1
    34     9    35    1
    35    10    36    1
    36    10    37    1
    37    11    38    1
    38    11    39    1
    39    12    40    1
    40    12    41    1
    41    13    42    1
    42    13    43    1
    43    14    44    1
    44    14    45    1
    45    15    46    1
    46    15    47    1
    47    16    48    1
    48    16    49    1
    49    16    50    1
