REMARK  Name = NuBBE_405
REMARK  4 active torsions:
REMARK  status: ('A' for Active; 'I' for Inactive)
REMARK    1  A    between atoms: C_1  and  C_2
REMARK    2  A    between atoms: C_6  and  O_7
REMARK    3  A    between atoms: O_7  and  C_8
REMARK    4  A    between atoms: C_10  and  O_11
REMARK                            x       y       z     vdW  Elec       q    Type
REMARK                         _______ _______ _______ _____ _____    ______ ____
ROOT
ATOM      1  C   LIG A   1      -4.310  -0.990   0.227  0.00  0.00    +0.086 C 
ATOM      2  C   LIG A   1      -2.818  -0.922   0.165  0.00  0.00    +0.107 A 
ATOM      3  C   LIG A   1      -2.124   0.216   0.080  0.00  0.00    +0.050 A 
ATOM      4  C   LIG A   1      -0.672   0.148   0.025  0.00  0.00    -0.001 A 
ATOM      5  C   LIG A   1       0.070   1.335  -0.066  0.00  0.00    +0.054 A 
ATOM      6  C   LIG A   1       1.465   1.308  -0.122  0.00  0.00    +0.124 A 
ATOM      7  C   LIG A   1       2.125   0.082  -0.085  0.00  0.00    +0.091 A 
ATOM      8  C   LIG A   1       1.389  -1.107   0.006  0.00  0.00    +0.135 A 
ATOM      9  C   LIG A   1      -0.014  -1.088   0.061  0.00  0.00    +0.108 A 
ATOM     10  C   LIG A   1      -0.823  -2.341   0.158  0.00  0.00    +0.348 A 
ATOM     11  O   LIG A   1      -2.184  -2.182   0.203  0.00  0.00    -0.427 OA
ATOM     12  O   LIG A   1      -0.336  -3.463   0.196  0.00  0.00    -0.244 OA
ENDROOT
BRANCH   6  13
ATOM     13  O   LIG A   1       2.054   2.539  -0.210  0.00  0.00    -0.495 OA
ATOM     14  C   LIG A   1       3.473   2.577  -0.291  0.00  0.00    +0.277 C 
ENDBRANCH   6  13
BRANCH   8  15
ATOM     15  O   LIG A   1       2.074  -2.290   0.039  0.00  0.00    -0.506 OA
ATOM     16  H   LIG A   1       3.031  -2.140  -0.005  0.00  0.00    +0.292 HD
ENDBRANCH   8  15
TORSDOF 2
