@<TRIPOS>MOLECULE
NuBBE_1016
 37 38 0 0 0
SMALL
GASTEIGER

@<TRIPOS>ATOM
      1 O          -1.1357   -2.0737   -4.2161 O.3     1  LIG1       -0.4806
      2 C          -0.4516   -2.9073   -3.4001 C.2     1  LIG1        0.3050
      3 C           0.2305   -2.2007   -2.2627 C.3     1  LIG1        0.0489
      4 C          -0.7128   -2.1120   -1.0713 C.3     1  LIG1       -0.0141
      5 C          -0.0666   -1.4112    0.0998 C.ar    1  LIG1       -0.0043
      6 C          -0.1489   -0.0178    0.2695 C.ar    1  LIG1        0.1355
      7 C           0.4640    0.6081    1.3681 C.ar    1  LIG1        0.0584
      8 C           0.3276    2.0554    1.5191 C.2     1  LIG1       -0.0478
      9 C          -0.3603    2.7366    0.5993 C.2     1  LIG1       -0.0408
     10 C          -1.0027    2.0877   -0.5987 C.3     1  LIG1        0.1235
     11 C          -0.3874    2.6620   -1.8799 C.3     1  LIG1       -0.0215
     12 O          -0.8518    0.6582   -0.6926 O.3     1  LIG1       -0.4812
     13 C          -2.5112    2.3624   -0.5816 C.3     1  LIG1       -0.0215
     14 C           1.1861   -0.1689    2.2997 C.ar    1  LIG1        0.1307
     15 O           1.7744    0.4979    3.3489 O.3     1  LIG1       -0.4944
     16 C           2.5276   -0.2828    4.2708 C.3     1  LIG1        0.0788
     17 C           1.2715   -1.5531    2.1183 C.ar    1  LIG1       -0.0189
     18 C           0.6530   -2.1673    1.0304 C.ar    1  LIG1       -0.0516
     19 O          -0.4286   -4.1202   -3.5670 O.2     1  LIG1       -0.2510
     20 H          -1.0860   -1.1315   -3.9521 H       1  LIG1        0.2951
     21 H           0.5739   -1.2121   -2.5915 H       1  LIG1        0.0381
     22 H           1.1378   -2.7644   -2.0117 H       1  LIG1        0.0381
     23 H          -1.0291   -3.1177   -0.7639 H       1  LIG1        0.0319
     24 H          -1.6424   -1.6009   -1.3520 H       1  LIG1        0.0319
     25 H           0.7766    2.5497    2.3736 H       1  LIG1        0.0624
     26 H          -0.4692    3.8126    0.7105 H       1  LIG1        0.0611
     27 H           0.6843    2.4346   -1.9325 H       1  LIG1        0.0271
     28 H          -0.5130    3.7480   -1.9471 H       1  LIG1        0.0271
     29 H          -0.8411    2.2061   -2.7680 H       1  LIG1        0.0271
     30 H          -2.7346    3.4349   -0.5958 H       1  LIG1        0.0271
     31 H          -2.9782    1.9258    0.3096 H       1  LIG1        0.0271
     32 H          -3.0026    1.8973   -1.4446 H       1  LIG1        0.0271
     33 H           2.9528    0.3908    5.0206 H       1  LIG1        0.0660
     34 H           3.3611   -0.7890    3.7716 H       1  LIG1        0.0660
     35 H           1.8847   -0.9993    4.7931 H       1  LIG1        0.0660
     36 H           1.8115   -2.1918    2.8091 H       1  LIG1        0.0654
     37 H           0.7361   -3.2466    0.9175 H       1  LIG1        0.0623
@<TRIPOS>BOND
     1     1     2    1
     2     2     3    1
     3     3     4    1
     4     4     5    1
     5     5     6   ar
     6     6     7   ar
     7     7     8    1
     8     8     9    2
     9     9    10    1
    10    10    11    1
    11    10    12    1
    12     6    12    1
    13    10    13    1
    14     7    14   ar
    15    14    15    1
    16    15    16    1
    17    14    17   ar
    18    17    18   ar
    19     5    18   ar
    20     2    19    2
    21     1    20    1
    22     3    21    1
    23     3    22    1
    24     4    23    1
    25     4    24    1
    26     8    25    1
    27     9    26    1
    28    11    27    1
    29    11    28    1
    30    11    29    1
    31    13    30    1
    32    13    31    1
    33    13    32    1
    34    16    33    1
    35    16    34    1
    36    16    35    1
    37    17    36    1
    38    18    37    1
