@<TRIPOS>MOLECULE
NuBBE_2183
 50 52 0 0 0
SMALL
GASTEIGER

@<TRIPOS>ATOM
      1 C          -0.6281    0.4094   -0.8667 C.3     1  LIG1        0.0000
      2 H          -0.6009    1.2486   -1.5765 H       1  LIG1        0.0337
      3 C           0.8236   -0.1003   -0.6520 C.3     1  LIG1       -0.0216
      4 C           1.5709   -0.5106   -1.9102 C.ar    1  LIG1       -0.0433
      5 C           2.0776   -1.8172   -2.0414 C.ar    1  LIG1       -0.0130
      6 C           2.7900   -2.1363   -3.1820 C.ar    1  LIG1        0.1665
      7 C           3.0249   -1.2121   -4.1706 C.ar    1  LIG1        0.1662
      8 C           2.5479    0.0766   -4.0813 C.ar    1  LIG1       -0.0159
      9 C           1.8092    0.4254   -2.9433 C.ar    1  LIG1       -0.0549
     10 O           3.7546   -1.7212   -5.1991 O.3     1  LIG1       -0.4526
     11 C           3.9424   -3.0796   -4.7516 C.3     1  LIG1        0.2332
     12 O           3.3338   -3.3504   -3.4707 O.3     1  LIG1       -0.4526
     13 C          -1.4840   -0.6786   -1.5517 C.3     1  LIG1       -0.0588
     14 C          -1.3173    0.9449    0.4565 C.3     1  LIG1        0.1473
     15 O          -2.6286    1.3919    0.0522 O.3     1  LIG1       -0.3645
     16 C          -3.4616    1.9628    1.0509 C.3     1  LIG1        0.0382
     17 C          -0.5207    2.1285    1.0386 C.2     1  LIG1        0.1367
     18 C           0.0558    2.0773    2.2437 C.2     1  LIG1        0.0260
     19 C          -0.0264    0.8786    3.1092 C.2     1  LIG1        0.1855
     20 O           0.5886    0.8572    4.1812 O.2     1  LIG1       -0.2875
     21 C          -0.8722   -0.2580    2.6540 C.2     1  LIG1        0.0023
     22 C          -1.4680   -0.1900    1.4530 C.2     1  LIG1       -0.0379
     23 C          -0.9430   -1.4678    3.5462 C.3     1  LIG1       -0.0063
     24 C          -2.0798   -1.4081    4.5262 C.2     1  LIG1       -0.0867
     25 C          -2.7139   -2.4930    4.9921 C.2     1  LIG1       -0.1023
     26 O          -0.5032    3.2383    0.2042 O.2     1  LIG1       -0.4960
     27 C           0.5852    4.1453    0.3335 C.3     1  LIG1        0.0785
     28 H           0.8145   -0.9466    0.0463 H       1  LIG1        0.0317
     29 H           1.4313    0.6776   -0.1735 H       1  LIG1        0.0317
     30 H           1.9249   -2.5679   -1.2732 H       1  LIG1        0.0658
     31 H           2.7404    0.7952   -4.8699 H       1  LIG1        0.0655
     32 H           1.4203    1.4386   -2.8627 H       1  LIG1        0.0621
     33 H           5.0177   -3.2804   -4.6777 H       1  LIG1        0.1166
     34 H           3.5127   -3.7568   -5.4995 H       1  LIG1        0.1166
     35 H          -1.0882   -0.9332   -2.5394 H       1  LIG1        0.0234
     36 H          -2.5136   -0.3384   -1.7014 H       1  LIG1        0.0234
     37 H          -1.5131   -1.6016   -0.9640 H       1  LIG1        0.0234
     38 H          -4.3468    2.3668    0.5504 H       1  LIG1        0.0524
     39 H          -2.9758    2.7878    1.5783 H       1  LIG1        0.0524
     40 H          -3.7951    1.2009    1.7602 H       1  LIG1        0.0524
     41 H           0.5822    2.9099    2.6985 H       1  LIG1        0.0690
     42 H          -2.0986   -1.0176    1.1364 H       1  LIG1        0.0609
     43 H          -0.0013   -1.5909    4.0932 H       1  LIG1        0.0357
     44 H          -1.0399   -2.3700    2.9215 H       1  LIG1        0.0357
     45 H          -2.3725   -0.4294    4.9011 H       1  LIG1        0.0570
     46 H          -2.4319   -3.4960    4.6857 H       1  LIG1        0.0532
     47 H          -3.5142   -2.3998    5.7200 H       1  LIG1        0.0532
     48 H           1.5281    3.6327    0.1196 H       1  LIG1        0.0660
     49 H           0.6117    4.6224    1.3177 H       1  LIG1        0.0660
     50 H           0.4504    4.9353   -0.4118 H       1  LIG1        0.0660
@<TRIPOS>BOND
     1     1     2    1
     2     1     3    1
     3     3     4    1
     4     4     5   ar
     5     5     6   ar
     6     6     7   ar
     7     7     8   ar
     8     8     9   ar
     9     4     9   ar
    10     7    10    1
    11    10    11    1
    12    11    12    1
    13     6    12    1
    14     1    13    1
    15    15    16    1
    16    14    17    1
    17    17    18    2
    18    18    19    1
    19    19    20    2
    20    19    21    1
    21    21    22    2
    22    14    22    1
    23    21    23    1
    24    23    24    1
    25    24    25    2
    26    17    26    1
    27    26    27    1
    28    14    15    1
    29    14     1    1
    30     3    28    1
    31     3    29    1
    32     5    30    1
    33     8    31    1
    34     9    32    1
    35    11    33    1
    36    11    34    1
    37    13    35    1
    38    13    36    1
    39    13    37    1
    40    16    38    1
    41    16    39    1
    42    16    40    1
    43    18    41    1
    44    22    42    1
    45    23    43    1
    46    23    44    1
    47    24    45    1
    48    25    46    1
    49    25    47    1
    50    27    48    1
    51    27    49    1
    52    27    50    1
