REMARK  Name = NuBBE_240
REMARK  9 active torsions:
REMARK  status: ('A' for Active; 'I' for Inactive)
REMARK    1  A    between atoms: C_1  and  C_2
REMARK    2  A    between atoms: C_3  and  C_4
REMARK    3  A    between atoms: C_10  and  C_11
REMARK    4  A    between atoms: C_16  and  C_17
REMARK    5  A    between atoms: C_16  and  C_18
REMARK    6  A    between atoms: C_19  and  O_23
REMARK    7  A    between atoms: C_26  and  C_29
REMARK    8  A    between atoms: C_32  and  C_37
REMARK    9  A    between atoms: C_34  and  C_36
REMARK                            x       y       z     vdW  Elec       q    Type
REMARK                         _______ _______ _______ _____ _____    ______ ____
ROOT
ATOM      1  C   LIG A   1      -1.805  -2.161  -1.492  0.00  0.00    +0.012 C 
ATOM      2  C   LIG A   1      -0.474  -1.375  -1.208  0.00  0.00    -0.019 C 
ATOM      3  C   LIG A   1       0.402  -2.063   0.028  0.00  0.00    -0.005 C 
ATOM      4  C   LIG A   1       0.376  -3.603  -0.148  0.00  0.00    +0.016 C 
ATOM      5  C   LIG A   1      -0.267  -1.747   1.417  0.00  0.00    -0.063 C 
ATOM      6  C   LIG A   1      -1.469  -1.140   1.456  0.00  0.00    -0.026 C 
ATOM      7  C   LIG A   1      -1.823  -0.070   0.452  0.00  0.00    +0.031 C 
ATOM      8  C   LIG A   1      -0.770   0.062  -0.681  0.00  0.00    +0.006 C 
ATOM      9  C   LIG A   1      -1.049   1.249  -1.674  0.00  0.00    -0.025 C 
ATOM     10  C   LIG A   1      -2.574   1.444  -1.821  0.00  0.00    +0.012 C 
ATOM     11  C   LIG A   1      -0.249   1.078  -3.018  0.00  0.00    +0.003 C 
ATOM     12  C   LIG A   1      -0.363  -0.345  -3.582  0.00  0.00    +0.005 C 
ATOM     13  C   LIG A   1       0.233  -1.361  -2.594  0.00  0.00    +0.008 C 
ATOM     14  C   LIG A   1      -0.493   2.245  -4.053  0.00  0.00    -0.006 C 
ATOM     15  C   LIG A   1       0.486   2.147  -5.257  0.00  0.00    +0.014 C 
ATOM     16  C   LIG A   1      -1.909   2.206  -4.683  0.00  0.00    +0.014 C 
ATOM     17  C   LIG A   1      -0.146   3.599  -3.337  0.00  0.00    +0.120 C 
ATOM     18  C   LIG A   1      -0.670   3.784  -1.910  0.00  0.00    +0.032 C 
ATOM     19  C   LIG A   1      -0.475   2.553  -1.031  0.00  0.00    +0.010 C 
ATOM     20  C   LIG A   1       0.579  -1.293   2.637  0.00  0.00    +0.024 C 
ATOM     21  C   LIG A   1       2.091  -1.067   2.519  0.00  0.00    -0.025 C 
ATOM     22  C   LIG A   1       2.370  -0.601   1.071  0.00  0.00    +0.008 C 
ATOM     23  C   LIG A   1       1.911  -1.621   0.016  0.00  0.00    +0.012 C 
ATOM     24  C   LIG A   1       2.997  -2.292   2.764  0.00  0.00    +0.012 C 
ATOM     25  C   LIG A   1       2.486   0.059   3.540  0.00  0.00    +0.007 C 
ATOM     26  C   LIG A   1       1.381   0.616   4.480  0.00  0.00    +0.004 C 
ATOM     27  C   LIG A   1       0.220  -0.314   4.930  0.00  0.00    -0.011 C 
ATOM     28  C   LIG A   1       0.073  -1.606   4.078  0.00  0.00    -0.004 C 
ATOM     29  C   LIG A   1       0.733  -2.762   4.828  0.00  0.00    +0.008 C 
ATOM     30  C   LIG A   1      -1.109   0.471   4.937  0.00  0.00    +0.008 C 
ENDROOT
BRANCH  17  31
ATOM     31  O   LIG A   1      -0.534   4.724  -4.125  0.00  0.00    -0.391 OA
ATOM     32  H   LIG A   1      -1.485   4.875  -3.992  0.00  0.00    +0.210 HD
ENDBRANCH  17  31
TORSDOF 1
