@<TRIPOS>MOLECULE
NuBBE_1863
 50 52 0 0 0
SMALL
GASTEIGER

@<TRIPOS>ATOM
      1 C          -4.2238    6.0202   -1.0942 C.3     1  LIG1        0.0788
      2 O          -3.9263    5.4590    0.1799 O.3     1  LIG1       -0.4951
      3 C          -3.0207    4.4330    0.1885 C.ar    1  LIG1        0.1201
      4 C          -2.7520    3.8774    1.4421 C.ar    1  LIG1       -0.0196
      5 C          -1.8411    2.8253    1.5755 C.ar    1  LIG1       -0.0527
      6 C          -2.3649    3.9257   -0.9320 C.ar    1  LIG1       -0.0196
      7 C          -1.4523    2.8789   -0.7999 C.ar    1  LIG1       -0.0527
      8 C          -1.1773    2.3098    0.4517 C.ar    1  LIG1       -0.0187
      9 C          -0.1689    1.1850    0.5919 C.3     1  LIG1        0.0840
     10 H          -0.4745    0.5566    1.4373 H       1  LIG1        0.0646
     11 C           1.2474    1.7260    0.8638 C.3     1  LIG1       -0.0223
     12 C           1.9953    2.0657   -0.4212 C.3     1  LIG1       -0.0481
     13 C           1.9117    0.9351   -1.4481 C.3     1  LIG1       -0.0265
     14 O          -0.2561    0.3542   -0.5771 O.3     1  LIG1       -0.3688
     15 C           0.9906   -0.1999   -0.9877 C.3     1  LIG1        0.0598
     16 H           1.4448   -0.7272   -0.1404 H       1  LIG1        0.0596
     17 C           0.7504   -1.2023   -2.1242 C.3     1  LIG1       -0.0226
     18 C          -0.1891   -2.3555   -1.7404 C.3     1  LIG1       -0.0253
     19 C           0.3067   -3.1925   -0.5842 C.ar    1  LIG1       -0.0471
     20 C          -0.4569   -3.3234    0.5855 C.ar    1  LIG1       -0.0551
     21 C           0.0197   -4.0807    1.6608 C.ar    1  LIG1       -0.0197
     22 C           1.5363   -3.8490   -0.6607 C.ar    1  LIG1       -0.0551
     23 C           2.0166   -4.5905    0.4174 C.ar    1  LIG1       -0.0197
     24 C           1.2637   -4.7094    1.5877 C.ar    1  LIG1        0.1201
     25 O           1.6453   -5.4114    2.6980 O.3     1  LIG1       -0.4951
     26 C           2.9379   -6.0089    2.6438 C.3     1  LIG1        0.0788
     27 H          -4.9554    6.8200   -0.9519 H       1  LIG1        0.0660
     28 H          -4.6718    5.2717   -1.7571 H       1  LIG1        0.0660
     29 H          -3.3302    6.4637   -1.5477 H       1  LIG1        0.0660
     30 H          -3.2620    4.2665    2.3204 H       1  LIG1        0.0654
     31 H          -1.6553    2.4108    2.5627 H       1  LIG1        0.0622
     32 H          -2.5404    4.3159   -1.9289 H       1  LIG1        0.0654
     33 H          -0.9560    2.4993   -1.6922 H       1  LIG1        0.0622
     34 H           1.8210    0.9444    1.3807 H       1  LIG1        0.0293
     35 H           1.2344    2.5862    1.5430 H       1  LIG1        0.0293
     36 H           3.0459    2.2811   -0.1930 H       1  LIG1        0.0267
     37 H           1.5865    2.9854   -0.8565 H       1  LIG1        0.0267
     38 H           2.9133    0.5416   -1.6575 H       1  LIG1        0.0290
     39 H           1.5412    1.3620   -2.3894 H       1  LIG1        0.0290
     40 H           0.2978   -0.6846   -2.9798 H       1  LIG1        0.0293
     41 H           1.7145   -1.5974   -2.4664 H       1  LIG1        0.0293
     42 H          -0.3091   -3.0200   -2.6053 H       1  LIG1        0.0314
     43 H          -1.1876   -1.9607   -1.5217 H       1  LIG1        0.0314
     44 H          -1.4224   -2.8320    0.6692 H       1  LIG1        0.0621
     45 H          -0.5832   -4.1775    2.5594 H       1  LIG1        0.0654
     46 H           2.1413   -3.7864   -1.5644 H       1  LIG1        0.0621
     47 H           2.9866   -5.0643    0.3084 H       1  LIG1        0.0654
     48 H           3.1138   -6.5410    3.5818 H       1  LIG1        0.0660
     49 H           3.7166   -5.2441    2.5410 H       1  LIG1        0.0660
     50 H           2.9979   -6.7419    1.8312 H       1  LIG1        0.0660
@<TRIPOS>BOND
     1     1     2    1
     2     2     3    1
     3     3     4   ar
     4     4     5   ar
     5     3     6   ar
     6     6     7   ar
     7     7     8   ar
     8     5     8   ar
     9     8     9    1
    10     9    10    1
    11     9    11    1
    12    11    12    1
    13    12    13    1
    14     9    14    1
    15    14    15    1
    16    13    15    1
    17    17    18    1
    18    18    19    1
    19    19    20   ar
    20    20    21   ar
    21    19    22   ar
    22    22    23   ar
    23    23    24   ar
    24    21    24   ar
    25    24    25    1
    26    25    26    1
    27    15    17    1
    28    15    16    1
    29     1    27    1
    30     1    28    1
    31     1    29    1
    32     4    30    1
    33     5    31    1
    34     6    32    1
    35     7    33    1
    36    11    34    1
    37    11    35    1
    38    12    36    1
    39    12    37    1
    40    13    38    1
    41    13    39    1
    42    17    40    1
    43    17    41    1
    44    18    42    1
    45    18    43    1
    46    20    44    1
    47    21    45    1
    48    22    46    1
    49    23    47    1
    50    26    48    1
    51    26    49    1
    52    26    50    1
