@<TRIPOS>MOLECULE
NuBBE_147
 29 30 0 0 0
SMALL
GASTEIGER

@<TRIPOS>ATOM
      1 C          -2.3088   -1.6109    2.3403 C.3     1  LIG1        0.0790
      2 O          -1.0502   -2.0338    1.8249 O.3     1  LIG1       -0.4912
      3 C          -0.4633   -1.2135    0.8996 C.ar    1  LIG1        0.1687
      4 C           0.3704   -1.7825   -0.0760 C.ar    1  LIG1        0.2043
      5 O           0.6686   -3.1170   -0.2370 O.3     1  LIG1       -0.4885
      6 C           0.6695   -3.9255    0.9342 C.3     1  LIG1        0.0791
      7 C           0.9479   -0.9597   -1.0654 C.ar    1  LIG1        0.1768
      8 O           1.7191   -1.5643   -2.0257 O.3     1  LIG1       -0.5027
      9 C           0.7469    0.4222   -1.0677 C.ar    1  LIG1        0.1091
     10 C           1.3372    1.3339   -2.0733 C.ar    1  LIG1        0.1964
     11 C           1.0044    2.7638   -1.9316 C.ar    1  LIG1        0.0237
     12 C           0.2230    3.1740   -0.9252 C.ar    1  LIG1        0.1062
     13 C          -0.1514    4.6102   -0.7326 C.3     1  LIG1       -0.0062
     14 O          -0.3123    2.3266    0.0269 O.2     1  LIG1       -0.4595
     15 C          -0.0504    0.9807   -0.0704 C.ar    1  LIG1        0.1460
     16 C          -0.6469    0.1745    0.9061 C.ar    1  LIG1        0.0270
     17 O           2.0652    0.9867   -2.9931 O.2     1  LIG1       -0.2869
     18 H          -2.7631   -2.4663    2.8496 H       1  LIG1        0.0660
     19 H          -2.9877   -1.2993    1.5391 H       1  LIG1        0.0660
     20 H          -2.1798   -0.8154    3.0805 H       1  LIG1        0.0660
     21 H           1.2631   -4.8189    0.7156 H       1  LIG1        0.0660
     22 H          -0.3440   -4.2621    1.1707 H       1  LIG1        0.0660
     23 H           1.1400   -3.4210    1.7849 H       1  LIG1        0.0660
     24 H           1.6867   -2.5219   -1.8383 H       1  LIG1        0.2923
     25 H           1.4221    3.4330   -2.6732 H       1  LIG1        0.0689
     26 H           0.2895    5.2579   -1.4974 H       1  LIG1        0.0308
     27 H           0.1912    4.9625    0.2456 H       1  LIG1        0.0308
     28 H          -1.2391    4.7259   -0.7801 H       1  LIG1        0.0308
     29 H          -1.2476    0.6604    1.6691 H       1  LIG1        0.0692
@<TRIPOS>BOND
     1     1     2    1
     2     2     3    1
     3     3     4   ar
     4     4     5    1
     5     5     6    1
     6     4     7   ar
     7     7     8    1
     8     7     9   ar
     9     9    10   ar
    10    10    11   ar
    11    11    12   ar
    12    12    13    1
    13    12    14   ar
    14    14    15   ar
    15     9    15   ar
    16    15    16   ar
    17     3    16   ar
    18    10    17    2
    19     1    18    1
    20     1    19    1
    21     1    20    1
    22     6    21    1
    23     6    22    1
    24     6    23    1
    25     8    24    1
    26    11    25    1
    27    13    26    1
    28    13    27    1
    29    13    28    1
    30    16    29    1
