@<TRIPOS>MOLECULE
NuBBE_1564
 65 68 0 0 0
SMALL
GASTEIGER

@<TRIPOS>ATOM
      1 O          -2.1613    4.1054    3.1147 O.2     1  LIG1       -0.2866
      2 C          -1.3518    3.4172    3.7585 C.ar    1  LIG1        0.1998
      3 C          -1.2543    3.5153    5.2164 C.ar    1  LIG1        0.0644
      4 C          -2.2022    4.2218    5.9597 C.ar    1  LIG1       -0.0474
      5 C          -2.1294    4.2099    7.3514 C.ar    1  LIG1       -0.0609
      6 C          -1.1023    3.5160    7.9972 C.ar    1  LIG1       -0.0582
      7 C          -0.1379    2.8384    7.2513 C.ar    1  LIG1       -0.0186
      8 C          -0.2218    2.8301    5.8609 C.ar    1  LIG1        0.1393
      9 O           0.7164    2.1054    5.1794 O.2     1  LIG1       -0.4541
     10 C           0.4857    1.8691    3.8452 C.ar    1  LIG1        0.1494
     11 C          -0.4817    2.4358    3.1036 C.ar    1  LIG1        0.0828
     12 C          -0.6846    2.1170    1.6488 C.3     1  LIG1        0.1322
     13 C          -1.8843    1.1528    1.4298 C.3     1  LIG1       -0.0113
     14 C          -2.1840    0.7785   -0.0332 C.3     1  LIG1       -0.0494
     15 C          -1.0783    0.0241   -0.7799 C.3     1  LIG1       -0.0529
     16 C          -0.7068   -1.3082   -0.1147 C.3     1  LIG1       -0.0531
     17 C           0.4381   -2.0581   -0.8034 C.3     1  LIG1       -0.0531
     18 C           0.1514   -2.4143   -2.2520 C.3     1  LIG1       -0.0531
     19 C           1.3286   -3.1526   -2.8930 C.3     1  LIG1       -0.0531
     20 C           1.0589   -3.5211   -4.3559 C.3     1  LIG1       -0.0531
     21 C           0.8143   -2.2998   -5.2557 C.3     1  LIG1       -0.0531
     22 C           0.5440   -2.7077   -6.7040 C.3     1  LIG1       -0.0533
     23 C           0.2956   -1.5285   -7.6517 C.3     1  LIG1       -0.0559
     24 C          -0.9006   -0.6600   -7.2847 C.3     1  LIG1       -0.0653
     25 O           0.5213    1.6231    1.0276 O.3     1  LIG1       -0.4833
     26 C           1.3670    0.8692    1.7956 C.ar    1  LIG1        0.1320
     27 C           1.3788    0.9200    3.1859 C.ar    1  LIG1        0.0594
     28 C           2.2632    0.0842    3.8853 C.ar    1  LIG1       -0.0475
     29 C           3.0855   -0.8166    3.2006 C.ar    1  LIG1       -0.0609
     30 C           3.0810   -0.8405    1.8108 C.ar    1  LIG1       -0.0583
     31 C           2.2589    0.0432    1.1158 C.ar    1  LIG1       -0.0192
     32 H          -3.0049    4.7538    5.4556 H       1  LIG1        0.0626
     33 H          -2.8824    4.7331    7.9364 H       1  LIG1        0.0618
     34 H          -1.0594    3.4958    9.0831 H       1  LIG1        0.0619
     35 H           0.6613    2.2979    7.7524 H       1  LIG1        0.0654
     36 H          -0.9083    3.0457    1.1095 H       1  LIG1        0.0787
     37 H          -2.7950    1.6147    1.8389 H       1  LIG1        0.0304
     38 H          -1.7437    0.2312    2.0069 H       1  LIG1        0.0304
     39 H          -2.4363    1.6877   -0.5935 H       1  LIG1        0.0267
     40 H          -3.0902    0.1560   -0.0535 H       1  LIG1        0.0267
     41 H          -0.1968    0.6595   -0.8984 H       1  LIG1        0.0265
     42 H          -1.4313   -0.1555   -1.8008 H       1  LIG1        0.0265
     43 H          -1.5918   -1.9525   -0.0747 H       1  LIG1        0.0265
     44 H          -0.4104   -1.1402    0.9254 H       1  LIG1        0.0265
     45 H           0.6690   -2.9590   -0.2229 H       1  LIG1        0.0265
     46 H           1.3427   -1.4538   -0.8039 H       1  LIG1        0.0265
     47 H          -0.0251   -1.4869   -2.8021 H       1  LIG1        0.0265
     48 H          -0.7566   -3.0222   -2.3099 H       1  LIG1        0.0265
     49 H           1.5321   -4.0697   -2.3256 H       1  LIG1        0.0265
     50 H           2.2373   -2.5398   -2.8321 H       1  LIG1        0.0265
     51 H           0.1938   -4.1938   -4.3991 H       1  LIG1        0.0265
     52 H           1.9192   -4.0871   -4.7339 H       1  LIG1        0.0265
     53 H           1.6838   -1.6336   -5.2112 H       1  LIG1        0.0265
     54 H          -0.0490   -1.7376   -4.8894 H       1  LIG1        0.0265
     55 H          -0.3230   -3.3790   -6.7366 H       1  LIG1        0.0265
     56 H           1.3999   -3.2786   -7.0833 H       1  LIG1        0.0265
     57 H           0.1292   -1.9372   -8.6556 H       1  LIG1        0.0263
     58 H           1.1914   -0.8995   -7.7141 H       1  LIG1        0.0263
     59 H          -1.7117   -1.2441   -6.8396 H       1  LIG1        0.0230
     60 H          -1.2941   -0.1663   -8.1803 H       1  LIG1        0.0230
     61 H          -0.6110    0.1262   -6.5797 H       1  LIG1        0.0230
     62 H           2.3155    0.1202    4.9696 H       1  LIG1        0.0626
     63 H           3.7395   -1.4869    3.7524 H       1  LIG1        0.0618
     64 H           3.7145   -1.5379    1.2680 H       1  LIG1        0.0619
     65 H           2.2845    0.0700    0.0321 H       1  LIG1        0.0654
@<TRIPOS>BOND
     1     1     2    2
     2     2     3   ar
     3     3     4   ar
     4     4     5   ar
     5     5     6   ar
     6     6     7   ar
     7     7     8   ar
     8     3     8   ar
     9     8     9   ar
    10     9    10   ar
    11    10    11   ar
    12     2    11   ar
    13    11    12    1
    14    12    13    1
    15    13    14    1
    16    14    15    1
    17    15    16    1
    18    16    17    1
    19    17    18    1
    20    18    19    1
    21    19    20    1
    22    20    21    1
    23    21    22    1
    24    22    23    1
    25    23    24    1
    26    12    25    1
    27    25    26    1
    28    26    27   ar
    29    10    27    1
    30    27    28   ar
    31    28    29   ar
    32    29    30   ar
    33    30    31   ar
    34    26    31   ar
    35     4    32    1
    36     5    33    1
    37     6    34    1
    38     7    35    1
    39    12    36    1
    40    13    37    1
    41    13    38    1
    42    14    39    1
    43    14    40    1
    44    15    41    1
    45    15    42    1
    46    16    43    1
    47    16    44    1
    48    17    45    1
    49    17    46    1
    50    18    47    1
    51    18    48    1
    52    19    49    1
    53    19    50    1
    54    20    51    1
    55    20    52    1
    56    21    53    1
    57    21    54    1
    58    22    55    1
    59    22    56    1
    60    23    57    1
    61    23    58    1
    62    24    59    1
    63    24    60    1
    64    24    61    1
    65    28    62    1
    66    29    63    1
    67    30    64    1
    68    31    65    1
