REMARK  Name = NuBBE_205
REMARK  11 active torsions:
REMARK  status: ('A' for Active; 'I' for Inactive)
REMARK    1  A    between atoms: O_1  and  C_2
REMARK    2  A    between atoms: C_2  and  C_3
REMARK    3  A    between atoms: C_8  and  C_9
REMARK    4  A    between atoms: C_9  and  O_10
REMARK    5  A    between atoms: C_15  and  O_17
REMARK    6  A    between atoms: O_17  and  C_18
REMARK    7  A    between atoms: C_21  and  C_23
REMARK    8  A    between atoms: C_23  and  O_24
REMARK    9  A    between atoms: C_25  and  O_27
REMARK   10  A    between atoms: C_28  and  O_30
REMARK   11  A    between atoms: C_31  and  O_33
REMARK                            x       y       z     vdW  Elec       q    Type
REMARK                         _______ _______ _______ _____ _____    ______ ____
ROOT
ATOM      1  C   LIG A   1       2.249  -1.121  -2.142  0.00  0.00    +0.075 C 
ATOM      2  C   LIG A   1       1.667   0.152  -2.713  0.00  0.00    +0.046 C 
ATOM      3  C   LIG A   1       0.189   0.352  -2.280  0.00  0.00    +0.093 C 
ATOM      4  C   LIG A   1      -0.586  -0.201  -3.465  0.00  0.00    -0.039 C 
ATOM      5  C   LIG A   1       0.201  -0.307  -4.545  0.00  0.00    -0.024 C 
ATOM      6  C   LIG A   1       1.603   0.128  -4.258  0.00  0.00    +0.036 C 
ATOM      7  C   LIG A   1       1.541  -1.924  -1.331  0.00  0.00    +0.201 C 
ATOM      8  O   LIG A   1       0.283  -1.674  -0.857  0.00  0.00    -0.470 OA
ATOM      9  C   LIG A   1      -0.100  -0.290  -0.907  0.00  0.00    +0.317 C 
ENDROOT
BRANCH   1  10
ATOM     10  C   LIG A   1       3.643  -1.480  -2.461  0.00  0.00    +0.336 C 
ATOM     11  O   LIG A   1       4.495  -0.716  -2.896  0.00  0.00    -0.245 OA
BRANCH  10  12
ATOM     12  O   LIG A   1       3.916  -2.780  -2.259  0.00  0.00    -0.477 OA
ATOM     13  H   LIG A   1       4.858  -2.877  -2.502  0.00  0.00    +0.295 HD
ENDBRANCH  10  12
ENDBRANCH   1  10
BRANCH   4  14
ATOM     14  C   LIG A   1      -2.037  -0.527  -3.409  0.00  0.00    +0.187 C 
BRANCH  14  15
ATOM     15  O   LIG A   1      -2.693   0.400  -2.561  0.00  0.00    -0.391 OA
ATOM     16  H   LIG A   1      -3.626   0.127  -2.524  0.00  0.00    +0.210 HD
ENDBRANCH  14  15
ENDBRANCH   4  14
BRANCH   9  17
ATOM     17  O   LIG A   1       0.557   0.475   0.120  0.00  0.00    -0.309 OA
BRANCH  17  18
ATOM     18  C   LIG A   1       0.111   0.132   1.443  0.00  0.00    +0.286 C 
ATOM     19  O   LIG A   1      -1.280   0.458   1.562  0.00  0.00    -0.340 OA
ATOM     20  C   LIG A   1      -1.789   0.276   2.889  0.00  0.00    +0.178 C 
ATOM     21  C   LIG A   1      -1.143   1.315   3.804  0.00  0.00    +0.177 C 
ATOM     22  C   LIG A   1       0.355   1.037   3.850  0.00  0.00    +0.179 C 
ATOM     23  C   LIG A   1       0.986   0.924   2.458  0.00  0.00    +0.201 C 
BRANCH  21  24
ATOM     24  O   LIG A   1      -1.657   1.280   5.139  0.00  0.00    -0.387 OA
ATOM     25  H   LIG A   1      -1.533   0.384   5.502  0.00  0.00    +0.210 HD
ENDBRANCH  21  24
BRANCH  22  26
ATOM     26  O   LIG A   1       1.032   2.071   4.589  0.00  0.00    -0.386 OA
ATOM     27  H   LIG A   1       0.413   2.369   5.285  0.00  0.00    +0.210 HD
ENDBRANCH  22  26
BRANCH  23  28
ATOM     28  O   LIG A   1       2.271   0.293   2.633  0.00  0.00    -0.384 OA
ATOM     29  H   LIG A   1       2.711   0.796   3.348  0.00  0.00    +0.210 HD
ENDBRANCH  23  28
BRANCH  20  30
ATOM     30  C   LIG A   1      -3.312   0.423   2.860  0.00  0.00    +0.190 C 
BRANCH  30  31
ATOM     31  O   LIG A   1      -3.877  -0.599   2.037  0.00  0.00    -0.392 OA
ATOM     32  H   LIG A   1      -3.465  -0.490   1.159  0.00  0.00    +0.209 HD
ENDBRANCH  30  31
ENDBRANCH  20  30
ENDBRANCH  17  18
ENDBRANCH   9  17
TORSDOF 11
