@<TRIPOS>MOLECULE
NuBBE_1633
 69 73 0 0 0
SMALL
GASTEIGER

@<TRIPOS>ATOM
      1 C           1.8303    0.6231    4.0202 C.3     1  LIG1       -0.0525
      2 C           1.3130    1.8421    3.2341 C.3     1  LIG1        0.0312
      3 C           0.8843    2.9461    4.2416 C.3     1  LIG1       -0.0525
      4 C           2.5157    2.4456    2.5014 C.2     1  LIG1        0.1617
      5 C           2.2271    3.3949    1.4148 C.2     1  LIG1       -0.0223
      6 C           1.1841    3.1451    0.6299 C.2     1  LIG1       -0.0766
      7 C           0.3558    1.8640    0.7096 C.3     1  LIG1       -0.0083
      8 C           0.9844    0.7932   -0.3083 C.3     1  LIG1        0.0263
      9 H           1.9951    0.5539    0.0560 H       1  LIG1        0.0388
     10 C           0.2354   -0.5451   -0.4486 C.3     1  LIG1        0.1107
     11 O           0.9877   -1.5119   -1.2211 O.3     1  LIG1       -0.4609
     12 C           1.3141   -2.6640   -0.5579 C.2     1  LIG1        0.3042
     13 C           2.0019   -3.6378   -1.4641 C.3     1  LIG1        0.0332
     14 O           1.0551   -2.9103    0.6118 O.2     1  LIG1       -0.2512
     15 H           0.1040   -0.9632    0.5299 H       1  LIG1        0.0740
     16 C          -1.1639   -0.3837   -1.0240 C.3     1  LIG1       -0.0061
     17 H          -1.6409   -1.3643   -1.0567 H       1  LIG1        0.0307
     18 H          -1.7498    0.1643   -0.2770 H       1  LIG1        0.0307
     19 C          -1.2626    0.3607   -2.3745 C.3     1  LIG1        0.0136
     20 C          -2.4381    1.3700   -2.2330 C.3     1  LIG1       -0.0559
     21 C           0.0231    1.1296   -2.7343 C.3     1  LIG1        0.1231
     22 C           0.4035    0.7745   -4.1423 C.3     1  LIG1        0.0938
     23 H           1.4170    0.7489   -4.5069 H       1  LIG1        0.0629
     24 C          -0.5092   -0.2384   -4.7236 C.3     1  LIG1       -0.0160
     25 C          -1.5826   -0.5403   -3.6505 C.3     1  LIG1       -0.0019
     26 H          -2.5291   -0.1847   -4.0878 H       1  LIG1        0.0357
     27 C          -1.8145   -2.0124   -3.4250 C.ar    1  LIG1       -0.0059
     28 C          -0.9346   -3.0610   -3.6108 C.ar    1  LIG1        0.0951
     29 O          -1.5130   -4.2506   -3.3181 O.2     1  LIG1       -0.4708
     30 C          -2.7882   -3.9861   -2.9440 C.ar    1  LIG1        0.0919
     31 C          -3.0299   -2.6337   -2.9964 C.ar    1  LIG1       -0.0205
     32 O          -0.1831    2.0376   -3.8471 O.3     1  LIG1       -0.3595
     33 C           1.1331    1.3585   -1.7493 C.2     1  LIG1       -0.0351
     34 C           2.2883    1.9711   -2.0921 C.2     1  LIG1       -0.0962
     35 C           0.0883    1.5465    2.2674 C.3     1  LIG1       -0.0119
     36 C          -0.6942    0.2386    2.5461 C.3     1  LIG1        0.0492
     37 C          -1.1282   -0.1548    3.9570 C.2     1  LIG1        0.3071
     38 O          -1.1626   -1.5228    4.0060 O.3     1  LIG1       -0.4679
     39 C          -1.3262   -2.1283    5.2886 C.3     1  LIG1        0.0817
     40 O          -1.3835    0.6021    4.8730 O.2     1  LIG1       -0.2509
     41 H          -0.6556    2.3216    2.5234 H       1  LIG1        0.0321
     42 O           3.6840    2.2754    2.8354 O.2     1  LIG1       -0.2921
     43 H           2.7379    0.8640    4.5865 H       1  LIG1        0.0239
     44 H           2.0800   -0.2020    3.3453 H       1  LIG1        0.0239
     45 H           1.1258    0.2661    4.7723 H       1  LIG1        0.0239
     46 H           1.6584    3.1274    4.9950 H       1  LIG1        0.0239
     47 H          -0.0411    2.6923    4.7649 H       1  LIG1        0.0239
     48 H           0.7085    3.9028    3.7319 H       1  LIG1        0.0239
     49 H           2.9017    4.2410    1.2971 H       1  LIG1        0.0649
     50 H           0.9694    3.8330   -0.1890 H       1  LIG1        0.0576
     51 H          -0.6291    2.1294    0.3045 H       1  LIG1        0.0353
     52 H           2.6896   -3.1189   -2.1321 H       1  LIG1        0.0342
     53 H           1.2579   -4.1980   -2.0305 H       1  LIG1        0.0342
     54 H           2.5809   -4.3330   -0.8527 H       1  LIG1        0.0342
     55 H          -2.2242    2.1253   -1.4694 H       1  LIG1        0.0236
     56 H          -3.3629    0.8513   -1.9537 H       1  LIG1        0.0236
     57 H          -2.6338    1.9088   -3.1668 H       1  LIG1        0.0236
     58 H           0.0746   -1.1161   -5.0142 H       1  LIG1        0.0297
     59 H          -0.9754    0.1441   -5.6390 H       1  LIG1        0.0297
     60 H           0.0933   -3.1226   -3.9388 H       1  LIG1        0.1032
     61 H          -3.3844   -4.8483   -2.6777 H       1  LIG1        0.1029
     62 H          -3.9655   -2.1527   -2.7454 H       1  LIG1        0.0652
     63 H           2.4423    2.3793   -3.0879 H       1  LIG1        0.0535
     64 H           3.1084    2.0999   -1.3930 H       1  LIG1        0.0535
     65 H          -0.0489   -0.5867    2.2548 H       1  LIG1        0.0381
     66 H          -1.6133    0.2349    1.9543 H       1  LIG1        0.0381
     67 H          -1.0983   -3.1964    5.1829 H       1  LIG1        0.0661
     68 H          -2.3601   -2.0316    5.6295 H       1  LIG1        0.0661
     69 H          -0.6274   -1.7075    6.0183 H       1  LIG1        0.0661
@<TRIPOS>BOND
     1     1     2    1
     2     2     3    1
     3     2     4    1
     4     4     5    1
     5     5     6    2
     6     6     7    1
     7     8    10    1
     8    11    12    1
     9    12    13    1
    10    12    14    2
    11    10    16    1
    12    16    19    1
    13    19    21    1
    14    21    22    1
    15    22    24    1
    16    24    25    1
    17    19    25    1
    18    27    28   ar
    19    28    29   ar
    20    29    30   ar
    21    30    31   ar
    22    27    31   ar
    23    21    32    1
    24    22    32    1
    25    21    33    1
    26     8    33    1
    27     7    35    1
    28    35    36    1
    29    36    37    1
    30    37    38    1
    31    38    39    1
    32    37    40    2
    33     2    35    1
    34    35    41    1
    35     4    42    2
    36    10    11    1
    37    10    15    1
    38    16    17    1
    39    16    18    1
    40    19    20    1
    41    22    23    1
    42    25    26    1
    43    25    27    1
    44    33    34    2
    45     8     9    1
    46     8     7    1
    47     1    43    1
    48     1    44    1
    49     1    45    1
    50     3    46    1
    51     3    47    1
    52     3    48    1
    53     5    49    1
    54     6    50    1
    55     7    51    1
    56    13    52    1
    57    13    53    1
    58    13    54    1
    59    20    55    1
    60    20    56    1
    61    20    57    1
    62    24    58    1
    63    24    59    1
    64    28    60    1
    65    30    61    1
    66    31    62    1
    67    34    63    1
    68    34    64    1
    69    36    65    1
    70    36    66    1
    71    39    67    1
    72    39    68    1
    73    39    69    1
