@<TRIPOS>MOLECULE
NuBBE_420
 68 70 0 0 0
SMALL
GASTEIGER

@<TRIPOS>ATOM
      1 O          -4.8784   -2.8741    3.2168 O.3     1  LIG1       -0.3950
      2 C          -5.7634   -1.9100    2.6641 C.3     1  LIG1        0.0448
      3 C          -5.0919   -0.5402    2.6836 C.3     1  LIG1       -0.0218
      4 C          -3.7471   -0.4893    1.9104 C.3     1  LIG1        0.0078
      5 H          -3.0861   -1.2557    2.3413 H       1  LIG1        0.0360
      6 C          -3.8988   -0.8328    0.3890 C.3     1  LIG1        0.0467
      7 H          -3.9586   -1.9274    0.3027 H       1  LIG1        0.0410
      8 C          -2.6324   -0.3475   -0.3603 C.3     1  LIG1        0.2103
      9 H          -2.7720   -0.5519   -1.4243 H       1  LIG1        0.1062
     10 O          -2.4964    1.0815   -0.2370 O.2     1  LIG1       -0.4699
     11 C          -2.5357    1.5253    1.0580 C.2     1  LIG1        0.0981
     12 C          -3.0212    0.8318    2.0981 C.2     1  LIG1        0.0745
     13 C          -2.6710    1.2844    3.4610 C.2     1  LIG1        0.3360
     14 O          -2.2053    2.5444    3.5079 O.3     1  LIG1       -0.4773
     15 O          -2.7246    0.6065    4.4707 O.2     1  LIG1       -0.2454
     16 O          -1.4657   -1.0754    0.0718 O.3     1  LIG1       -0.3081
     17 C          -0.2762   -0.6093   -0.5852 C.3     1  LIG1        0.2029
     18 H          -0.2152    0.4728   -0.4581 H       1  LIG1        0.0951
     19 O          -0.3689   -0.8249   -1.9985 O.3     1  LIG1       -0.3394
     20 C           0.1167   -2.0802   -2.4930 C.3     1  LIG1        0.1131
     21 H           1.1342   -1.9012   -2.8637 H       1  LIG1        0.0647
     22 C           0.1556   -3.1631   -1.4138 C.3     1  LIG1        0.1130
     23 H          -0.8224   -3.3056   -0.9404 H       1  LIG1        0.0647
     24 C           1.1892   -2.7117   -0.3811 C.3     1  LIG1        0.1251
     25 H           2.1852   -2.8065   -0.8350 H       1  LIG1        0.0659
     26 O           1.2173   -3.6428    0.7120 O.3     1  LIG1       -0.3853
     27 O           0.5587   -4.4273   -1.9424 O.3     1  LIG1       -0.3864
     28 C          -0.7275   -2.4734   -3.7090 C.3     1  LIG1        0.0730
     29 O          -2.0970   -2.6376   -3.3463 O.3     1  LIG1       -0.3924
     30 C           0.9672   -1.2577    0.0838 C.3     1  LIG1        0.1820
     31 H           0.8754   -1.2369    1.1764 H       1  LIG1        0.0813
     32 O           2.1895   -0.5719   -0.2662 O.3     1  LIG1       -0.4504
     33 C           2.3498    0.6643    0.2828 C.2     1  LIG1        0.3324
     34 C           3.7385    1.0875   -0.0288 C.2     1  LIG1        0.0231
     35 C           4.0535    2.3784   -0.0417 C.2     1  LIG1       -0.0477
     36 C           5.4130    2.8517   -0.3522 C.ar    1  LIG1       -0.0211
     37 C           5.5621    4.0861   -0.9990 C.ar    1  LIG1       -0.0094
     38 C           6.8389    4.5511   -1.2945 C.ar    1  LIG1        0.1588
     39 O           7.0435    5.7473   -1.9254 O.3     1  LIG1       -0.5033
     40 C           7.9607    3.8015   -0.9505 C.ar    1  LIG1        0.1582
     41 C           7.8313    2.5846   -0.3038 C.ar    1  LIG1       -0.0160
     42 C           6.5540    2.1144    0.0049 C.ar    1  LIG1       -0.0509
     43 O           9.2094    4.2680   -1.2416 O.3     1  LIG1       -0.5033
     44 O           1.5435    1.2982    0.9031 O.2     1  LIG1       -0.2456
     45 C          -5.1047   -0.2108   -0.3134 C.2     1  LIG1       -0.0816
     46 C          -6.0736   -0.8817   -0.9500 C.2     1  LIG1       -0.1022
     47 H          -5.1293   -3.7433    2.8557 H       1  LIG1        0.2094
     48 H          -6.6801   -1.8879    3.2636 H       1  LIG1        0.0557
     49 H          -6.0304   -2.2212    1.6520 H       1  LIG1        0.0557
     50 H          -4.9118   -0.2896    3.7355 H       1  LIG1        0.0293
     51 H          -5.7879    0.2174    2.3044 H       1  LIG1        0.0293
     52 H          -2.0545    2.4943    1.1221 H       1  LIG1        0.1029
     53 H          -1.9231    2.6501    4.4394 H       1  LIG1        0.2954
     54 H           0.3159   -3.7214    1.0736 H       1  LIG1        0.2101
     55 H           0.8086   -4.9795   -1.1760 H       1  LIG1        0.2100
     56 H          -0.6833   -1.6832   -4.4670 H       1  LIG1        0.0584
     57 H          -0.3746   -3.4034   -4.1624 H       1  LIG1        0.0584
     58 H          -2.3422   -1.8097   -2.8979 H       1  LIG1        0.2095
     59 H           4.4403    0.2903   -0.2265 H       1  LIG1        0.0689
     60 H           3.2973    3.1432    0.1388 H       1  LIG1        0.0626
     61 H           4.6856    4.6641   -1.2769 H       1  LIG1        0.0661
     62 H           6.1780    6.1679   -2.0686 H       1  LIG1        0.2923
     63 H           8.7110    2.0082   -0.0352 H       1  LIG1        0.0655
     64 H           6.4719    1.1676    0.5330 H       1  LIG1        0.0625
     65 H           9.0517    5.1303   -1.6745 H       1  LIG1        0.2923
     66 H          -5.1294    0.8789   -0.3562 H       1  LIG1        0.0571
     67 H          -6.1099   -1.9657   -0.9835 H       1  LIG1        0.0532
     68 H          -6.8569   -0.3408   -1.4767 H       1  LIG1        0.0532
@<TRIPOS>BOND
     1     1     2    1
     2     2     3    1
     3     4     6    1
     4     6     8    1
     5     8    10    1
     6    10    11    1
     7    11    12    2
     8     4    12    1
     9    12    13    1
    10    13    14    1
    11    13    15    2
    12    16    17    1
    13    17    18    1
    14    17    19    1
    15    19    20    1
    16    20    22    1
    17    22    23    1
    18    22    24    1
    19    22    27    1
    20    28    29    1
    21    17    30    1
    22    24    30    1
    23    32    33    1
    24    33    34    1
    25    34    35    2
    26    35    36    1
    27    36    37   ar
    28    37    38   ar
    29    38    39    1
    30    38    40   ar
    31    40    41   ar
    32    41    42   ar
    33    36    42   ar
    34    40    43    1
    35    33    44    2
    36    45    46    2
    37     4     5    1
    38     4     3    1
    39     6    45    1
    40     6     7    1
    41     8    16    1
    42     8     9    1
    43    20    28    1
    44    20    21    1
    45    24    26    1
    46    24    25    1
    47    30    32    1
    48    30    31    1
    49     1    47    1
    50     2    48    1
    51     2    49    1
    52     3    50    1
    53     3    51    1
    54    11    52    1
    55    14    53    1
    56    26    54    1
    57    27    55    1
    58    28    56    1
    59    28    57    1
    60    29    58    1
    61    34    59    1
    62    35    60    1
    63    37    61    1
    64    39    62    1
    65    41    63    1
    66    42    64    1
    67    43    65    1
    68    45    66    1
    69    46    67    1
    70    46    68    1
