REMARK  Name = NuBBE_1579
REMARK  3 active torsions:
REMARK  status: ('A' for Active; 'I' for Inactive)
REMARK    1  A    between atoms: C_2  and  C_24
REMARK    2  A    between atoms: C_15  and  C_16
REMARK    3  A    between atoms: C_21  and  O_22
REMARK                            x       y       z     vdW  Elec       q    Type
REMARK                         _______ _______ _______ _____ _____    ______ ____
ROOT
ATOM      1  O   LIG A   1      -1.616   4.072  -0.647  0.00  0.00    -0.276 OA
ATOM      2  C   LIG A   1      -1.797   2.853  -0.665  0.00  0.00    +0.217 C 
ATOM      3  N   LIG A   1      -0.903   1.928  -0.161  0.00  0.00    -0.264 N 
ATOM      4  C   LIG A   1      -1.018   0.441  -0.274  0.00  0.00    +0.095 C 
ATOM      5  C   LIG A   1      -0.084  -0.135   0.836  0.00  0.00    +0.037 C 
ATOM      6  C   LIG A   1       0.535  -1.513   0.533  0.00  0.00    +0.095 C 
ATOM      7  C   LIG A   1       0.939  -1.662  -0.909  0.00  0.00    -0.053 C 
ATOM      8  C   LIG A   1      -0.255  -1.487  -1.809  0.00  0.00    +0.019 C 
ATOM      9  C   LIG A   1      -1.396  -2.441  -1.397  0.00  0.00    +0.023 C 
ATOM     10  C   LIG A   1      -1.065  -3.276  -0.152  0.00  0.00    +0.085 C 
ATOM     11  N   LIG A   1      -0.494  -2.497   0.947  0.00  0.00    -0.295 NA
ATOM     12  C   LIG A   1      -1.491  -1.816   1.779  0.00  0.00    +0.086 C 
ATOM     13  C   LIG A   1      -0.890  -0.455   2.102  0.00  0.00    +0.030 C 
ATOM     14  C   LIG A   1      -0.657  -0.010  -1.710  0.00  0.00    +0.031 C 
ATOM     15  C   LIG A   1       2.171  -1.909  -1.394  0.00  0.00    -0.029 C 
ATOM     16  C   LIG A   1       3.439  -2.095  -0.624  0.00  0.00    +0.035 C 
ATOM     17  C   LIG A   1       0.848   1.028   1.052  0.00  0.00    -0.013 A 
ATOM     18  C   LIG A   1       2.050   1.019   1.756  0.00  0.00    +0.006 A 
ATOM     19  C   LIG A   1       2.747   2.214   1.910  0.00  0.00    +0.004 A 
ATOM     20  C   LIG A   1       2.234   3.399   1.376  0.00  0.00    +0.047 A 
ATOM     21  C   LIG A   1       1.021   3.407   0.681  0.00  0.00    +0.139 A 
ATOM     22  C   LIG A   1       0.324   2.214   0.504  0.00  0.00    +0.082 A 
ATOM     23  C   LIG A   1      -3.082   2.320  -1.252  0.00  0.00    +0.110 C 
ENDROOT
BRANCH  21  24
ATOM     24  O   LIG A   1       0.643   4.627   0.209  0.00  0.00    -0.505 OA
ATOM     25  H   LIG A   1      -0.258   4.545  -0.172  0.00  0.00    +0.292 HD
ENDBRANCH  21  24
TORSDOF 1
