@<TRIPOS>MOLECULE
NuBBE_2420
 46 50 0 0 0
SMALL
GASTEIGER

@<TRIPOS>ATOM
      1 O          -2.3829    1.8700    0.0456 O.3     1  LIG1       -0.4908
      2 C          -2.9084    1.5534    1.3364 C.3     1  LIG1        0.0790
      3 C          -1.0106    1.7478    0.0221 C.ar    1  LIG1        0.1695
      4 C          -0.3882    0.4845   -0.1073 C.ar    1  LIG1        0.0327
      5 C           1.0303    0.4411   -0.0446 C.ar    1  LIG1       -0.0153
      6 C           1.7241   -0.9292   -0.0802 C.3     1  LIG1        0.0403
      7 H           1.6685   -1.2674   -1.1268 H       1  LIG1        0.0516
      8 C           0.8991   -1.8904    0.8170 C.3     1  LIG1       -0.0072
      9 C          -0.5214   -1.9805    0.3001 C.ar    1  LIG1       -0.0341
     10 C          -1.1267   -0.8005   -0.2256 C.ar    1  LIG1       -0.0070
     11 C          -2.3837   -0.9175   -0.8388 C.ar    1  LIG1       -0.0080
     12 C          -3.0326   -2.1346   -0.8101 C.ar    1  LIG1        0.1668
     13 C          -2.4665   -3.2427   -0.2231 C.ar    1  LIG1        0.1665
     14 C          -1.2130   -3.2025    0.3298 C.ar    1  LIG1       -0.0123
     15 O          -3.2795   -4.3315   -0.2863 O.3     1  LIG1       -0.4526
     16 C          -4.4316   -3.7723   -0.9511 C.3     1  LIG1        0.2332
     17 O          -4.2653   -2.3892   -1.3212 O.3     1  LIG1       -0.4526
     18 N           3.1562   -0.8840    0.3275 N.3     1  LIG1       -0.2978
     19 C           3.8448   -2.1392    0.0082 C.3     1  LIG1       -0.0122
     20 C           3.8336    0.2249   -0.3667 C.3     1  LIG1        0.0032
     21 C           3.2839    1.5707    0.1066 C.3     1  LIG1       -0.0144
     22 C           1.7819    1.6290    0.0308 C.ar    1  LIG1       -0.0372
     23 C           1.1320    2.8667    0.1118 C.ar    1  LIG1       -0.0127
     24 C          -0.2608    2.9353    0.1042 C.ar    1  LIG1        0.1624
     25 O          -0.9662    4.1041    0.2484 O.3     1  LIG1       -0.4914
     26 C          -0.3398    5.2739   -0.2636 C.3     1  LIG1        0.0790
     27 H          -3.4138    2.4386    1.7325 H       1  LIG1        0.0660
     28 H          -2.1548    1.2209    2.0603 H       1  LIG1        0.0660
     29 H          -3.6558    0.7620    1.2200 H       1  LIG1        0.0660
     30 H           0.8774   -1.5429    1.8577 H       1  LIG1        0.0332
     31 H           1.3346   -2.8946    0.8102 H       1  LIG1        0.0332
     32 H          -2.8653   -0.0731   -1.3225 H       1  LIG1        0.0661
     33 H          -0.7715   -4.0957    0.7626 H       1  LIG1        0.0658
     34 H          -5.2964   -3.8546   -0.2816 H       1  LIG1        0.1166
     35 H          -4.6321   -4.3572   -1.8563 H       1  LIG1        0.1166
     36 H           3.4549   -2.9727    0.5991 H       1  LIG1        0.0391
     37 H           4.9088   -2.0695    0.2631 H       1  LIG1        0.0391
     38 H           3.7665   -2.3967   -1.0544 H       1  LIG1        0.0391
     39 H           3.7219    0.1292   -1.4558 H       1  LIG1        0.0430
     40 H           4.9095    0.2107   -0.1516 H       1  LIG1        0.0430
     41 H           3.7185    2.3655   -0.5118 H       1  LIG1        0.0326
     42 H           3.5867    1.7498    1.1459 H       1  LIG1        0.0326
     43 H           1.7339    3.7628    0.2211 H       1  LIG1        0.0658
     44 H          -1.0832    6.0769   -0.2637 H       1  LIG1        0.0660
     45 H          -0.0041    5.1272   -1.2960 H       1  LIG1        0.0660
     46 H           0.4873    5.5934    0.3779 H       1  LIG1        0.0660
@<TRIPOS>BOND
     1     1     2    1
     2     1     3    1
     3     3     4   ar
     4     4     5   ar
     5     5     6    1
     6     6     7    1
     7     6     8    1
     8     8     9    1
     9     9    10   ar
    10     4    10    1
    11    10    11   ar
    12    11    12   ar
    13    12    13   ar
    14    13    14   ar
    15     9    14   ar
    16    13    15    1
    17    15    16    1
    18    16    17    1
    19    12    17    1
    20     6    18    1
    21    18    19    1
    22    18    20    1
    23    20    21    1
    24    21    22    1
    25     5    22   ar
    26    22    23   ar
    27    23    24   ar
    28     3    24   ar
    29    24    25    1
    30    25    26    1
    31     2    27    1
    32     2    28    1
    33     2    29    1
    34     8    30    1
    35     8    31    1
    36    11    32    1
    37    14    33    1
    38    16    34    1
    39    16    35    1
    40    19    36    1
    41    19    37    1
    42    19    38    1
    43    20    39    1
    44    20    40    1
    45    21    41    1
    46    21    42    1
    47    23    43    1
    48    26    44    1
    49    26    45    1
    50    26    46    1
