REMARK  Name = NuBBE_2043
REMARK  12 active torsions:
REMARK  status: ('A' for Active; 'I' for Inactive)
REMARK    1  A    between atoms: O_1  and  C_2
REMARK    2  A    between atoms: O_1  and  C_3
REMARK    3  A    between atoms: C_4  and  C_6
REMARK    4  A    between atoms: C_7  and  C_20
REMARK    5  A    between atoms: C_15  and  C_17
REMARK    6  A    between atoms: C_17  and  C_18
REMARK    7  A    between atoms: C_22  and  O_23
REMARK    8  A    between atoms: O_23  and  C_24
REMARK    9  A    between atoms: C_25  and  O_30
REMARK   10  A    between atoms: C_26  and  O_28
REMARK   11  A    between atoms: O_28  and  C_29
REMARK   12  A    between atoms: O_30  and  C_31
REMARK                            x       y       z     vdW  Elec       q    Type
REMARK                         _______ _______ _______ _____ _____    ______ ____
ROOT
ATOM      1  C   LIG A   1       0.113   1.460   1.969  0.00  0.00    +0.149 C 
ATOM      2  C   LIG A   1       0.422  -0.025   1.619  0.00  0.00    +0.038 C 
ATOM      3  C   LIG A   1       1.625  -0.633   2.353  0.00  0.00    +0.012 C 
ATOM      4  C   LIG A   1       0.644  -0.088   0.055  0.00  0.00    +0.043 C 
ATOM      5  C   LIG A   1       0.479   1.385  -0.412  0.00  0.00    +0.137 C 
ATOM      6  C   LIG A   1      -0.471   1.903   0.637  0.00  0.00    +0.180 C 
ATOM      7  O   LIG A   1      -1.448   2.576   0.412  0.00  0.00    -0.293 OA
ATOM      8  C   LIG A   1       1.804   2.102  -0.289  0.00  0.00    +0.170 C 
ATOM      9  O   LIG A   1       2.604   2.140  -1.225  0.00  0.00    -0.292 OA
ATOM     10  C   LIG A   1       2.142   2.674   1.050  0.00  0.00    -0.001 C 
ATOM     11  C   LIG A   1       1.334   2.353   2.082  0.00  0.00    +0.023 C 
ENDROOT
BRANCH   4  12
ATOM     12  C   LIG A   1      -0.295  -1.065  -0.651  0.00  0.00    -0.036 A 
ATOM     13  C   LIG A   1      -0.752  -2.244  -0.054  0.00  0.00    +0.053 A 
ATOM     14  C   LIG A   1      -1.679  -3.094  -0.690  0.00  0.00    +0.165 A 
ATOM     15  C   LIG A   1      -2.147  -2.784  -1.982  0.00  0.00    +0.203 A 
ATOM     16  C   LIG A   1      -1.675  -1.613  -2.604  0.00  0.00    +0.165 A 
ATOM     17  C   LIG A   1      -0.728  -0.814  -1.955  0.00  0.00    +0.053 A 
BRANCH  14  18
ATOM     18  O   LIG A   1      -2.000  -4.158   0.116  0.00  0.00    -0.491 OA
ATOM     19  C   LIG A   1      -2.945  -5.118  -0.326  0.00  0.00    +0.277 C 
ENDBRANCH  14  18
BRANCH  16  20
ATOM     20  O   LIG A   1      -2.235  -1.208  -3.794  0.00  0.00    -0.491 OA
ATOM     21  C   LIG A   1      -1.411  -0.410  -4.643  0.00  0.00    +0.277 C 
ENDBRANCH  16  20
BRANCH  15  22
ATOM     22  O   LIG A   1      -3.080  -3.614  -2.542  0.00  0.00    -0.488 OA
ATOM     23  C   LIG A   1      -3.066  -3.804  -3.953  0.00  0.00    +0.277 C 
ENDBRANCH  15  22
ENDBRANCH   4  12
BRANCH   1  24
ATOM     24  O   LIG A   1      -0.771   1.672   3.049  0.00  0.00    -0.365 OA
ATOM     25  C   LIG A   1      -0.376   1.126   4.297  0.00  0.00    +0.195 C 
ENDBRANCH   1  24
BRANCH  10  26
ATOM     26  C   LIG A   1       3.378   3.510   1.203  0.00  0.00    +0.065 C 
BRANCH  26  27
ATOM     27  C   LIG A   1       3.077   4.904   1.686  0.00  0.00    -0.030 C 
ATOM     28  C   LIG A   1       4.030   5.808   1.940  0.00  0.00    +0.004 C 
ENDBRANCH  26  27
ENDBRANCH  10  26
TORSDOF 7
