@<TRIPOS>MOLECULE
NuBBE_2328
 55 57 0 0 0
SMALL
GASTEIGER

@<TRIPOS>ATOM
      1 C          -1.4963    0.7783   -2.6056 C.3     1  LIG1        0.0791
      2 O          -1.2650    0.2047   -1.3210 O.3     1  LIG1       -0.4885
      3 C          -0.6636    0.9838   -0.3575 C.ar    1  LIG1        0.2051
      4 C           0.1152    0.2703    0.5926 C.ar    1  LIG1        0.1881
      5 C           0.7263    0.9640    1.6480 C.ar    1  LIG1        0.1128
      6 C           0.5302    2.3424    1.7813 C.ar    1  LIG1        0.1350
      7 O           1.0694    3.0664    2.8122 O.3     1  LIG1       -0.5058
      8 C          -0.2463    3.0357    0.8748 C.ar    1  LIG1        0.0262
      9 C           1.5518    0.2218    2.6150 C.ar    1  LIG1        0.2382
     10 C           1.5728   -1.2543    2.5186 C.ar    1  LIG1        0.2107
     11 O           2.2025   -2.0644    3.4536 O.3     1  LIG1       -0.4883
     12 C           2.2466   -1.5379    4.7890 C.3     1  LIG1        0.0791
     13 C           0.9700   -1.7813    1.4225 C.ar    1  LIG1        0.1811
     14 O           0.2855   -1.0893    0.4498 O.2     1  LIG1       -0.4470
     15 C           1.0072   -3.2578    1.1915 C.ar    1  LIG1        0.0247
     16 C           0.0574   -4.0975    1.7840 C.ar    1  LIG1       -0.0473
     17 C           0.1075   -5.4799    1.5811 C.ar    1  LIG1       -0.0159
     18 C           1.1148   -6.0427    0.7902 C.ar    1  LIG1        0.1585
     19 C           2.0831   -5.2255    0.1977 C.ar    1  LIG1        0.1619
     20 O           3.1034   -5.6182   -0.6305 O.3     1  LIG1       -0.4914
     21 C           3.6200   -6.9316   -0.4457 C.3     1  LIG1        0.0790
     22 C           2.0119   -3.8360    0.3956 C.ar    1  LIG1       -0.0055
     23 O           1.1079   -7.3954    0.5937 O.3     1  LIG1       -0.5033
     24 O           2.1794    0.8394    3.4615 O.2     1  LIG1       -0.2830
     25 C          -0.8276    2.3835   -0.2220 C.ar    1  LIG1        0.1696
     26 O          -1.6111    3.0668   -1.1179 O.3     1  LIG1       -0.4840
     27 C          -1.2616    4.4279   -1.3805 C.3     1  LIG1        0.1082
     28 C          -1.6885    4.7951   -2.7781 C.2     1  LIG1       -0.0484
     29 C          -2.8392    5.3579   -3.2014 C.2     1  LIG1       -0.0765
     30 C          -4.0493    5.6208   -2.3505 C.3     1  LIG1       -0.0439
     31 C          -3.0061    5.7865   -4.6377 C.3     1  LIG1       -0.0439
     32 H          -0.5529    1.0753   -3.0762 H       1  LIG1        0.0660
     33 H          -2.2147    1.6004   -2.5937 H       1  LIG1        0.0660
     34 H          -1.9624    0.0105   -3.2332 H       1  LIG1        0.0660
     35 H           1.6547    2.4770    3.3343 H       1  LIG1        0.2922
     36 H          -0.4028    4.0989    1.0453 H       1  LIG1        0.0692
     37 H           2.3444   -2.3823    5.4784 H       1  LIG1        0.0660
     38 H           1.3288   -1.0015    5.0528 H       1  LIG1        0.0660
     39 H           3.1274   -0.9026    4.9250 H       1  LIG1        0.0660
     40 H          -0.7297   -3.6798    2.4071 H       1  LIG1        0.0626
     41 H          -0.6518   -6.1035    2.0440 H       1  LIG1        0.0655
     42 H           4.5286   -7.0163   -1.0518 H       1  LIG1        0.0660
     43 H           2.9331   -7.6978   -0.8154 H       1  LIG1        0.0660
     44 H           3.9017   -7.1072    0.5981 H       1  LIG1        0.0660
     45 H           2.7630   -3.2031   -0.0720 H       1  LIG1        0.0662
     46 H           0.3120   -7.7744    1.0000 H       1  LIG1        0.2923
     47 H          -0.1721    4.5663   -1.3390 H       1  LIG1        0.0742
     48 H          -1.7222    5.0865   -0.6367 H       1  LIG1        0.0742
     49 H          -0.9055    4.6289   -3.5172 H       1  LIG1        0.0605
     50 H          -3.9379    5.2657   -1.3236 H       1  LIG1        0.0274
     51 H          -4.9207    5.1143   -2.7827 H       1  LIG1        0.0274
     52 H          -4.2672    6.6936   -2.3233 H       1  LIG1        0.0274
     53 H          -2.1299    5.5496   -5.2495 H       1  LIG1        0.0274
     54 H          -3.1579    6.8708   -4.6842 H       1  LIG1        0.0274
     55 H          -3.8741    5.2971   -5.0909 H       1  LIG1        0.0274
@<TRIPOS>BOND
     1     1     2    1
     2     2     3    1
     3     3     4   ar
     4     4     5   ar
     5     5     6   ar
     6     6     7    1
     7     6     8   ar
     8     5     9   ar
     9     9    10   ar
    10    10    11    1
    11    11    12    1
    12    10    13   ar
    13    13    14   ar
    14     4    14   ar
    15    13    15    1
    16    15    16   ar
    17    16    17   ar
    18    17    18   ar
    19    18    19   ar
    20    19    20    1
    21    20    21    1
    22    19    22   ar
    23    15    22   ar
    24    18    23    1
    25     9    24    2
    26     3    25   ar
    27     8    25   ar
    28    25    26    1
    29    26    27    1
    30    27    28    1
    31    28    29    2
    32    29    30    1
    33    29    31    1
    34     1    32    1
    35     1    33    1
    36     1    34    1
    37     7    35    1
    38     8    36    1
    39    12    37    1
    40    12    38    1
    41    12    39    1
    42    16    40    1
    43    17    41    1
    44    21    42    1
    45    21    43    1
    46    21    44    1
    47    22    45    1
    48    23    46    1
    49    27    47    1
    50    27    48    1
    51    28    49    1
    52    30    50    1
    53    30    51    1
    54    30    52    1
    55    31    53    1
    56    31    54    1
    57    31    55    1
