REMARK  Name = NuBBE_2429
REMARK  12 active torsions:
REMARK  status: ('A' for Active; 'I' for Inactive)
REMARK    1  A    between atoms: O_1  and  C_2
REMARK    2  A    between atoms: C_4  and  C_35
REMARK    3  A    between atoms: C_4  and  C_36
REMARK    4  A    between atoms: C_11  and  C_29
REMARK    5  A    between atoms: C_12  and  C_28
REMARK    6  A    between atoms: C_13  and  C_17
REMARK    7  A    between atoms: C_17  and  C_19
REMARK    8  A    between atoms: C_17  and  C_25
REMARK    9  A    between atoms: C_19  and  C_20
REMARK   10  A    between atoms: C_20  and  C_21
REMARK   11  A    between atoms: C_22  and  C_23
REMARK   12  A    between atoms: C_22  and  C_24
REMARK                            x       y       z     vdW  Elec       q    Type
REMARK                         _______ _______ _______ _____ _____    ______ ____
ROOT
ATOM      1  C   LIG A   1       2.751  -1.529  -4.638  0.00  0.00    +0.120 C 
ATOM      2  C   LIG A   1       2.449  -0.246  -3.826  0.00  0.00    -0.006 C 
ATOM      3  C   LIG A   1       0.889  -0.100  -3.738  0.00  0.00    +0.004 C 
ATOM      4  C   LIG A   1       0.183  -1.352  -3.145  0.00  0.00    -0.019 C 
ATOM      5  C   LIG A   1      -0.963  -1.199  -2.111  0.00  0.00    -0.019 C 
ATOM      6  C   LIG A   1      -1.014   0.191  -1.460  0.00  0.00    +0.002 C 
ATOM      7  C   LIG A   1      -2.159   0.325  -0.407  0.00  0.00    -0.023 C 
ATOM      8  C   LIG A   1      -1.924  -0.749   0.748  0.00  0.00    -0.023 C 
ATOM      9  C   LIG A   1      -1.236   0.071   1.927  0.00  0.00    -0.002 C 
ATOM     10  C   LIG A   1      -2.048   1.383   1.832  0.00  0.00    +0.005 C 
ATOM     11  C   LIG A   1      -2.089   1.691   0.340  0.00  0.00    +0.008 C 
ATOM     12  C   LIG A   1      -1.149  -1.996   0.264  0.00  0.00    +0.008 C 
ATOM     13  C   LIG A   1      -1.420  -2.330  -1.193  0.00  0.00    +0.008 C 
ATOM     14  C   LIG A   1      -3.280  -1.305   1.295  0.00  0.00    +0.012 C 
ATOM     15  C   LIG A   1      -3.530   0.249  -1.117  0.00  0.00    +0.012 C 
ATOM     16  C   LIG A   1      -0.938   1.295  -2.517  0.00  0.00    +0.005 C 
ATOM     17  C   LIG A   1       0.456   1.258  -3.133  0.00  0.00    +0.005 C 
ATOM     18  C   LIG A   1      -1.264  -1.481  -3.568  0.00  0.00    +0.015 C 
ATOM     19  C   LIG A   1       1.018  -2.614  -3.057  0.00  0.00    +0.010 C 
ATOM     20  C   LIG A   1       2.050  -2.796  -4.156  0.00  0.00    +0.032 C 
ATOM     21  C   LIG A   1       3.146  -0.257  -2.444  0.00  0.00    +0.014 C 
ATOM     22  C   LIG A   1       3.052   0.954  -4.606  0.00  0.00    +0.014 C 
ENDROOT
BRANCH   1  23
ATOM     23  O   LIG A   1       4.158  -1.767  -4.707  0.00  0.00    -0.391 OA
ATOM     24  H   LIG A   1       4.299  -2.523  -5.302  0.00  0.00    +0.210 HD
ENDBRANCH   1  23
BRANCH   9  25
ATOM     25  C   LIG A   1       0.310   0.418   1.948  0.00  0.00    -0.010 C 
ATOM     26  C   LIG A   1       1.289  -0.760   1.846  0.00  0.00    +0.008 C 
BRANCH  25  27
ATOM     27  C   LIG A   1       0.723   1.232   3.215  0.00  0.00    +0.007 C 
BRANCH  27  28
ATOM     28  C   LIG A   1       0.627   0.455   4.534  0.00  0.00    +0.027 C 
BRANCH  28  29
ATOM     29  C   LIG A   1       1.054   1.303   5.697  0.00  0.00    -0.028 C 
ATOM     30  C   LIG A   1       0.254   2.077   6.455  0.00  0.00    -0.080 C 
ATOM     31  C   LIG A   1      -1.224   2.256   6.231  0.00  0.00    +0.038 C 
ATOM     32  C   LIG A   1       0.809   2.863   7.614  0.00  0.00    +0.038 C 
ENDBRANCH  28  29
ENDBRANCH  27  28
ENDBRANCH  25  27
ENDBRANCH   9  25
TORSDOF 5
