REMARK  Name = NuBBE_615
REMARK  9 active torsions:
REMARK  status: ('A' for Active; 'I' for Inactive)
REMARK    1  A    between atoms: C_1  and  C_2
REMARK    2  A    between atoms: C_2  and  C_3
REMARK    3  A    between atoms: C_5  and  C_6
REMARK    4  A    between atoms: C_6  and  O_7
REMARK    5  A    between atoms: C_14  and  C_15
REMARK    6  A    between atoms: C_14  and  O_20
REMARK    7  A    between atoms: C_15  and  O_16
REMARK    8  A    between atoms: O_16  and  C_17
REMARK    9  A    between atoms: C_17  and  C_18
REMARK                            x       y       z     vdW  Elec       q    Type
REMARK                         _______ _______ _______ _____ _____    ______ ____
ROOT
ATOM      1  C   LIG A   1      -2.175   1.665  -2.500  0.00  0.00    +0.011 C 
ATOM      2  C   LIG A   1      -1.048   2.215  -1.616  0.00  0.00    -0.031 C 
ATOM      3  C   LIG A   1      -0.640   3.582  -2.204  0.00  0.00    +0.011 C 
ATOM      4  C   LIG A   1      -1.521   2.441  -0.113  0.00  0.00    +0.025 C 
ATOM      5  C   LIG A   1      -0.971   1.229   0.638  0.00  0.00    +0.071 C 
ATOM      6  C   LIG A   1       0.396   1.150  -0.037  0.00  0.00    +0.015 C 
ATOM      7  C   LIG A   1       0.214   1.276  -1.525  0.00  0.00    -0.001 C 
ATOM      8  C   LIG A   1       0.266  -0.087  -2.208  0.00  0.00    +0.007 C 
ATOM      9  C   LIG A   1       1.485  -0.880  -1.703  0.00  0.00    +0.039 C 
ATOM     10  C   LIG A   1       1.470  -1.212  -0.180  0.00  0.00    +0.103 C 
ATOM     11  C   LIG A   1       1.208   0.075   0.652  0.00  0.00    +0.029 C 
ATOM     12  C   LIG A   1       0.557   0.064   2.065  0.00  0.00    +0.008 C 
ATOM     13  C   LIG A   1      -0.458   1.251   2.082  0.00  0.00    +0.019 C 
ENDROOT
BRANCH   5  14
ATOM     14  C   LIG A   1      -2.008   0.109   0.531  0.00  0.00    +0.311 C 
ATOM     15  O   LIG A   1      -2.110  -0.755  -0.324  0.00  0.00    -0.250 OA
BRANCH  14  16
ATOM     16  O   LIG A   1      -2.949   0.172   1.495  0.00  0.00    -0.480 OA
ATOM     17  H   LIG A   1      -3.548  -0.577   1.292  0.00  0.00    +0.295 HD
ENDBRANCH  14  16
ENDBRANCH   5  14
BRANCH  10  18
ATOM     18  O   LIG A   1       2.841  -1.567   0.132  0.00  0.00    -0.385 OA
ATOM     19  H   LIG A   1       2.931  -2.541   0.176  0.00  0.00    +0.210 HD
ENDBRANCH  10  18
BRANCH  10  20
ATOM     20  C   LIG A   1       0.579  -2.462   0.060  0.00  0.00    +0.267 C 
BRANCH  20  21
ATOM     21  O   LIG A   1       0.494  -2.865   1.438  0.00  0.00    -0.462 OA
BRANCH  21  22
ATOM     22  C   LIG A   1       1.530  -3.589   1.933  0.00  0.00    +0.304 C 
ATOM     23  C   LIG A   1       1.313  -3.885   3.386  0.00  0.00    +0.136 C 
ATOM     24  O   LIG A   1       2.494  -3.970   1.282  0.00  0.00    -0.251 OA
ENDBRANCH  21  22
ENDBRANCH  20  21
ENDBRANCH  10  20
TORSDOF 6
