@<TRIPOS>MOLECULE
NuBBE_360
 113 119 0 0 0
SMALL
GASTEIGER

@<TRIPOS>ATOM
      1 O           5.4074    7.9779   -2.8772 O.3     1  LIG1       -0.5065
      2 C           4.4907    7.1892   -2.2404 C.ar    1  LIG1        0.1239
      3 C           3.2822    6.9066   -2.8519 C.ar    1  LIG1        0.0223
      4 C           2.3238    6.1742   -2.1203 C.ar    1  LIG1        0.1348
      5 O           1.1332    6.0220   -2.7910 O.3     1  LIG1       -0.5058
      6 C           2.6116    5.6502   -0.8643 C.ar    1  LIG1        0.1092
      7 C           1.5979    5.0100    0.0560 C.ar    1  LIG1        0.2382
      8 C           2.1850    3.9632    1.0458 C.ar    1  LIG1        0.2138
      9 O           1.2954    2.9732    1.4807 O.3     1  LIG1       -0.4532
     10 C           1.5725    1.5930    1.9691 C.3     1  LIG1        0.2315
     11 H           1.7288    1.6296    3.0531 H       1  LIG1        0.1084
     12 C           0.2612    0.7470    1.8260 C.3     1  LIG1        0.1519
     13 H          -0.5419    1.4411    2.0820 H       1  LIG1        0.0687
     14 O          -0.0018   -0.3747    2.7589 O.3     1  LIG1       -0.3366
     15 C          -1.2386   -1.1378    2.4556 C.3     1  LIG1        0.1885
     16 H          -1.0518   -1.5483    1.4854 H       1  LIG1        0.0938
     17 C          -1.3959   -2.5084    3.1740 C.3     1  LIG1        0.1345
     18 H          -0.9809   -2.4381    4.1939 H       1  LIG1        0.0671
     19 O          -0.5880   -3.5389    2.5590 O.3     1  LIG1       -0.3841
     20 C          -2.9296   -2.8621    3.1263 C.3     1  LIG1        0.1205
     21 H          -3.0933   -3.8625    3.5629 H       1  LIG1        0.0651
     22 O          -3.6860   -2.6611    1.8650 O.3     1  LIG1       -0.3401
     23 C          -3.7486   -3.4681    0.6640 C.3     1  LIG1        0.1884
     24 H          -3.9197   -4.5165    0.9541 H       1  LIG1        0.0938
     25 C          -4.9578   -2.9879   -0.3053 C.3     1  LIG1        0.1341
     26 H          -5.7599   -2.6533    0.3522 H       1  LIG1        0.0671
     27 O          -5.4570   -4.1747   -0.9798 O.3     1  LIG1       -0.3841
     28 O          -2.5456   -3.4676   -0.0464 O.3     1  LIG1       -0.3405
     29 C          -2.3973   -2.6043   -1.1630 C.3     1  LIG1        0.1134
     30 H          -2.8185   -3.0942   -2.0092 H       1  LIG1        0.0647
     31 C          -0.9014   -2.5063   -1.2517 C.3     1  LIG1        0.0796
     32 O          -0.1183   -3.6710   -1.4787 O.3     1  LIG1       -0.3461
     33 C           0.3257   -4.0839   -2.7574 C.3     1  LIG1        0.1879
     34 H           1.2532   -4.6418   -2.5559 H       1  LIG1        0.0937
     35 C          -0.5930   -5.0661   -3.5040 C.3     1  LIG1        0.1341
     36 H          -0.7544   -5.9809   -2.9237 H       1  LIG1        0.0671
     37 O          -0.0226   -5.3944   -4.7796 O.3     1  LIG1       -0.3841
     38 C          -1.9123   -4.3789   -3.7490 C.3     1  LIG1        0.1140
     39 H          -2.3384   -4.4001   -2.7687 H       1  LIG1        0.0648
     40 O          -2.8775   -5.1681   -4.4442 O.3     1  LIG1       -0.3864
     41 C          -1.7235   -3.0173   -4.4690 C.3     1  LIG1        0.1095
     42 H          -1.7770   -3.2397   -5.5359 H       1  LIG1        0.0646
     43 O          -2.8638   -2.1682   -4.3007 O.3     1  LIG1       -0.3866
     44 C          -0.3673   -2.2913   -4.2135 C.3     1  LIG1        0.0873
     45 H          -0.4683   -1.4295   -3.5627 H       1  LIG1        0.0621
     46 C           0.1149   -1.6525   -5.5080 C.3     1  LIG1       -0.0361
     47 O           0.7083   -3.0714   -3.6937 O.3     1  LIG1       -0.3431
     48 C          -3.2085   -1.3053   -1.2594 C.3     1  LIG1        0.1119
     49 H          -3.1822   -0.6416   -0.4019 H       1  LIG1        0.0647
     50 O          -2.8242   -0.4688   -2.3933 O.3     1  LIG1       -0.3865
     51 C          -4.6532   -1.8528   -1.4214 C.3     1  LIG1        0.1141
     52 H          -4.8060   -2.2535   -2.4463 H       1  LIG1        0.0648
     53 O          -5.5750   -0.7412   -1.3573 O.3     1  LIG1       -0.3864
     54 C          -3.5314   -1.7385    4.0729 C.3     1  LIG1        0.1098
     55 H          -4.5476   -1.9939    4.3983 H       1  LIG1        0.0646
     56 O          -2.7750   -1.6059    5.3031 O.3     1  LIG1       -0.3866
     57 C          -3.4441   -0.3633    3.3365 C.3     1  LIG1        0.0873
     58 H          -3.0108    0.3657    4.0168 H       1  LIG1        0.0621
     59 C          -4.8470    0.2806    3.0088 C.3     1  LIG1       -0.0361
     60 O          -2.4626   -0.3518    2.2587 O.3     1  LIG1       -0.3431
     61 O           2.7436    1.0197    1.3140 O.3     1  LIG1       -0.3313
     62 C           2.5868   -0.2253    0.6583 C.3     1  LIG1        0.1140
     63 H           2.2604   -0.9778    1.3859 H       1  LIG1        0.0647
     64 C           3.8559   -0.8028    0.0003 C.3     1  LIG1        0.0731
     65 O           4.8188   -1.1692    0.9862 O.3     1  LIG1       -0.3924
     66 C           1.5602    0.0856   -0.3879 C.3     1  LIG1        0.1120
     67 H           1.8302    0.9565   -0.9971 H       1  LIG1        0.0647
     68 O           1.4734   -1.0088   -1.2865 O.3     1  LIG1       -0.3865
     69 C           0.2415    0.3061    0.3569 C.3     1  LIG1        0.1155
     70 H          -0.1699   -0.6658    0.3299 H       1  LIG1        0.0648
     71 O          -0.6532    1.1195   -0.3860 O.3     1  LIG1       -0.3863
     72 C           3.3787    4.3952    1.5436 C.ar    1  LIG1        0.1809
     73 C           3.9867    3.9916    2.8564 C.ar    1  LIG1        0.0213
     74 C           4.7392    4.8280    3.6598 C.ar    1  LIG1       -0.0475
     75 C           5.2131    4.3740    4.9114 C.ar    1  LIG1       -0.0195
     76 C           4.8762    3.1103    5.3964 C.ar    1  LIG1        0.1169
     77 O           5.3281    2.6878    6.6046 O.3     1  LIG1       -0.5068
     78 C           4.1491    2.2634    4.6196 C.ar    1  LIG1       -0.0195
     79 C           3.8510    2.7127    3.3500 C.ar    1  LIG1       -0.0475
     80 O           4.1438    5.4360    0.9712 O.2     1  LIG1       -0.4507
     81 C           3.8353    5.8973   -0.2958 C.ar    1  LIG1        0.1465
     82 C           4.7781    6.7003   -0.9646 C.ar    1  LIG1        0.0231
     83 O           0.5174    5.4230    0.1054 O.2     1  LIG1       -0.2830
     84 H           5.0684    8.1983   -3.7642 H       1  LIG1        0.2921
     85 H           3.0409    7.2923   -3.8365 H       1  LIG1        0.0691
     86 H           0.4541    6.4062   -2.1988 H       1  LIG1        0.2922
     87 H           0.1433   -3.7719    3.1637 H       1  LIG1        0.2101
     88 H          -6.3921   -4.0278   -1.2090 H       1  LIG1        0.2101
     89 H          -0.6277   -2.2995   -0.2313 H       1  LIG1        0.0587
     90 H          -0.6185   -1.6439   -1.8143 H       1  LIG1        0.0587
     91 H           0.5752   -4.6472   -4.9898 H       1  LIG1        0.2101
     92 H          -2.4705   -5.4165   -5.2858 H       1  LIG1        0.2100
     93 H          -2.6161   -1.2284   -4.1860 H       1  LIG1        0.2100
     94 H          -0.4702   -0.7471   -5.6935 H       1  LIG1        0.0255
     95 H          -0.0206   -2.3349   -6.3514 H       1  LIG1        0.0255
     96 H           1.1777   -1.3980   -5.4620 H       1  LIG1        0.0255
     97 H          -2.2915    0.2875   -2.0663 H       1  LIG1        0.2100
     98 H          -5.0937    0.0520   -1.6790 H       1  LIG1        0.2100
     99 H          -2.9123   -0.7059    5.6607 H       1  LIG1        0.2100
    100 H          -4.8109    1.0030    2.1854 H       1  LIG1        0.0255
    101 H          -5.2027    0.8467    3.8888 H       1  LIG1        0.0255
    102 H          -5.6778   -0.4111    2.7929 H       1  LIG1        0.0255
    103 H           4.3154   -0.1053   -0.7073 H       1  LIG1        0.0584
    104 H           3.6008   -1.7228   -0.5452 H       1  LIG1        0.0584
    105 H           5.1578   -2.0460    0.7286 H       1  LIG1        0.2095
    106 H           0.9405   -0.7025   -2.0355 H       1  LIG1        0.2100
    107 H          -1.3445    1.3781    0.2568 H       1  LIG1        0.2100
    108 H           5.0041    5.8279    3.3241 H       1  LIG1        0.0626
    109 H           5.8548    5.0112    5.5045 H       1  LIG1        0.0654
    110 H           5.0687    1.7537    6.7018 H       1  LIG1        0.2921
    111 H           3.8701    1.2489    4.8890 H       1  LIG1        0.0654
    112 H           3.6200    1.9366    2.6845 H       1  LIG1        0.0626
    113 H           5.7191    6.9624   -0.4914 H       1  LIG1        0.0691
@<TRIPOS>BOND
     1     1     2    1
     2     2     3   ar
     3     3     4   ar
     4     4     5    1
     5     4     6   ar
     6     6     7   ar
     7     7     8   ar
     8     8     9    1
     9     9    10    1
    10    10    11    1
    11    10    12    1
    12    14    15    1
    13    15    16    1
    14    15    17    1
    15    17    20    1
    16    20    21    1
    17    20    22    1
    18    23    25    1
    19    23    28    1
    20    28    29    1
    21    29    30    1
    22    29    31    1
    23    31    32    1
    24    32    33    1
    25    33    34    1
    26    33    35    1
    27    35    38    1
    28    38    39    1
    29    38    40    1
    30    38    41    1
    31    41    44    1
    32    44    45    1
    33    44    46    1
    34    44    47    1
    35    33    47    1
    36    29    48    1
    37    48    51    1
    38    51    52    1
    39    25    51    1
    40    51    53    1
    41    20    54    1
    42    54    57    1
    43    57    58    1
    44    57    59    1
    45    57    60    1
    46    15    60    1
    47    10    61    1
    48    61    62    1
    49    62    63    1
    50    62    64    1
    51    64    65    1
    52    62    66    1
    53    66    69    1
    54    69    70    1
    55    12    69    1
    56    69    71    1
    57     8    72   ar
    58    72    73    1
    59    73    74   ar
    60    74    75   ar
    61    75    76   ar
    62    76    77    1
    63    76    78   ar
    64    78    79   ar
    65    73    79   ar
    66    72    80   ar
    67    80    81   ar
    68     6    81   ar
    69    81    82   ar
    70     2    82   ar
    71     7    83    2
    72    12    14    1
    73    12    13    1
    74    17    19    1
    75    17    18    1
    76    35    37    1
    77    35    36    1
    78    23    24    1
    79    23    22    1
    80    25    27    1
    81    25    26    1
    82    66    68    1
    83    66    67    1
    84    41    43    1
    85    41    42    1
    86    48    50    1
    87    48    49    1
    88    54    56    1
    89    54    55    1
    90     1    84    1
    91     3    85    1
    92     5    86    1
    93    19    87    1
    94    27    88    1
    95    31    89    1
    96    31    90    1
    97    37    91    1
    98    40    92    1
    99    43    93    1
   100    46    94    1
   101    46    95    1
   102    46    96    1
   103    50    97    1
   104    53    98    1
   105    56    99    1
   106    59   100    1
   107    59   101    1
   108    59   102    1
   109    64   103    1
   110    64   104    1
   111    65   105    1
   112    68   106    1
   113    71   107    1
   114    74   108    1
   115    75   109    1
   116    77   110    1
   117    78   111    1
   118    79   112    1
   119    82   113    1
