REMARK  Name = NuBBE_2526
REMARK  7 active torsions:
REMARK  status: ('A' for Active; 'I' for Inactive)
REMARK    1  A    between atoms: C_1  and  C_2
REMARK    2  A    between atoms: C_8  and  C_11
REMARK    3  A    between atoms: C_14  and  O_17
REMARK    4  A    between atoms: O_17  and  C_18
REMARK    5  A    between atoms: C_19  and  O_24
REMARK    6  A    between atoms: C_20  and  C_23
REMARK    7  A    between atoms: C_21  and  O_22
REMARK                            x       y       z     vdW  Elec       q    Type
REMARK                         _______ _______ _______ _____ _____    ______ ____
ROOT
ATOM      1  C   UNL A   1      -1.994  -2.862   0.000  0.00  0.00    +0.051 C 
ATOM      2  C   UNL A   1      -0.487  -2.848   0.011  0.00  0.00    +0.034 A 
ATOM      3  C   UNL A   1       0.241  -1.650   0.004  0.00  0.00    +0.142 A 
ATOM      4  C   UNL A   1       1.640  -1.694  -0.006  0.00  0.00    +0.101 A 
ATOM      5  C   UNL A   1       2.380  -0.422  -0.114  0.00  0.00    +0.174 C 
ATOM      6  O   UNL A   1       3.605  -0.405  -0.022  0.00  0.00    -0.292 OA
ATOM      7  C   UNL A   1       1.571   0.795  -0.421  0.00  0.00    +0.129 C 
ATOM      8  C   UNL A   1       0.280   0.687   0.375  0.00  0.00    +0.211 C 
ATOM      9  O   UNL A   1      -0.467  -0.470  -0.035  0.00  0.00    -0.483 OA
ATOM     10  C   UNL A   1       2.323  -2.919   0.023  0.00  0.00    +0.137 A 
ATOM     11  C   UNL A   1       1.619  -4.131   0.029  0.00  0.00    +0.034 A 
ATOM     12  C   UNL A   1       0.215  -4.072   0.024  0.00  0.00    +0.130 A 
ATOM     13  C   UNL A   1       2.352  -5.446   0.015  0.00  0.00    +0.051 C 
ENDROOT
BRANCH   8  14
ATOM     14  C   UNL A   1      -0.532   1.957   0.164  0.00  0.00    -0.007 A 
ATOM     15  C   UNL A   1      -1.451   2.080  -0.886  0.00  0.00    +0.011 A 
ATOM     16  C   UNL A   1      -2.083   3.303  -1.137  0.00  0.00    +0.046 A 
ATOM     17  C   UNL A   1      -1.817   4.419  -0.340  0.00  0.00    +0.120 A 
ATOM     18  C   UNL A   1      -0.916   4.303   0.716  0.00  0.00    +0.046 A 
ATOM     19  C   UNL A   1      -0.279   3.081   0.967  0.00  0.00    +0.011 A 
BRANCH  17  20
ATOM     20  O   UNL A   1      -2.437   5.572  -0.735  0.00  0.00    -0.495 OA
ATOM     21  C   UNL A   1      -2.647   6.558   0.269  0.00  0.00    +0.277 C 
ENDBRANCH  17  20
ENDBRANCH   8  14
BRANCH  12  22
ATOM     22  O   UNL A   1      -0.547  -5.213   0.023  0.00  0.00    -0.506 OA
ATOM     23  H   UNL A   1       0.023  -5.997   0.031  0.00  0.00    +0.292 HD
ENDBRANCH  12  22
BRANCH  10  24
ATOM     24  O   UNL A   1       3.695  -2.976   0.026  0.00  0.00    -0.506 OA
ATOM     25  H   UNL A   1       4.050  -2.058   0.035  0.00  0.00    +0.292 HD
ENDBRANCH  10  24
TORSDOF 4
