@<TRIPOS>MOLECULE
NuBBE_1634
 33 36 0 0 0
SMALL
GASTEIGER

@<TRIPOS>ATOM
      1 C          -3.2451   -0.5796   -0.0009 C.3     1  LIG1       -0.0372
      2 C          -1.7380   -0.5844   -0.0009 C.ar    1  LIG1       -0.0188
      3 C          -0.9910    0.6134   -0.0009 C.ar    1  LIG1        0.0510
      4 C           0.3989    0.6444   -0.0005 C.ar    1  LIG1        0.0083
      5 C           0.8131    2.0141   -0.0012 C.ar    1  LIG1        0.0074
      6 C          -0.3387    2.7947   -0.0014 C.ar    1  LIG1        0.0475
      7 N          -1.4063    1.9293   -0.0012 N.ar    1  LIG1       -0.3539
      8 H          -2.3703    2.2256   -0.0013 H       1  LIG1        0.1659
      9 C          -0.3068    4.1943   -0.0016 C.ar    1  LIG1       -0.0378
     10 C           0.9476    4.8119   -0.0019 C.ar    1  LIG1       -0.0598
     11 C           2.1192    4.0586   -0.0019 C.ar    1  LIG1       -0.0611
     12 C           2.0666    2.6604   -0.0015 C.ar    1  LIG1       -0.0520
     13 C           1.0990   -0.5753    0.0004 C.ar    1  LIG1       -0.0426
     14 C           0.4140   -1.8097    0.0008 C.ar    1  LIG1        0.0041
     15 C          -1.0022   -1.8131   -0.0003 C.ar    1  LIG1       -0.0099
     16 C          -1.6424   -3.0656   -0.0008 C.ar    1  LIG1       -0.0355
     17 C          -0.8941   -4.2295    0.0000 C.ar    1  LIG1        0.0285
     18 N           0.4473   -4.2522    0.0017 N.ar    1  LIG1       -0.2595
     19 C           1.0860   -3.0559    0.0022 C.ar    1  LIG1        0.0459
     20 C           2.5877   -3.1458    0.0052 C.3     1  LIG1       -0.0218
     21 H          -3.6541    0.4347   -0.0013 H       1  LIG1        0.0278
     22 H          -3.6263   -1.0827    0.8937 H       1  LIG1        0.0278
     23 H          -3.6263   -1.0834   -0.8951 H       1  LIG1        0.0278
     24 H          -1.2169    4.7850   -0.0017 H       1  LIG1        0.0638
     25 H           1.0091    5.8979   -0.0022 H       1  LIG1        0.0618
     26 H           3.0846    4.5588   -0.0022 H       1  LIG1        0.0618
     27 H           2.9847    2.0806   -0.0015 H       1  LIG1        0.0624
     28 H           2.1839   -0.5380    0.0008 H       1  LIG1        0.0631
     29 H          -2.7231   -3.1558   -0.0020 H       1  LIG1        0.0639
     30 H          -1.3748   -5.2033   -0.0006 H       1  LIG1        0.0830
     31 H           2.9153   -4.1909    0.0073 H       1  LIG1        0.0293
     32 H           2.9980   -2.6681    0.9004 H       1  LIG1        0.0293
     33 H           3.0015   -2.6704   -0.8896 H       1  LIG1        0.0293
@<TRIPOS>BOND
     1     1     2    1
     2     2     3   ar
     3     3     4   ar
     4     4     5   ar
     5     5     6   ar
     6     6     7   ar
     7     7     8    1
     8     3     7   ar
     9     6     9   ar
    10     9    10   ar
    11    10    11   ar
    12    11    12   ar
    13     5    12   ar
    14     4    13   ar
    15    13    14   ar
    16    14    15   ar
    17     2    15   ar
    18    15    16   ar
    19    16    17   ar
    20    17    18   ar
    21    18    19   ar
    22    14    19   ar
    23    19    20    1
    24     1    21    1
    25     1    22    1
    26     1    23    1
    27     9    24    1
    28    10    25    1
    29    11    26    1
    30    12    27    1
    31    13    28    1
    32    16    29    1
    33    17    30    1
    34    20    31    1
    35    20    32    1
    36    20    33    1
