@<TRIPOS>MOLECULE
NuBBE_1169
 42 43 0 0 0
SMALL
GASTEIGER

@<TRIPOS>ATOM
      1 O          -4.5368    3.7738    3.1052 O.3     1  LIG1       -0.5033
      2 C          -3.9165    2.8748    2.2803 C.ar    1  LIG1        0.1590
      3 C          -2.6044    3.1322    1.8818 C.ar    1  LIG1       -0.0094
      4 C          -1.9182    2.2056    1.0847 C.ar    1  LIG1       -0.0212
      5 C          -2.6062    1.0474    0.6843 C.ar    1  LIG1       -0.0509
      6 C          -3.9288    0.8049    1.0697 C.ar    1  LIG1       -0.0158
      7 C          -0.5039    2.4445    0.7300 C.2     1  LIG1       -0.0496
      8 C           0.2473    1.5946    0.0105 C.2     1  LIG1        0.0007
      9 C           1.6859    1.8360   -0.2429 C.2     1  LIG1        0.2369
     10 N           2.3738    0.6607   -0.3960 N.am    1  LIG1       -0.3115
     11 C           3.8092    0.5975   -0.5989 C.3     1  LIG1        0.0159
     12 C           4.1853   -0.1399   -1.8908 C.3     1  LIG1       -0.0120
     13 C           3.6817   -1.5670   -1.9520 C.ar    1  LIG1       -0.0457
     14 C           4.0967   -2.5261   -1.0153 C.ar    1  LIG1       -0.0551
     15 C           3.5749   -3.8230   -1.0459 C.ar    1  LIG1       -0.0199
     16 C           2.6530   -4.1675   -2.0284 C.ar    1  LIG1        0.1169
     17 C           2.2576   -3.2431   -2.9860 C.ar    1  LIG1       -0.0199
     18 C           2.7733   -1.9468   -2.9512 C.ar    1  LIG1       -0.0551
     19 O           2.1078   -5.4156   -2.0890 O.3     1  LIG1       -0.5068
     20 O           2.1757    2.9563   -0.2893 O.2     1  LIG1       -0.2708
     21 C          -4.5856    1.7095    1.8924 C.ar    1  LIG1        0.1613
     22 O          -5.8668    1.5605    2.3565 O.3     1  LIG1       -0.4915
     23 C          -6.2936    0.2067    2.4958 C.3     1  LIG1        0.0790
     24 H          -5.4001    3.3699    3.3190 H       1  LIG1        0.2923
     25 H          -2.1261    4.0488    2.2207 H       1  LIG1        0.0661
     26 H          -2.1313    0.2913    0.0678 H       1  LIG1        0.0625
     27 H          -4.4077   -0.0986    0.7095 H       1  LIG1        0.0655
     28 H          -0.0487    3.3529    1.1228 H       1  LIG1        0.0625
     29 H          -0.1427    0.6807   -0.4125 H       1  LIG1        0.0669
     30 H           1.8964   -0.2214   -0.2427 H       1  LIG1        0.1490
     31 H           4.2266    0.0909    0.2778 H       1  LIG1        0.0465
     32 H           4.2240    1.6103   -0.6233 H       1  LIG1        0.0465
     33 H           5.2762   -0.1496   -2.0029 H       1  LIG1        0.0328
     34 H           3.7902    0.4248   -2.7449 H       1  LIG1        0.0328
     35 H           4.8257   -2.2696   -0.2496 H       1  LIG1        0.0621
     36 H           3.8928   -4.5420   -0.2974 H       1  LIG1        0.0654
     37 H           1.5491   -3.5295   -3.7581 H       1  LIG1        0.0654
     38 H           2.4551   -1.2334   -3.7085 H       1  LIG1        0.0621
     39 H           2.5432   -5.9775   -1.4274 H       1  LIG1        0.2921
     40 H          -7.2177    0.2063    3.0804 H       1  LIG1        0.0660
     41 H          -5.5524   -0.3879    3.0420 H       1  LIG1        0.0660
     42 H          -6.5142   -0.2423    1.5216 H       1  LIG1        0.0660
@<TRIPOS>BOND
     1     1     2    1
     2     2     3   ar
     3     3     4   ar
     4     4     5   ar
     5     5     6   ar
     6     4     7    1
     7     7     8    2
     8     8     9    1
     9     9    10   am
    10    10    11    1
    11    11    12    1
    12    12    13    1
    13    13    14   ar
    14    14    15   ar
    15    15    16   ar
    16    16    17   ar
    17    17    18   ar
    18    13    18   ar
    19    16    19    1
    20     9    20    2
    21     2    21   ar
    22     6    21   ar
    23    21    22    1
    24    22    23    1
    25     1    24    1
    26     3    25    1
    27     5    26    1
    28     6    27    1
    29     7    28    1
    30     8    29    1
    31    10    30    1
    32    11    31    1
    33    11    32    1
    34    12    33    1
    35    12    34    1
    36    14    35    1
    37    15    36    1
    38    17    37    1
    39    18    38    1
    40    19    39    1
    41    23    40    1
    42    23    41    1
    43    23    42    1
