REMARK  Name = NuBBE_455
REMARK  16 active torsions:
REMARK  status: ('A' for Active; 'I' for Inactive)
REMARK    1  A    between atoms: O_1  and  C_2
REMARK    2  A    between atoms: C_4  and  C_27
REMARK    3  A    between atoms: C_7  and  C_11
REMARK    4  A    between atoms: C_11  and  C_12
REMARK    5  A    between atoms: C_12  and  C_13
REMARK    6  A    between atoms: C_13  and  C_14
REMARK    7  A    between atoms: C_14  and  C_15
REMARK    8  A    between atoms: C_15  and  C_16
REMARK    9  A    between atoms: C_16  and  C_17
REMARK   10  A    between atoms: C_17  and  C_18
REMARK   11  A    between atoms: C_18  and  C_19
REMARK   12  A    between atoms: C_19  and  C_20
REMARK   13  A    between atoms: C_20  and  C_21
REMARK   14  A    between atoms: C_21  and  C_22
REMARK   15  A    between atoms: C_22  and  C_23
REMARK   16  A    between atoms: C_23  and  C_24
REMARK                            x       y       z     vdW  Elec       q    Type
REMARK                         _______ _______ _______ _____ _____    ______ ____
ROOT
ATOM      1  C   LIG A   1       0.322  -2.289  -1.929  0.00  0.00    +0.000 C 
ENDROOT
BRANCH   1   2
ATOM      2  C   LIG A   1      -1.173  -1.924  -2.554  0.00  0.00    +0.002 C 
BRANCH   2   3
ATOM      3  C   LIG A   1      -2.291  -0.768  -2.303  0.00  0.00    +0.019 C 
BRANCH   3   7
ATOM      4  C   LIG A   1      -2.225   3.381  -0.848  0.00  0.00    +0.131 C 
ATOM      5  C   LIG A   1      -3.097   3.036  -2.067  0.00  0.00    +0.079 C 
ATOM      6  N   LIG A   1      -3.340   1.565  -2.094  0.00  0.00    -0.308 NA
ATOM      7  C   LIG A   1      -2.121   0.798  -2.502  0.00  0.00    +0.054 C 
ATOM      8  C   LIG A   1      -0.866   1.496  -1.961  0.00  0.00    +0.021 C 
ATOM      9  C   LIG A   1      -0.999   2.480  -0.781  0.00  0.00    +0.034 C 
ATOM     10  H   LIG A   1      -4.096   1.371  -2.753  0.00  0.00    +0.122 HD
ATOM     11  C   LIG A   1      -4.409   3.818  -1.986  0.00  0.00    +0.026 C 
BRANCH   4  12
ATOM     12  O   LIG A   1      -2.968   3.206   0.367  0.00  0.00    -0.390 OA
ATOM     13  H   LIG A   1      -3.438   2.356   0.258  0.00  0.00    +0.210 HD
ENDBRANCH   4  12
ENDBRANCH   3   7
ENDBRANCH   2   3
ENDBRANCH   1   2
BRANCH   1  14
ATOM     14  C   LIG A   1       1.460  -1.253  -1.623  0.00  0.00    -0.000 C 
BRANCH  14  15
ATOM     15  C   LIG A   1       2.886  -1.646  -0.988  0.00  0.00    -0.000 C 
BRANCH  15  16
ATOM     16  C   LIG A   1       3.379  -2.265   0.413  0.00  0.00    -0.000 C 
BRANCH  16  17
ATOM     17  C   LIG A   1       3.381  -1.542   1.756  0.00  0.00    -0.000 C 
BRANCH  17  18
ATOM     18  C   LIG A   1       3.771  -2.096   3.157  0.00  0.00    -0.000 C 
BRANCH  18  19
ATOM     19  C   LIG A   1       3.392  -1.029   4.253  0.00  0.00    +0.000 C 
BRANCH  19  20
ATOM     20  C   LIG A   1       1.884  -0.649   4.104  0.00  0.00    +0.000 C 
BRANCH  20  21
ATOM     21  C   LIG A   1       1.603   0.311   2.899  0.00  0.00    +0.007 C 
BRANCH  21  22
ATOM     22  C   LIG A   1       0.311   0.294   2.051  0.00  0.00    +0.074 C 
BRANCH  22  23
ATOM     23  C   LIG A   1      -0.696  -0.814   1.881  0.00  0.00    +0.130 C 
ATOM     24  C   LIG A   1      -1.230  -1.170   0.571  0.00  0.00    +0.086 C 
ATOM     25  O   LIG A   1      -1.299  -1.321   2.905  0.00  0.00    -0.298 OA
ENDBRANCH  22  23
ENDBRANCH  21  22
ENDBRANCH  20  21
ENDBRANCH  19  20
ENDBRANCH  18  19
ENDBRANCH  17  18
ENDBRANCH  16  17
ENDBRANCH  15  16
ENDBRANCH  14  15
ENDBRANCH   1  14
TORSDOF 14
