@<TRIPOS>MOLECULE
NuBBE_265
 33 32 0 0 0
SMALL
GASTEIGER

@<TRIPOS>ATOM
      1 C          -0.2270    3.7705    0.7674 C.3     1  LIG1       -0.0480
      2 C          -1.3891    2.7943    0.9844 C.3     1  LIG1        0.0848
      3 C          -2.4518    3.0727   -0.0691 C.2     1  LIG1        0.3122
      4 O          -3.3304    4.0236    0.3227 O.3     1  LIG1       -0.4802
      5 O          -2.5757    2.5464   -1.1742 O.2     1  LIG1       -0.2503
      6 C          -0.9845    1.3158    1.0140 C.2     1  LIG1        0.0459
      7 C          -2.0867    0.3348    1.1877 C.2     1  LIG1        0.3333
      8 O          -3.3000    0.9136    1.3121 O.3     1  LIG1       -0.4773
      9 O          -1.9984   -0.8689    1.2165 O.2     1  LIG1       -0.2455
     10 C           0.2961    0.9041    0.9131 C.2     1  LIG1       -0.0733
     11 C           0.8931   -0.4752    0.9568 C.3     1  LIG1       -0.0340
     12 C           1.0344   -1.0547   -0.4507 C.3     1  LIG1       -0.0496
     13 C           1.6754   -2.4426   -0.4178 C.3     1  LIG1       -0.0530
     14 C           1.8043   -3.0321   -1.8223 C.3     1  LIG1       -0.0559
     15 C           2.4297   -4.4178   -1.7896 C.3     1  LIG1       -0.0653
     16 H          -0.5593    4.8137    0.7876 H       1  LIG1        0.0241
     17 H           0.2589    3.6029   -0.2018 H       1  LIG1        0.0241
     18 H           0.5260    3.6555    1.5558 H       1  LIG1        0.0241
     19 H          -1.8307    3.0171    1.9664 H       1  LIG1        0.0462
     20 H          -4.0143    4.0350   -0.3804 H       1  LIG1        0.2951
     21 H          -3.9108    0.1485    1.3455 H       1  LIG1        0.2954
     22 H           1.0820    1.6487    0.7895 H       1  LIG1        0.0577
     23 H           0.3367   -1.1455    1.6174 H       1  LIG1        0.0308
     24 H           1.8905   -0.3866    1.4090 H       1  LIG1        0.0308
     25 H           1.6460   -0.3843   -1.0690 H       1  LIG1        0.0268
     26 H           0.0480   -1.1158   -0.9264 H       1  LIG1        0.0268
     27 H           1.0686   -3.1094    0.2064 H       1  LIG1        0.0265
     28 H           2.6675   -2.3785    0.0457 H       1  LIG1        0.0265
     29 H           2.4191   -2.3749   -2.4483 H       1  LIG1        0.0263
     30 H           0.8157   -3.0954   -2.2918 H       1  LIG1        0.0263
     31 H           3.4332   -4.3857   -1.3534 H       1  LIG1        0.0230
     32 H           2.5132   -4.8203   -2.8040 H       1  LIG1        0.0230
     33 H           1.8202   -5.1095   -1.1992 H       1  LIG1        0.0230
@<TRIPOS>BOND
     1     1     2    1
     2     2     3    1
     3     3     4    1
     4     3     5    2
     5     2     6    1
     6     6     7    1
     7     7     8    1
     8     7     9    2
     9     6    10    2
    10    10    11    1
    11    11    12    1
    12    12    13    1
    13    13    14    1
    14    14    15    1
    15     1    16    1
    16     1    17    1
    17     1    18    1
    18     2    19    1
    19     4    20    1
    20     8    21    1
    21    10    22    1
    22    11    23    1
    23    11    24    1
    24    12    25    1
    25    12    26    1
    26    13    27    1
    27    13    28    1
    28    14    29    1
    29    14    30    1
    30    15    31    1
    31    15    32    1
    32    15    33    1
