@<TRIPOS>MOLECULE
NuBBE_1684
 58 58 0 0 0
SMALL
GASTEIGER

@<TRIPOS>ATOM
      1 C           1.9961    3.7551    1.8038 C.3     1  LIG1       -0.0650
      2 C           0.7357    4.5898    1.9788 C.3     1  LIG1       -0.0525
      3 C          -0.1947    4.0798    3.0732 C.3     1  LIG1       -0.0350
      4 C          -0.7451    2.6823    2.9552 C.2     1  LIG1       -0.0876
      5 C          -1.0760    1.9934    1.8825 C.2     1  LIG1       -0.0842
      6 C          -1.0355    2.3880    0.4110 C.3     1  LIG1       -0.0165
      7 C           0.1871    1.8165   -0.2721 C.2     1  LIG1       -0.0842
      8 C           0.5813    1.8210   -1.5183 C.2     1  LIG1       -0.0876
      9 C          -0.1290    2.1924   -2.8105 C.3     1  LIG1       -0.0348
     10 C           0.8697    1.9804   -3.9447 C.3     1  LIG1       -0.0496
     11 C           1.0966    0.5344   -4.4637 C.3     1  LIG1       -0.0528
     12 C           1.2849   -0.7486   -3.5925 C.3     1  LIG1       -0.0530
     13 C           0.1367   -1.4110   -2.7394 C.3     1  LIG1       -0.0528
     14 C          -0.1666   -0.7924   -1.3805 C.3     1  LIG1       -0.0491
     15 C          -1.1881   -1.1379   -0.2984 C.3     1  LIG1       -0.0275
     16 C          -0.8335   -2.2686    0.5962 C.ar    1  LIG1       -0.0405
     17 C          -0.7240   -3.4979   -0.0370 C.ar    1  LIG1       -0.0165
     18 C          -0.7080   -4.6538    0.7083 C.ar    1  LIG1        0.1235
     19 O          -0.7811   -5.8472    0.0517 O.3     1  LIG1       -0.5064
     20 C          -0.6453   -4.6151    2.0979 C.ar    1  LIG1        0.0323
     21 C          -0.5578   -5.8955    2.8681 C.3     1  LIG1       -0.0328
     22 C          -0.6123   -3.3637    2.7308 C.ar    1  LIG1        0.1235
     23 O          -0.4469   -3.3094    4.0862 O.3     1  LIG1       -0.5064
     24 C          -0.7432   -2.1880    1.9910 C.ar    1  LIG1       -0.0165
     25 H           2.4657    3.9892    0.8429 H       1  LIG1        0.0230
     26 H           1.8039    2.6792    1.8241 H       1  LIG1        0.0230
     27 H           2.7127    3.9744    2.5983 H       1  LIG1        0.0230
     28 H           0.2131    4.6746    1.0286 H       1  LIG1        0.0266
     29 H           1.0279    5.6216    2.2106 H       1  LIG1        0.0266
     30 H          -1.0507    4.7618    3.1797 H       1  LIG1        0.0307
     31 H           0.3513    4.1429    4.0298 H       1  LIG1        0.0307
     32 H          -0.8756    2.1878    3.9355 H       1  LIG1        0.0569
     33 H          -1.4330    0.9690    2.0709 H       1  LIG1        0.0572
     34 H          -1.0087    3.4568    0.2756 H       1  LIG1        0.0350
     35 H          -1.9634    2.0433   -0.0596 H       1  LIG1        0.0350
     36 H           0.7619    1.1466    0.4035 H       1  LIG1        0.0572
     37 H           1.4619    1.1864   -1.7213 H       1  LIG1        0.0569
     38 H          -0.4608    3.2307   -2.7369 H       1  LIG1        0.0307
     39 H          -1.0107    1.5836   -3.0255 H       1  LIG1        0.0307
     40 H           1.8360    2.4288   -3.6676 H       1  LIG1        0.0268
     41 H           0.5218    2.5726   -4.8034 H       1  LIG1        0.0268
     42 H           2.0186    0.6095   -5.0695 H       1  LIG1        0.0265
     43 H           0.3125    0.3252   -5.1994 H       1  LIG1        0.0265
     44 H           2.2263   -0.6891   -3.0294 H       1  LIG1        0.0265
     45 H           1.4870   -1.5224   -4.3532 H       1  LIG1        0.0265
     46 H           0.4439   -2.4437   -2.5686 H       1  LIG1        0.0265
     47 H          -0.7761   -1.4020   -3.3376 H       1  LIG1        0.0265
     48 H          -0.6899    0.0812   -1.7281 H       1  LIG1        0.0268
     49 H           0.7918   -0.6383   -0.8745 H       1  LIG1        0.0268
     50 H          -2.1825   -1.2733   -0.7352 H       1  LIG1        0.0313
     51 H          -1.3138   -0.2682    0.3501 H       1  LIG1        0.0313
     52 H          -0.7139   -3.5275   -1.1164 H       1  LIG1        0.0657
     53 H          -0.7129   -5.6759   -0.9005 H       1  LIG1        0.2921
     54 H          -0.5632   -6.7662    2.2035 H       1  LIG1        0.0280
     55 H          -1.4079   -6.0029    3.5460 H       1  LIG1        0.0280
     56 H           0.3833   -5.9241    3.4205 H       1  LIG1        0.0280
     57 H          -0.1661   -2.4093    4.3243 H       1  LIG1        0.2921
     58 H          -0.7913   -1.2267    2.5049 H       1  LIG1        0.0657
@<TRIPOS>BOND
     1     1     2    1
     2     2     3    1
     3     3     4    1
     4     4     5    2
     5     5     6    1
     6     6     7    1
     7     7     8    2
     8     8     9    1
     9     9    10    1
    10    10    11    1
    11    11    12    1
    12    12    13    1
    13    13    14    1
    14    14    15    1
    15    15    16    1
    16    16    17   ar
    17    17    18   ar
    18    18    19    1
    19    18    20   ar
    20    20    21    1
    21    20    22   ar
    22    22    23    1
    23    22    24   ar
    24    16    24   ar
    25     1    25    1
    26     1    26    1
    27     1    27    1
    28     2    28    1
    29     2    29    1
    30     3    30    1
    31     3    31    1
    32     4    32    1
    33     5    33    1
    34     6    34    1
    35     6    35    1
    36     7    36    1
    37     8    37    1
    38     9    38    1
    39     9    39    1
    40    10    40    1
    41    10    41    1
    42    11    42    1
    43    11    43    1
    44    12    44    1
    45    12    45    1
    46    13    46    1
    47    13    47    1
    48    14    48    1
    49    14    49    1
    50    15    50    1
    51    15    51    1
    52    17    52    1
    53    19    53    1
    54    21    54    1
    55    21    55    1
    56    21    56    1
    57    23    57    1
    58    24    58    1
