@<TRIPOS>MOLECULE
NuBBE_285
 52 55 0 0 0
SMALL
GASTEIGER

@<TRIPOS>ATOM
      1 O           0.0208   -4.6157    1.3202 O.3     1  LIG1       -0.5058
      2 C          -0.2095   -3.7501    2.3558 C.ar    1  LIG1        0.1348
      3 C          -0.0962   -2.3583    2.2364 C.ar    1  LIG1        0.1092
      4 C           0.3012   -1.7299    0.9735 C.ar    1  LIG1        0.2382
      5 C           0.3908   -0.2381    0.9332 C.ar    1  LIG1        0.2138
      6 O           0.7732    0.4605   -0.2019 O.3     1  LIG1       -0.4532
      7 C           0.6280   -0.1245   -1.5038 C.3     1  LIG1        0.2311
      8 H           1.1704   -1.0713   -1.5509 H       1  LIG1        0.1084
      9 O           1.2957    0.7508   -2.4346 O.3     1  LIG1       -0.3313
     10 C           1.2408    0.2755   -3.7864 C.3     1  LIG1        0.1140
     11 H           1.6478   -0.7442   -3.8385 H       1  LIG1        0.0647
     12 C          -0.2181    0.2704   -4.2616 C.3     1  LIG1        0.1120
     13 H          -0.6413    1.2814   -4.2150 H       1  LIG1        0.0647
     14 C          -1.0174   -0.6594   -3.3560 C.3     1  LIG1        0.1152
     15 H          -0.7015   -1.7002   -3.5044 H       1  LIG1        0.0648
     16 O          -2.3994   -0.6225   -3.7465 O.3     1  LIG1       -0.3864
     17 O          -0.3384   -0.1759   -5.6161 O.3     1  LIG1       -0.3865
     18 C           2.1285    1.1644   -4.6678 C.3     1  LIG1        0.0731
     19 O           2.1578    0.7365   -6.0249 O.3     1  LIG1       -0.3924
     20 C          -0.8716   -0.2629   -1.8885 C.3     1  LIG1        0.1454
     21 H          -1.3819    0.6911   -1.7111 H       1  LIG1        0.0683
     22 O          -1.6051   -1.2414   -1.1288 O.3     1  LIG1       -0.3829
     23 C           0.0810    0.4177    2.0700 C.ar    1  LIG1        0.1809
     24 O          -0.2975   -0.1736    3.2642 O.2     1  LIG1       -0.4507
     25 C          -0.3649   -1.5415    3.3284 C.ar    1  LIG1        0.1465
     26 C          -0.7206   -2.1093    4.5542 C.ar    1  LIG1        0.0231
     27 C          -0.8083   -3.4964    4.6650 C.ar    1  LIG1        0.1239
     28 O          -1.1267   -4.0985    5.8457 O.3     1  LIG1       -0.5065
     29 C          -0.5676   -4.3204    3.5712 C.ar    1  LIG1        0.0223
     30 C           0.1087    1.8906    2.1476 C.ar    1  LIG1        0.0213
     31 C           1.2748    2.5617    2.5446 C.ar    1  LIG1       -0.0475
     32 C           1.3034    3.9597    2.6143 C.ar    1  LIG1       -0.0195
     33 C           0.1626    4.6852    2.2872 C.ar    1  LIG1        0.1169
     34 C          -1.0024    4.0370    1.8948 C.ar    1  LIG1       -0.0195
     35 C          -1.0317    2.6406    1.8259 C.ar    1  LIG1       -0.0475
     36 O           0.1437    6.0477    2.3396 O.3     1  LIG1       -0.5068
     37 O           0.4998   -2.4500   -0.0012 O.2     1  LIG1       -0.2830
     38 H           0.2998   -4.0934    0.5377 H       1  LIG1        0.2922
     39 H          -2.8932   -1.0190   -2.9988 H       1  LIG1        0.2100
     40 H          -1.2945   -0.3631   -5.7352 H       1  LIG1        0.2100
     41 H           1.7987    2.2079   -4.6300 H       1  LIG1        0.0584
     42 H           3.1572    1.1463   -4.2913 H       1  LIG1        0.0584
     43 H           1.2410    0.4821   -6.2686 H       1  LIG1        0.2095
     44 H          -1.0431   -2.0432   -1.0703 H       1  LIG1        0.2102
     45 H          -0.9233   -1.4655    5.4043 H       1  LIG1        0.0691
     46 H          -1.1907   -3.4261    6.5435 H       1  LIG1        0.2921
     47 H          -0.6491   -5.3997    3.6659 H       1  LIG1        0.0691
     48 H           2.1710    2.0005    2.7983 H       1  LIG1        0.0626
     49 H           2.2178    4.4587    2.9199 H       1  LIG1        0.0654
     50 H          -1.8852    4.6180    1.6418 H       1  LIG1        0.0654
     51 H          -1.9502    2.1467    1.5183 H       1  LIG1        0.0626
     52 H           1.0151    6.3634    2.6304 H       1  LIG1        0.2921
@<TRIPOS>BOND
     1     1     2    1
     2     2     3   ar
     3     3     4   ar
     4     4     5   ar
     5     5     6    1
     6     7     9    1
     7     9    10    1
     8    10    12    1
     9    12    13    1
    10    12    14    1
    11    12    17    1
    12    18    19    1
    13     7    20    1
    14    14    20    1
    15     5    23   ar
    16    23    24   ar
    17    24    25   ar
    18     3    25   ar
    19    25    26   ar
    20    26    27   ar
    21    27    28    1
    22    27    29   ar
    23     2    29   ar
    24    23    30    1
    25    30    31   ar
    26    31    32   ar
    27    32    33   ar
    28    33    34   ar
    29    34    35   ar
    30    30    35   ar
    31    33    36    1
    32     4    37    2
    33    10    18    1
    34    10    11    1
    35     7     8    1
    36     7     6    1
    37    14    16    1
    38    14    15    1
    39    20    22    1
    40    20    21    1
    41     1    38    1
    42    16    39    1
    43    17    40    1
    44    18    41    1
    45    18    42    1
    46    19    43    1
    47    22    44    1
    48    26    45    1
    49    28    46    1
    50    29    47    1
    51    31    48    1
    52    32    49    1
    53    34    50    1
    54    35    51    1
    55    36    52    1
