REMARK  Name = NuBBE_2516
REMARK  7 active torsions:
REMARK  status: ('A' for Active; 'I' for Inactive)
REMARK    1  A    between atoms: C_1  and  C_2
REMARK    2  A    between atoms: C_6  and  C_24
REMARK    3  A    between atoms: C_6  and  O_27
REMARK    4  A    between atoms: C_12  and  C_14
REMARK    5  A    between atoms: C_14  and  C_15
REMARK    6  A    between atoms: C_24  and  C_25
REMARK    7  A    between atoms: O_27  and  C_28
REMARK                            x       y       z     vdW  Elec       q    Type
REMARK                         _______ _______ _______ _____ _____    ______ ____
ROOT
ATOM      1  C   LIG A   1       1.649   0.652   2.180  0.00  0.00    +0.016 C 
ATOM      2  C   LIG A   1       0.842   0.623   0.882  0.00  0.00    +0.060 C 
ATOM      3  C   LIG A   1       1.346  -0.428  -0.043  0.00  0.00    -0.000 C 
ATOM      4  C   LIG A   1       1.133  -1.747  -0.047  0.00  0.00    +0.023 C 
ATOM      5  C   LIG A   1       1.757  -2.687  -1.067  0.00  0.00    +0.153 C 
ATOM      6  C   LIG A   1       2.682  -1.906  -2.077  0.00  0.00    +0.195 C 
ATOM      7  O   LIG A   1       3.278  -2.468  -3.001  0.00  0.00    -0.289 OA
ATOM      8  C   LIG A   1       2.830  -0.429  -1.969  0.00  0.00    +0.095 C 
ATOM      9  C   LIG A   1       2.168   0.218  -1.015  0.00  0.00    +0.128 C 
ATOM     10  O   LIG A   1       2.183   1.590  -0.859  0.00  0.00    -0.487 OA
ATOM     11  C   LIG A   1       1.080   1.889   0.038  0.00  0.00    +0.185 C 
ENDROOT
BRANCH   5  12
ATOM     12  O   LIG A   1       2.465  -3.646  -0.268  0.00  0.00    -0.364 OA
ATOM     13  C   LIG A   1       3.176  -4.658  -0.968  0.00  0.00    +0.195 C 
ENDBRANCH   5  12
BRANCH  11  14
ATOM     14  C   LIG A   1      -0.132   2.326  -0.811  0.00  0.00    +0.080 C 
BRANCH  14  15
ATOM     15  C   LIG A   1      -1.357   2.676   0.001  0.00  0.00    -0.040 A 
ATOM     16  C   LIG A   1      -1.323   3.722   0.938  0.00  0.00    +0.053 A 
ATOM     17  C   LIG A   1      -2.466   3.981   1.665  0.00  0.00    +0.167 A 
ATOM     18  C   LIG A   1      -3.619   3.252   1.491  0.00  0.00    +0.166 A 
ATOM     19  C   LIG A   1      -3.694   2.225   0.578  0.00  0.00    +0.050 A 
ATOM     20  C   LIG A   1      -2.551   1.939  -0.176  0.00  0.00    +0.007 A 
ATOM     21  O   LIG A   1      -4.625   3.668   2.304  0.00  0.00    -0.453 OA
ATOM     22  C   LIG A   1      -3.978   4.750   3.005  0.00  0.00    +0.466 C 
ATOM     23  O   LIG A   1      -2.603   4.946   2.613  0.00  0.00    -0.453 OA
ENDBRANCH  14  15
ENDBRANCH  11  14
BRANCH   5  24
ATOM     24  C   LIG A   1       0.629  -3.353  -1.914  0.00  0.00    +0.074 C 
BRANCH  24  25
ATOM     25  C   LIG A   1      -0.361  -4.179  -1.122  0.00  0.00    -0.031 C 
ATOM     26  C   LIG A   1      -1.678  -3.944  -1.090  0.00  0.00    +0.004 C 
ENDBRANCH  24  25
ENDBRANCH   5  24
TORSDOF 5
