REMARK  Name = NuBBE_967
REMARK  7 active torsions:
REMARK  status: ('A' for Active; 'I' for Inactive)
REMARK    1  A    between atoms: C_1  and  C_2
REMARK    2  A    between atoms: C_5  and  C_7
REMARK    3  A    between atoms: C_7  and  C_8
REMARK    4  A    between atoms: C_7  and  O_9
REMARK    5  A    between atoms: C_7  and  C_10
REMARK    6  A    between atoms: C_13  and  C_14
REMARK    7  A    between atoms: C_13  and  O_15
REMARK                            x       y       z     vdW  Elec       q    Type
REMARK                         _______ _______ _______ _____ _____    ______ ____
ROOT
ATOM      1  C   LIG A   1      -1.655   0.661   1.559  0.00  0.00    +0.011 C 
ATOM      2  C   LIG A   1      -0.137   0.868   1.350  0.00  0.00    -0.027 C 
ATOM      3  C   LIG A   1       0.320   0.914  -0.137  0.00  0.00    +0.027 C 
ATOM      4  C   LIG A   1       0.013  -0.406  -0.876  0.00  0.00    +0.013 C 
ATOM      5  C   LIG A   1       0.677  -1.628  -0.195  0.00  0.00    +0.021 C 
ATOM      6  C   LIG A   1       0.342  -1.658   1.313  0.00  0.00    +0.007 C 
ATOM      7  C   LIG A   1       0.601  -0.322   2.015  0.00  0.00    +0.007 C 
ATOM      8  C   LIG A   1      -0.088   2.191  -0.926  0.00  0.00    +0.067 C 
ATOM      9  C   LIG A   1      -1.547   2.245  -1.389  0.00  0.00    +0.041 C 
ATOM     10  C   LIG A   1       0.301   3.451  -0.129  0.00  0.00    +0.035 C 
ATOM     11  C   LIG A   1      -0.178   3.436   1.318  0.00  0.00    +0.003 C 
ATOM     12  C   LIG A   1       0.289   2.179   2.054  0.00  0.00    +0.007 C 
ENDROOT
BRANCH   5  13
ATOM     13  C   LIG A   1       0.318  -2.973  -0.908  0.00  0.00    +0.063 C 
ATOM     14  C   LIG A   1       1.016  -4.173  -0.251  0.00  0.00    +0.041 C 
ATOM     15  C   LIG A   1       0.685  -2.948  -2.399  0.00  0.00    +0.041 C 
BRANCH  13  16
ATOM     16  O   LIG A   1      -1.094  -3.185  -0.809  0.00  0.00    -0.389 OA
ATOM     17  H   LIG A   1      -1.306  -4.012  -1.274  0.00  0.00    +0.210 HD
ENDBRANCH  13  16
ENDBRANCH   5  13
BRANCH   8  18
ATOM     18  O   LIG A   1       0.706   2.206  -2.129  0.00  0.00    -0.389 OA
ATOM     19  H   LIG A   1       0.511   3.031  -2.607  0.00  0.00    +0.210 HD
ENDBRANCH   8  18
TORSDOF 3
