REMARK  Name = NuBBE_1290
REMARK  9 active torsions:
REMARK  status: ('A' for Active; 'I' for Inactive)
REMARK    1  A    between atoms: C_1  and  C_2
REMARK    2  A    between atoms: C_9  and  C_17
REMARK    3  A    between atoms: C_10  and  C_12
REMARK    4  A    between atoms: C_12  and  C_13
REMARK    5  A    between atoms: C_13  and  O_15
REMARK    6  A    between atoms: O_15  and  C_16
REMARK    7  A    between atoms: C_22  and  C_25
REMARK    8  A    between atoms: C_30  and  C_31
REMARK    9  A    between atoms: C_32  and  C_35
REMARK                            x       y       z     vdW  Elec       q    Type
REMARK                         _______ _______ _______ _____ _____    ______ ____
ROOT
ATOM      1  C   LIG A   1      -1.362  -0.512   1.511  0.00  0.00    +0.019 C 
ATOM      2  C   LIG A   1      -0.383  -0.483   0.309  0.00  0.00    +0.024 C 
ATOM      3  C   LIG A   1       0.719   0.601   0.580  0.00  0.00    +0.158 C 
ATOM      4  C   LIG A   1       0.258   2.029   0.300  0.00  0.00    +0.153 C 
ATOM      5  C   LIG A   1      -1.047   2.202  -0.435  0.00  0.00    +0.046 C 
ATOM      6  C   LIG A   1      -1.869   1.141  -1.182  0.00  0.00    +0.040 C 
ATOM      7  C   LIG A   1      -1.201  -0.286  -1.023  0.00  0.00    +0.026 C 
ATOM      8  C   LIG A   1      -2.316   1.330  -2.658  0.00  0.00    +0.020 C 
ATOM      9  C   LIG A   1      -3.248   1.470  -0.515  0.00  0.00    +0.162 C 
ATOM     10  O   LIG A   1      -4.052   0.625  -0.141  0.00  0.00    -0.292 OA
ATOM     11  C   LIG A   1      -3.571   2.987  -0.370  0.00  0.00    +0.043 C 
ATOM     12  C   LIG A   1      -2.629   3.955  -0.565  0.00  0.00    -0.014 C 
ATOM     13  C   LIG A   1      -1.163   3.639  -0.928  0.00  0.00    +0.016 C 
ATOM     14  C   LIG A   1       0.061   4.239  -0.182  0.00  0.00    +0.171 C 
ATOM     15  O   LIG A   1       1.045   3.148  -0.083  0.00  0.00    -0.373 OA
ATOM     16  C   LIG A   1      -0.934   3.962  -2.415  0.00  0.00    +0.018 C 
ATOM     17  O   LIG A   1       1.945   0.167  -0.019  0.00  0.00    -0.366 OA
ATOM     18  C   LIG A   1       1.961  -1.254   0.081  0.00  0.00    +0.146 C 
ATOM     19  C   LIG A   1       0.556  -1.667   0.360  0.00  0.00    -0.033 C 
ATOM     20  C   LIG A   1       0.499  -2.832   1.024  0.00  0.00    -0.063 C 
ATOM     21  C   LIG A   1      -0.696  -3.685   1.276  0.00  0.00    +0.040 C 
ATOM     22  C   LIG A   1       1.873  -3.158   1.598  0.00  0.00    +0.051 C 
ATOM     23  C   LIG A   1       2.684  -1.869   1.266  0.00  0.00    +0.048 C 
ENDROOT
BRANCH  22  24
ATOM     24  C   LIG A   1       1.836  -3.427   3.084  0.00  0.00    -0.003 A 
ATOM     25  C   LIG A   1       1.945  -2.489   4.160  0.00  0.00    +0.045 A 
ATOM     26  C   LIG A   1       1.872  -3.203   5.330  0.00  0.00    +0.195 A 
ATOM     27  O   LIG A   1       1.707  -4.521   5.062  0.00  0.00    -0.471 OA
ATOM     28  C   LIG A   1       1.685  -4.652   3.710  0.00  0.00    +0.199 A 
ENDBRANCH  22  24
BRANCH   7  29
ATOM     29  C   LIG A   1      -0.418  -0.764  -2.303  0.00  0.00    +0.126 C 
BRANCH  29  30
ATOM     30  C   LIG A   1       0.783   0.046  -2.753  0.00  0.00    +0.307 C 
ATOM     31  O   LIG A   1       0.905   1.271  -2.662  0.00  0.00    -0.251 OA
BRANCH  30  32
ATOM     32  O   LIG A   1       1.691  -0.788  -3.340  0.00  0.00    -0.468 OA
ATOM     33  C   LIG A   1       3.003  -0.235  -3.474  0.00  0.00    +0.280 C 
ENDBRANCH  30  32
ENDBRANCH  29  30
ENDBRANCH   7  29
TORSDOF 4
