@<TRIPOS>MOLECULE
NuBBE_1699
 106 111 0 0 0
SMALL
GASTEIGER

@<TRIPOS>ATOM
      1 C           1.0589    0.5091    2.1631 C.3     1  LIG1        0.1080
      2 O           2.4558    0.2432    1.9385 O.3     1  LIG1       -0.4639
      3 C           3.4133    0.9148    2.6402 C.2     1  LIG1        0.3040
      4 O           3.2159    1.9268    3.2944 O.2     1  LIG1       -0.2512
      5 C           4.7539    0.2426    2.5302 C.3     1  LIG1        0.0332
      6 C           0.0806    1.1759    1.0725 C.3     1  LIG1        0.1197
      7 C          -0.0852    0.4431   -0.4296 C.3     1  LIG1        0.1548
      8 C          -1.5944    0.3675   -0.8300 C.3     1  LIG1        0.1446
      9 O          -1.9066   -0.2904   -2.0936 O.3     1  LIG1       -0.4580
     10 C          -1.8940    0.2619   -3.3143 C.2     1  LIG1        0.3043
     11 O          -1.5024    1.4134   -3.5872 O.2     1  LIG1       -0.2512
     12 C          -2.4304   -0.6687   -4.3520 C.3     1  LIG1        0.0332
     13 C          -2.0812   -0.6660    0.2464 C.3     1  LIG1        0.0715
     14 C          -2.1893   -0.0400    1.6458 C.3     1  LIG1        0.1496
     15 C          -1.3689    1.2651    1.7906 C.3     1  LIG1        0.1552
     16 O          -1.1873    1.5745    3.2124 O.3     1  LIG1       -0.4569
     17 C          -2.2051    2.1138    3.9402 C.2     1  LIG1        0.3043
     18 O          -3.3105    2.4031    3.5054 O.2     1  LIG1       -0.2512
     19 C          -1.7688    2.3833    5.3525 C.3     1  LIG1        0.0332
     20 O          -3.6101    0.2271    1.8577 O.3     1  LIG1       -0.4573
     21 C          -4.1951   -0.3206    2.9668 C.2     1  LIG1        0.3043
     22 O          -3.6194   -1.0187    3.7916 O.2     1  LIG1       -0.2512
     23 C          -5.6476    0.0487    3.0556 C.3     1  LIG1        0.0332
     24 C          -0.9680   -1.7343    0.1460 C.3     1  LIG1        0.1114
     25 O           0.2106   -0.9713   -0.2355 O.3     1  LIG1       -0.3557
     26 C          -1.3219   -2.7898   -0.9431 C.3     1  LIG1       -0.0321
     27 C          -0.5773   -2.6131    1.3710 C.3     1  LIG1        0.1219
     28 O           0.6805   -3.2280    0.9886 O.3     1  LIG1       -0.4582
     29 C           0.7809   -4.5612    1.0993 C.2     1  LIG1        0.3410
     30 O           0.1595   -5.2567    1.8832 O.2     1  LIG1       -0.2449
     31 C           1.4464   -5.0775   -0.1239 C.ar    1  LIG1        0.0805
     32 C           2.5614   -4.5688   -0.8081 C.ar    1  LIG1        0.0588
     33 C           3.4382   -3.3501   -0.4779 C.3     1  LIG1        0.0119
     34 C           2.9930   -2.1119   -1.3113 C.3     1  LIG1        0.0616
     35 C           3.5945   -0.7228   -0.9983 C.2     1  LIG1        0.3110
     36 O           4.6731   -0.3200   -1.4087 O.2     1  LIG1       -0.2505
     37 O           2.7076    0.0754   -0.3337 O.3     1  LIG1       -0.4554
     38 C           2.2845    1.3752   -0.8560 C.3     1  LIG1        0.1633
     39 C           0.9319    1.0860   -1.5441 C.3     1  LIG1        0.1356
     40 C           1.2386    0.2517   -2.7984 C.3     1  LIG1       -0.0296
     41 O           0.4459    2.3294   -2.0538 O.3     1  LIG1       -0.3821
     42 C           2.0354    2.5561    0.1614 C.3     1  LIG1        0.1324
     43 C           0.6030    2.6236    0.8235 C.3     1  LIG1        0.1478
     44 O          -0.4529    3.3058    0.0756 O.3     1  LIG1       -0.4542
     45 C          -0.4395    4.6510   -0.1099 C.2     1  LIG1        0.3395
     46 O           0.4604    5.4081    0.1977 O.2     1  LIG1       -0.2449
     47 C          -1.7072    5.0633   -0.7824 C.ar    1  LIG1        0.0590
     48 C          -2.9287    4.4454   -0.4777 C.ar    1  LIG1       -0.0478
     49 C          -4.0729    4.7396   -1.2231 C.ar    1  LIG1       -0.0610
     50 C          -4.0068    5.6693   -2.2590 C.ar    1  LIG1       -0.0617
     51 C          -2.8135    6.3473   -2.5129 C.ar    1  LIG1       -0.0610
     52 C          -1.6672    6.0594   -1.7641 C.ar    1  LIG1       -0.0478
     53 O           2.3816    3.7933   -0.4779 O.3     1  LIG1       -0.3843
     54 C           3.2115   -2.3686   -2.8226 C.3     1  LIG1       -0.0517
     55 C           3.6934   -3.1022    1.0003 C.3     1  LIG1       -0.0562
     56 N           2.9486   -5.1422   -1.9920 N.ar    1  LIG1       -0.2588
     57 C           2.2125   -6.1295   -2.5445 C.ar    1  LIG1        0.0279
     58 C           1.0922   -6.6555   -1.9511 C.ar    1  LIG1       -0.0428
     59 C           0.7253   -6.1392   -0.7174 C.ar    1  LIG1       -0.0446
     60 H           1.0035    1.0834    3.0903 H       1  LIG1        0.0706
     61 H           0.6724   -0.4719    2.4023 H       1  LIG1        0.0706
     62 H           5.0332   -0.1313    3.5181 H       1  LIG1        0.0342
     63 H           5.5126    0.9295    2.1475 H       1  LIG1        0.0342
     64 H           4.7148   -0.6025    1.8494 H       1  LIG1        0.0342
     65 H          -2.1323    1.3184   -0.7985 H       1  LIG1        0.0769
     66 H          -3.2262   -1.2796   -3.9363 H       1  LIG1        0.0342
     67 H          -1.6303   -1.3243   -4.7485 H       1  LIG1        0.0342
     68 H          -2.8444   -0.0886   -5.1773 H       1  LIG1        0.0342
     69 H          -3.0469   -1.1082   -0.0344 H       1  LIG1        0.0404
     70 H          -1.8694   -0.7348    2.4197 H       1  LIG1        0.0777
     71 H          -1.9589    2.0840    1.3737 H       1  LIG1        0.0781
     72 H          -1.0727    1.6149    5.6998 H       1  LIG1        0.0342
     73 H          -2.6381    2.3649    6.0183 H       1  LIG1        0.0342
     74 H          -1.2969    3.3674    5.4007 H       1  LIG1        0.0342
     75 H          -6.1613   -0.2153    2.1283 H       1  LIG1        0.0342
     76 H          -5.7560    1.1146    3.2673 H       1  LIG1        0.0342
     77 H          -6.1153   -0.5145    3.8709 H       1  LIG1        0.0342
     78 H          -1.6554   -2.3952   -1.8973 H       1  LIG1        0.0259
     79 H          -2.1260   -3.4468   -0.5854 H       1  LIG1        0.0259
     80 H          -0.4595   -3.4044   -1.2026 H       1  LIG1        0.0259
     81 H          -1.3566   -3.3532    1.5947 H       1  LIG1        0.0727
     82 H          -0.3803   -2.0694    2.2899 H       1  LIG1        0.0727
     83 H           4.4384   -3.6145   -0.8554 H       1  LIG1        0.0369
     84 H           1.9171   -2.0212   -1.1853 H       1  LIG1        0.0417
     85 H           3.0479    1.7326   -1.5594 H       1  LIG1        0.0792
     86 H           0.9179   -0.7854   -2.7211 H       1  LIG1        0.0259
     87 H           2.3144    0.2754   -3.0044 H       1  LIG1        0.0259
     88 H           0.8353    0.6818   -3.7178 H       1  LIG1        0.0259
     89 H           1.1730    2.7738   -2.5354 H       1  LIG1        0.2104
     90 H           2.7678    2.4765    0.9555 H       1  LIG1        0.0669
     91 H           0.6694    3.1738    1.7703 H       1  LIG1        0.0770
     92 H          -3.0014    3.7213    0.3265 H       1  LIG1        0.0626
     93 H          -5.0066    4.2225   -1.0146 H       1  LIG1        0.0618
     94 H          -4.8828    5.8584   -2.8755 H       1  LIG1        0.0618
     95 H          -2.7675    7.0758   -3.3192 H       1  LIG1        0.0618
     96 H          -0.7383    6.5810   -1.9809 H       1  LIG1        0.0626
     97 H           2.0934    4.5262    0.1110 H       1  LIG1        0.2101
     98 H           4.1557   -2.8896   -3.0071 H       1  LIG1        0.0238
     99 H           3.2568   -1.4568   -3.4196 H       1  LIG1        0.0238
    100 H           2.3905   -2.9667   -3.2331 H       1  LIG1        0.0238
    101 H           2.8519   -2.6638    1.5354 H       1  LIG1        0.0236
    102 H           4.5363   -2.4185    1.0991 H       1  LIG1        0.0236
    103 H           3.9881   -4.0263    1.5091 H       1  LIG1        0.0236
    104 H           2.5547   -6.4757   -3.5154 H       1  LIG1        0.0829
    105 H           0.5122   -7.4331   -2.4344 H       1  LIG1        0.0633
    106 H          -0.1702   -6.5316   -0.2352 H       1  LIG1        0.0627
@<TRIPOS>BOND
     1     1     2    1
     2     2     3    1
     3     3     4    2
     4     3     5    1
     5     1     6    1
     6     6     7    1
     7     7     8    1
     8     8     9    1
     9     9    10    1
    10    10    11    2
    11    10    12    1
    12     8    13    1
    13    13    14    1
    14    14    15    1
    15     6    15    1
    16    15    16    1
    17    16    17    1
    18    17    18    2
    19    17    19    1
    20    14    20    1
    21    20    21    1
    22    21    22    2
    23    21    23    1
    24    13    24    1
    25    24    25    1
    26     7    25    1
    27    24    26    1
    28    24    27    1
    29    27    28    1
    30    28    29    1
    31    29    30    2
    32    29    31    1
    33    31    32   ar
    34    32    33    1
    35    33    34    1
    36    34    35    1
    37    35    36    2
    38    35    37    1
    39    37    38    1
    40    38    39    1
    41     7    39    1
    42    39    40    1
    43    39    41    1
    44    38    42    1
    45    42    43    1
    46     6    43    1
    47    43    44    1
    48    44    45    1
    49    45    46    2
    50    45    47    1
    51    47    48   ar
    52    48    49   ar
    53    49    50   ar
    54    50    51   ar
    55    51    52   ar
    56    47    52   ar
    57    42    53    1
    58    34    54    1
    59    33    55    1
    60    32    56   ar
    61    56    57   ar
    62    57    58   ar
    63    58    59   ar
    64    31    59   ar
    65     1    60    1
    66     1    61    1
    67     5    62    1
    68     5    63    1
    69     5    64    1
    70     8    65    1
    71    12    66    1
    72    12    67    1
    73    12    68    1
    74    13    69    1
    75    14    70    1
    76    15    71    1
    77    19    72    1
    78    19    73    1
    79    19    74    1
    80    23    75    1
    81    23    76    1
    82    23    77    1
    83    26    78    1
    84    26    79    1
    85    26    80    1
    86    27    81    1
    87    27    82    1
    88    33    83    1
    89    34    84    1
    90    38    85    1
    91    40    86    1
    92    40    87    1
    93    40    88    1
    94    41    89    1
    95    42    90    1
    96    43    91    1
    97    48    92    1
    98    49    93    1
    99    50    94    1
   100    51    95    1
   101    52    96    1
   102    53    97    1
   103    54    98    1
   104    54    99    1
   105    54   100    1
   106    55   101    1
   107    55   102    1
   108    55   103    1
   109    57   104    1
   110    58   105    1
   111    59   106    1
