@<TRIPOS>MOLECULE
NuBBE_289
 41 41 0 0 0
SMALL
GASTEIGER

@<TRIPOS>ATOM
      1 O           4.4105    0.8052   -2.6956 O.3     1  LIG1       -0.5061
      2 C           4.0427    1.2049   -1.4375 C.ar    1  LIG1        0.1277
      3 C           2.9089    0.7040   -0.7768 C.ar    1  LIG1        0.0638
      4 C           2.0252   -0.2595   -1.4914 C.2     1  LIG1        0.1895
      5 C           0.5723   -0.2947   -1.1441 C.2     1  LIG1       -0.0152
      6 C          -0.3734   -1.0557   -1.7335 C.2     1  LIG1       -0.0687
      7 C          -0.1433   -2.0322   -2.8554 C.3     1  LIG1       -0.0434
      8 C          -1.8186   -0.9238   -1.2880 C.3     1  LIG1       -0.0282
      9 C          -2.1580   -1.8961   -0.1523 C.3     1  LIG1       -0.0308
     10 C          -3.5902   -1.7508    0.2846 C.2     1  LIG1       -0.0850
     11 C          -4.0639   -0.9542    1.2627 C.2     1  LIG1       -0.0796
     12 C          -3.2255   -0.0266    2.0988 C.3     1  LIG1       -0.0440
     13 C          -5.5349   -0.9213    1.5847 C.3     1  LIG1       -0.0440
     14 O           2.5142   -0.9333   -2.3942 O.2     1  LIG1       -0.2872
     15 C           2.6472    1.1293    0.5340 C.ar    1  LIG1       -0.0334
     16 C           3.4787    2.0810    1.1489 C.ar    1  LIG1        0.0597
     17 C           3.2227    2.5642    2.5285 C.2     1  LIG1        0.3368
     18 O           2.1402    1.9876    3.0796 O.3     1  LIG1       -0.4771
     19 O           3.8823    3.3859    3.1330 O.2     1  LIG1       -0.2451
     20 C           4.5789    2.6009    0.4561 C.ar    1  LIG1       -0.0443
     21 C           4.8642    2.1561   -0.8342 C.ar    1  LIG1       -0.0187
     22 H           3.8664    0.0197   -2.9342 H       1  LIG1        0.2922
     23 H           0.2511    0.3965   -0.3721 H       1  LIG1        0.0655
     24 H          -0.2180   -1.5173   -3.8191 H       1  LIG1        0.0274
     25 H          -0.9002   -2.8243   -2.8420 H       1  LIG1        0.0274
     26 H           0.8221   -2.5378   -2.7902 H       1  LIG1        0.0274
     27 H          -2.4859   -1.0856   -2.1450 H       1  LIG1        0.0313
     28 H          -2.0115    0.1067   -0.9598 H       1  LIG1        0.0313
     29 H          -1.4773   -1.7503    0.6945 H       1  LIG1        0.0310
     30 H          -2.0006   -2.9319   -0.4790 H       1  LIG1        0.0310
     31 H          -4.2927   -2.3760   -0.2666 H       1  LIG1        0.0572
     32 H          -2.1751   -0.0023    1.7984 H       1  LIG1        0.0274
     33 H          -3.2652   -0.3295    3.1501 H       1  LIG1        0.0274
     34 H          -3.6049    0.9978    2.0198 H       1  LIG1        0.0274
     35 H          -6.1135   -1.6074    0.9573 H       1  LIG1        0.0274
     36 H          -5.9335    0.0867    1.4289 H       1  LIG1        0.0274
     37 H          -5.7009   -1.2041    2.6292 H       1  LIG1        0.0274
     38 H           1.8155    0.7168    1.0952 H       1  LIG1        0.0634
     39 H           2.0926    2.3830    3.9760 H       1  LIG1        0.2954
     40 H           5.2243    3.3444    0.9211 H       1  LIG1        0.0627
     41 H           5.7271    2.5441   -1.3705 H       1  LIG1        0.0654
@<TRIPOS>BOND
     1     1     2    1
     2     2     3   ar
     3     3     4    1
     4     4     5    1
     5     5     6    2
     6     6     7    1
     7     6     8    1
     8     8     9    1
     9     9    10    1
    10    10    11    2
    11    11    12    1
    12    11    13    1
    13     4    14    2
    14     3    15   ar
    15    15    16   ar
    16    16    17    1
    17    17    18    1
    18    17    19    2
    19    16    20   ar
    20    20    21   ar
    21     2    21   ar
    22     1    22    1
    23     5    23    1
    24     7    24    1
    25     7    25    1
    26     7    26    1
    27     8    27    1
    28     8    28    1
    29     9    29    1
    30     9    30    1
    31    10    31    1
    32    12    32    1
    33    12    33    1
    34    12    34    1
    35    13    35    1
    36    13    36    1
    37    13    37    1
    38    15    38    1
    39    18    39    1
    40    20    40    1
    41    21    41    1
