REMARK  Name = NuBBE_2407
REMARK  6 active torsions:
REMARK  status: ('A' for Active; 'I' for Inactive)
REMARK    1  A    between atoms: C_1  and  O_2
REMARK    2  A    between atoms: O_2  and  C_3
REMARK    3  A    between atoms: C_3  and  C_5
REMARK    4  A    between atoms: C_10  and  C_12
REMARK    5  A    between atoms: C_12  and  C_14
REMARK    6  A    between atoms: C_12  and  O_15
REMARK                            x       y       z     vdW  Elec       q    Type
REMARK                         _______ _______ _______ _____ _____    ______ ____
ROOT
ATOM      1  C   LIG A   1      -0.782  -0.180  -0.819  0.00  0.00    +0.124 C 
ATOM      2  C   LIG A   1      -0.929  -0.690  -2.231  0.00  0.00    +0.030 C 
ATOM      3  C   LIG A   1      -0.240   0.443  -3.126  0.00  0.00    +0.005 C 
ATOM      4  C   LIG A   1       1.206  -0.029  -3.283  0.00  0.00    +0.012 C 
ATOM      5  C   LIG A   1       1.721  -0.244  -1.849  0.00  0.00    +0.036 C 
ATOM      6  C   LIG A   1       0.716   0.445  -0.846  0.00  0.00    +0.085 C 
ATOM      7  N   LIG A   1       0.585   1.849  -1.111  0.00  0.00    -0.297 NA
ATOM      8  C   LIG A   1      -0.065   2.466   0.091  0.00  0.00    +0.089 C 
ATOM      9  C   LIG A   1      -0.260   1.688   1.510  0.00  0.00    +0.053 C 
ATOM     10  C   LIG A   1      -0.472   0.146   1.616  0.00  0.00    -0.017 A 
ATOM     11  C   LIG A   1      -0.705  -0.729   0.551  0.00  0.00    +0.039 A 
ATOM     12  N   LIG A   1      -0.764  -2.009   0.996  0.00  0.00    -0.357 N 
ATOM     13  H   LIG A   1      -0.929  -2.835   0.437  0.00  0.00    +0.166 HD
ATOM     14  C   LIG A   1      -0.518  -2.016   2.354  0.00  0.00    +0.047 A 
ATOM     15  C   LIG A   1      -0.428  -3.098   3.239  0.00  0.00    +0.026 A 
ATOM     16  C   LIG A   1      -0.135  -2.822   4.577  0.00  0.00    +0.002 A 
ATOM     17  C   LIG A   1       0.055  -1.515   5.016  0.00  0.00    +0.001 A 
ATOM     18  C   LIG A   1      -0.045  -0.441   4.124  0.00  0.00    +0.010 A 
ATOM     19  C   LIG A   1      -0.338  -0.688   2.768  0.00  0.00    +0.003 A 
ATOM     20  C   LIG A   1      -0.125   1.906  -2.432  0.00  0.00    +0.088 C 
ENDROOT
BRANCH   1  21
ATOM     21  C   LIG A   1      -2.247   0.505  -0.701  0.00  0.00    +0.321 C 
ATOM     22  O   LIG A   1      -2.603   1.625  -1.047  0.00  0.00    -0.250 OA
BRANCH  21  24
ATOM     23  C   LIG A   1      -4.532  -0.080  -0.250  0.00  0.00    +0.280 C 
ATOM     24  O   LIG A   1      -3.153  -0.453  -0.291  0.00  0.00    -0.467 OA
ENDBRANCH  21  24
ENDBRANCH   1  21
BRANCH   5  25
ATOM     25  C   LIG A   1       3.192   0.220  -1.698  0.00  0.00    +0.116 C 
ATOM     26  C   LIG A   1       3.789  -0.050  -0.319  0.00  0.00    +0.038 C 
BRANCH  25  27
ATOM     27  O   LIG A   1       3.333   1.611  -1.975  0.00  0.00    -0.392 OA
ATOM     28  H   LIG A   1       2.592   2.063  -1.519  0.00  0.00    +0.210 HD
ENDBRANCH  25  27
ENDBRANCH   5  25
TORSDOF 4
