REMARK  Name = NuBBE_867
REMARK  12 active torsions:
REMARK  status: ('A' for Active; 'I' for Inactive)
REMARK    1  A    between atoms: C_1  and  C_2
REMARK    2  A    between atoms: C_2  and  O_3
REMARK    3  A    between atoms: O_3  and  C_4
REMARK    4  A    between atoms: C_6  and  O_7
REMARK    5  A    between atoms: O_7  and  C_8
REMARK    6  A    between atoms: C_8  and  C_9
REMARK    7  A    between atoms: C_14  and  C_22
REMARK    8  A    between atoms: C_15  and  O_18
REMARK    9  A    between atoms: O_18  and  C_19
REMARK   10  A    between atoms: C_19  and  C_20
REMARK   11  A    between atoms: C_25  and  O_29
REMARK   12  A    between atoms: C_26  and  O_27
REMARK                            x       y       z     vdW  Elec       q    Type
REMARK                         _______ _______ _______ _____ _____    ______ ____
ROOT
ATOM      1  C   LIG A   1       0.602  -0.893  -3.232  0.00  0.00    +0.139 A 
ATOM      2  C   LIG A   1       0.741  -2.194  -2.759  0.00  0.00    +0.093 A 
ATOM      3  C   LIG A   1       0.424  -2.474  -1.426  0.00  0.00    +0.142 A 
ATOM      4  C   LIG A   1      -0.063  -1.464  -0.568  0.00  0.00    +0.040 A 
ATOM      5  C   LIG A   1      -0.267  -0.182  -1.098  0.00  0.00    +0.132 A 
ATOM      6  O   LIG A   1      -0.751   0.883  -0.385  0.00  0.00    -0.480 OA
ATOM      7  C   LIG A   1      -1.315   0.568   0.900  0.00  0.00    +0.244 C 
ATOM      8  C   LIG A   1      -0.413  -0.400   1.688  0.00  0.00    +0.226 C 
ATOM      9  C   LIG A   1      -0.342  -1.716   0.895  0.00  0.00    +0.091 C 
ATOM     10  C   LIG A   1       0.093   0.110  -2.412  0.00  0.00    +0.092 A 
ENDROOT
BRANCH   7  11
ATOM     11  C   LIG A   1      -1.623   1.854   1.659  0.00  0.00    -0.000 A 
ATOM     12  C   LIG A   1      -0.895   3.036   1.425  0.00  0.00    +0.011 A 
ATOM     13  C   LIG A   1      -1.178   4.214   2.127  0.00  0.00    +0.049 A 
ATOM     14  C   LIG A   1      -2.191   4.213   3.075  0.00  0.00    +0.158 A 
ATOM     15  C   LIG A   1      -2.918   3.052   3.319  0.00  0.00    +0.159 A 
ATOM     16  C   LIG A   1      -2.649   1.879   2.622  0.00  0.00    +0.056 A 
BRANCH  15  17
ATOM     17  O   LIG A   1      -3.910   3.060   4.259  0.00  0.00    -0.503 OA
ATOM     18  H   LIG A   1      -3.894   3.969   4.621  0.00  0.00    +0.292 HD
ENDBRANCH  15  17
BRANCH  14  19
ATOM     19  O   LIG A   1      -2.510   5.331   3.796  0.00  0.00    -0.503 OA
ATOM     20  H   LIG A   1      -1.937   6.056   3.494  0.00  0.00    +0.292 HD
ENDBRANCH  14  19
ENDBRANCH   7  11
BRANCH   1  21
ATOM     21  O   LIG A   1       1.177  -0.594  -4.485  0.00  0.00    -0.426 OA
BRANCH  21  23
ATOM     22  C   LIG A   1       1.683   1.031  -6.112  0.00  0.00    +0.136 C 
ATOM     23  C   LIG A   1       0.610   0.402  -5.274  0.00  0.00    +0.309 C 
ATOM     24  O   LIG A   1      -0.557   0.775  -5.250  0.00  0.00    -0.251 OA
ENDBRANCH  21  23
ENDBRANCH   1  21
BRANCH   3  25
ATOM     25  O   LIG A   1       0.527  -3.788  -0.891  0.00  0.00    -0.425 OA
BRANCH  25  26
ATOM     26  C   LIG A   1       1.217  -4.845  -1.506  0.00  0.00    +0.309 C 
ATOM     27  C   LIG A   1       0.869  -6.127  -0.810  0.00  0.00    +0.136 C 
ATOM     28  O   LIG A   1       1.999  -4.774  -2.437  0.00  0.00    -0.251 OA
ENDBRANCH  25  26
ENDBRANCH   3  25
BRANCH   8  29
ATOM     29  O   LIG A   1       0.950   0.093   1.798  0.00  0.00    -0.457 OA
BRANCH  29  30
ATOM     30  C   LIG A   1       1.450   0.305   3.037  0.00  0.00    +0.304 C 
ATOM     31  C   LIG A   1       2.944   0.449   2.975  0.00  0.00    +0.136 C 
ATOM     32  O   LIG A   1       0.800   0.340   4.078  0.00  0.00    -0.251 OA
ENDBRANCH  29  30
ENDBRANCH   8  29
TORSDOF 9
