REMARK  Name = NuBBE_2089
REMARK  10 active torsions:
REMARK  status: ('A' for Active; 'I' for Inactive)
REMARK    1  A    between atoms: C_1  and  O_2
REMARK    2  A    between atoms: O_2  and  C_3
REMARK    3  A    between atoms: C_10  and  C_11
REMARK    4  A    between atoms: C_13  and  O_14
REMARK    5  A    between atoms: C_19  and  O_20
REMARK    6  A    between atoms: C_21  and  C_22
REMARK    7  A    between atoms: C_22  and  C_23
REMARK    8  A    between atoms: C_23  and  C_25
REMARK    9  A    between atoms: C_25  and  C_26
REMARK   10  A    between atoms: C_25  and  C_27
REMARK                            x       y       z     vdW  Elec       q    Type
REMARK                         _______ _______ _______ _____ _____    ______ ____
ROOT
ATOM      1  C   LIG A   1      -0.777   1.446   1.238  0.00  0.00    +0.128 A 
ATOM      2  C   LIG A   1      -1.264   0.158   1.482  0.00  0.00    +0.058 A 
ATOM      3  C   LIG A   1      -0.603  -0.966   0.963  0.00  0.00    +0.040 A 
ATOM      4  C   LIG A   1      -1.154  -2.306   1.228  0.00  0.00    +0.195 C 
ATOM      5  O   LIG A   1      -2.153  -2.433   1.933  0.00  0.00    -0.287 OA
ATOM      6  C   LIG A   1      -0.506  -3.492   0.637  0.00  0.00    +0.037 A 
ATOM      7  C   LIG A   1      -1.063  -4.758   0.886  0.00  0.00    +0.016 A 
ATOM      8  C   LIG A   1      -0.496  -5.907   0.329  0.00  0.00    -0.046 A 
ATOM      9  C   LIG A   1      -1.069  -7.267   0.604  0.00  0.00    +0.044 C 
ATOM     10  C   LIG A   1       0.620  -5.773  -0.502  0.00  0.00    +0.049 A 
ATOM     11  C   LIG A   1       1.176  -4.512  -0.747  0.00  0.00    +0.129 A 
ATOM     12  C   LIG A   1       0.630  -3.359  -0.162  0.00  0.00    +0.074 A 
ATOM     13  C   LIG A   1       1.225  -2.010  -0.352  0.00  0.00    +0.202 C 
ATOM     14  O   LIG A   1       2.284  -1.833  -0.951  0.00  0.00    -0.286 OA
ATOM     15  C   LIG A   1       0.554  -0.818   0.209  0.00  0.00    +0.075 A 
ATOM     16  C   LIG A   1       1.067   0.474  -0.004  0.00  0.00    +0.135 A 
ATOM     17  C   LIG A   1       0.411   1.612   0.500  0.00  0.00    +0.043 A 
ENDROOT
BRANCH   1  19
ATOM     18  C   LIG A   1      -2.589   2.466   2.415  0.00  0.00    +0.277 C 
ATOM     19  O   LIG A   1      -1.379   2.596   1.677  0.00  0.00    -0.495 OA
ENDBRANCH   1  19
BRANCH  11  20
ATOM     20  O   LIG A   1       2.257  -4.432  -1.578  0.00  0.00    -0.506 OA
ATOM     21  H   LIG A   1       2.483  -5.307  -1.930  0.00  0.00    +0.292 HD
ENDBRANCH  11  20
BRANCH  16  22
ATOM     22  O   LIG A   1       2.232   0.684  -0.702  0.00  0.00    -0.506 OA
ATOM     23  H   LIG A   1       2.582  -0.194  -0.986  0.00  0.00    +0.292 HD
ENDBRANCH  16  22
BRANCH  17  24
ATOM     24  C   LIG A   1       0.963   2.996   0.221  0.00  0.00    +0.117 C 
BRANCH  24  25
ATOM     25  C   LIG A   1       0.454   3.629  -1.068  0.00  0.00    +0.140 C 
ATOM     26  O   LIG A   1      -0.363   3.082  -1.812  0.00  0.00    -0.297 OA
BRANCH  25  27
ATOM     27  C   LIG A   1       0.991   5.031  -1.373  0.00  0.00    +0.049 C 
ATOM     28  C   LIG A   1       1.062   5.280  -2.878  0.00  0.00    +0.015 C 
ATOM     29  C   LIG A   1       0.120   6.080  -0.691  0.00  0.00    +0.015 C 
ENDBRANCH  25  27
ENDBRANCH  24  25
ENDBRANCH  17  24
TORSDOF 6
