@<TRIPOS>MOLECULE
NuBBE_2397
 43 44 0 0 0
SMALL
GASTEIGER

@<TRIPOS>ATOM
      1 C          -2.4746   -0.2187    1.2468 C.2     1  LIG1        0.1896
      2 O          -3.1424   -1.1159    1.7497 O.2     1  LIG1       -0.2872
      3 C          -3.1056    1.0136    0.7044 C.2     1  LIG1       -0.0137
      4 C          -4.4330    1.1870    0.7853 C.2     1  LIG1       -0.0510
      5 C          -5.0466    2.4220    0.3016 C.ar    1  LIG1       -0.0249
      6 C          -5.1875    3.5089    1.1713 C.ar    1  LIG1       -0.0546
      7 C          -5.7473    4.7041    0.7181 C.ar    1  LIG1       -0.0612
      8 C          -6.1647    4.8193   -0.6071 C.ar    1  LIG1       -0.0617
      9 C          -6.0198    3.7412   -1.4805 C.ar    1  LIG1       -0.0612
     10 C          -5.4600    2.5439   -1.0285 C.ar    1  LIG1       -0.0546
     11 C          -1.0041   -0.3945    1.0827 C.ar    1  LIG1        0.0632
     12 C          -0.0602    0.6395    1.1085 C.ar    1  LIG1        0.1311
     13 O          -0.4345    1.9253    1.3858 O.3     1  LIG1       -0.5059
     14 C           1.2951    0.3685    0.8845 C.ar    1  LIG1        0.0223
     15 C           1.7289   -0.9406    0.6581 C.ar    1  LIG1        0.1245
     16 C           0.7985   -1.9797    0.6775 C.ar    1  LIG1       -0.0190
     17 C          -0.5554   -1.7087    0.8916 C.ar    1  LIG1       -0.0440
     18 O           3.0759   -1.0797    0.4436 O.3     1  LIG1       -0.4878
     19 C           3.5295   -2.4103    0.1918 C.3     1  LIG1        0.1080
     20 C           5.0181   -2.3899    0.0119 C.2     1  LIG1       -0.0484
     21 C           5.7229   -2.7846   -1.0677 C.2     1  LIG1       -0.0765
     22 C           5.1254   -3.2643   -2.3625 C.3     1  LIG1       -0.0439
     23 C           7.2291   -2.7738   -1.0523 C.3     1  LIG1       -0.0439
     24 H          -2.4789    1.7631    0.2412 H       1  LIG1        0.0656
     25 H          -5.0918    0.4473    1.2318 H       1  LIG1        0.0625
     26 H          -4.8587    3.4296    2.2051 H       1  LIG1        0.0623
     27 H          -5.8559    5.5437    1.3993 H       1  LIG1        0.0618
     28 H          -6.6024    5.7498   -0.9591 H       1  LIG1        0.0618
     29 H          -6.3426    3.8333   -2.5142 H       1  LIG1        0.0618
     30 H          -5.3479    1.7114   -1.7188 H       1  LIG1        0.0623
     31 H           0.3531    2.4954    1.4080 H       1  LIG1        0.2922
     32 H           2.0319    1.1674    0.8879 H       1  LIG1        0.0691
     33 H           1.0829   -3.0163    0.5286 H       1  LIG1        0.0654
     34 H          -1.2645   -2.5355    0.9015 H       1  LIG1        0.0627
     35 H           3.0193   -2.8151   -0.6857 H       1  LIG1        0.0742
     36 H           3.3109   -3.0464    1.0580 H       1  LIG1        0.0742
     37 H           5.5586   -2.0502    0.8947 H       1  LIG1        0.0605
     38 H           4.0426   -3.1383   -2.4197 H       1  LIG1        0.0274
     39 H           5.3466   -4.3261   -2.5095 H       1  LIG1        0.0274
     40 H           5.5487   -2.7013   -3.2009 H       1  LIG1        0.0274
     41 H           7.6347   -2.4017   -0.1058 H       1  LIG1        0.0274
     42 H           7.6121   -2.1344   -1.8540 H       1  LIG1        0.0274
     43 H           7.6136   -3.7883   -1.2030 H       1  LIG1        0.0274
@<TRIPOS>BOND
     1     1     2    2
     2     1     3    1
     3     3     4    2
     4     4     5    1
     5     5     6   ar
     6     6     7   ar
     7     7     8   ar
     8     8     9   ar
     9     9    10   ar
    10     5    10   ar
    11     1    11    1
    12    11    12   ar
    13    12    13    1
    14    12    14   ar
    15    14    15   ar
    16    15    16   ar
    17    16    17   ar
    18    11    17   ar
    19    15    18    1
    20    18    19    1
    21    19    20    1
    22    20    21    2
    23    21    22    1
    24    21    23    1
    25     3    24    1
    26     4    25    1
    27     6    26    1
    28     7    27    1
    29     8    28    1
    30     9    29    1
    31    10    30    1
    32    13    31    1
    33    14    32    1
    34    16    33    1
    35    17    34    1
    36    19    35    1
    37    19    36    1
    38    20    37    1
    39    22    38    1
    40    22    39    1
    41    22    40    1
    42    23    41    1
    43    23    42    1
    44    23    43    1
