REMARK  Name = NuBBE_1762
REMARK  8 active torsions:
REMARK  status: ('A' for Active; 'I' for Inactive)
REMARK    1  A    between atoms: C_1  and  O_2
REMARK    2  A    between atoms: O_2  and  C_3
REMARK    3  A    between atoms: C_4  and  C_6
REMARK    4  A    between atoms: C_15  and  C_17
REMARK    5  A    between atoms: C_18  and  C_19
REMARK    6  A    between atoms: C_19  and  C_20
REMARK    7  A    between atoms: C_24  and  O_26
REMARK    8  A    between atoms: C_28  and  O_30
REMARK                            x       y       z     vdW  Elec       q    Type
REMARK                         _______ _______ _______ _____ _____    ______ ____
ROOT
ATOM      1  C   LIG A   1      -0.978  -0.808  -1.045  0.00  0.00    +0.135 C 
ATOM      2  C   LIG A   1       0.059   0.288  -0.612  0.00  0.00    +0.060 C 
ATOM      3  C   LIG A   1       1.047  -0.470   0.331  0.00  0.00    +0.006 C 
ATOM      4  C   LIG A   1       2.494  -0.319  -0.155  0.00  0.00    +0.009 C 
ATOM      5  C   LIG A   1       0.509  -1.942   0.472  0.00  0.00    +0.013 C 
ATOM      6  C   LIG A   1       1.082  -2.911  -0.580  0.00  0.00    +0.087 C 
ATOM      7  C   LIG A   1       0.797  -2.449  -1.990  0.00  0.00    +0.165 C 
ATOM      8  C   LIG A   1      -0.470  -1.636  -2.272  0.00  0.00    +0.215 C 
ATOM      9  O   LIG A   1       1.531  -2.797  -2.930  0.00  0.00    -0.294 OA
ATOM     10  C   LIG A   1      -0.995  -1.816   0.136  0.00  0.00    +0.157 C 
ENDROOT
BRANCH   2  11
ATOM     11  C   LIG A   1      -0.431   1.584   0.046  0.00  0.00    -0.037 A 
ATOM     12  C   LIG A   1      -1.138   1.590   1.271  0.00  0.00    +0.008 A 
ATOM     13  C   LIG A   1      -1.586   2.771   1.869  0.00  0.00    +0.050 A 
ATOM     14  C   LIG A   1      -1.299   3.954   1.237  0.00  0.00    +0.166 A 
ATOM     15  O   LIG A   1      -1.644   5.190   1.680  0.00  0.00    -0.453 OA
ATOM     16  C   LIG A   1      -1.081   6.012   0.639  0.00  0.00    +0.466 C 
ATOM     17  O   LIG A   1      -0.411   5.255  -0.393  0.00  0.00    -0.453 OA
ATOM     18  C   LIG A   1      -0.595   3.984   0.058  0.00  0.00    +0.167 A 
ATOM     19  C   LIG A   1      -0.146   2.828  -0.556  0.00  0.00    +0.053 A 
ENDBRANCH   2  11
BRANCH   1  21
ATOM     20  C   LIG A   1      -2.541   0.621  -2.248  0.00  0.00    +0.195 C 
ATOM     21  O   LIG A   1      -2.333  -0.356  -1.232  0.00  0.00    -0.370 OA
ENDBRANCH   1  21
BRANCH   8  22
ATOM     22  O   LIG A   1      -0.190  -0.814  -3.412  0.00  0.00    -0.381 OA
ATOM     23  H   LIG A   1       0.307  -1.384  -4.037  0.00  0.00    +0.210 HD
ENDBRANCH   8  22
BRANCH  10  24
ATOM     24  O   LIG A   1      -1.784  -1.383   1.230  0.00  0.00    -0.388 OA
ATOM     25  H   LIG A   1      -2.620  -1.056   0.837  0.00  0.00    +0.210 HD
ENDBRANCH  10  24
BRANCH   5  26
ATOM     26  C   LIG A   1       0.742  -2.490   1.909  0.00  0.00    +0.037 C 
BRANCH  26  27
ATOM     27  C   LIG A   1       2.185  -2.555   2.338  0.00  0.00    -0.034 C 
ATOM     28  C   LIG A   1       2.851  -3.676   2.638  0.00  0.00    +0.004 C 
ENDBRANCH  26  27
ENDBRANCH   5  26
TORSDOF 6
