REMARK  Name = NuBBE_2267
REMARK  4 active torsions:
REMARK  status: ('A' for Active; 'I' for Inactive)
REMARK    1  A    between atoms: C_2  and  C_15
REMARK    2  A    between atoms: C_9  and  C_14
REMARK    3  A    between atoms: C_12  and  C_13
REMARK    4  A    between atoms: C_15  and  C_17
REMARK                            x       y       z     vdW  Elec       q    Type
REMARK                         _______ _______ _______ _____ _____    ______ ____
ROOT
ATOM      1  C   LIG A   1       0.533  -0.920   0.255  0.00  0.00    +0.021 C 
ATOM      2  C   LIG A   1       1.713  -0.340  -0.022  0.00  0.00    +0.029 C 
ATOM      3  C   LIG A   1       1.710   1.099  -0.408  0.00  0.00    +0.233 C 
ATOM      4  O   LIG A   1       2.631   1.641  -1.002  0.00  0.00    -0.283 OA
ATOM      5  C   LIG A   1       0.481   1.897  -0.012  0.00  0.00    +0.234 C 
ATOM      6  O   LIG A   1       0.598   3.081   0.265  0.00  0.00    -0.283 OA
ATOM      7  C   LIG A   1      -0.815   1.175   0.047  0.00  0.00    +0.036 A 
ATOM      8  C   LIG A   1      -0.768  -0.232   0.170  0.00  0.00    -0.010 A 
ATOM      9  C   LIG A   1      -1.978  -0.958   0.238  0.00  0.00    -0.043 A 
ATOM     10  C   LIG A   1      -3.196  -0.266   0.195  0.00  0.00    +0.004 A 
ATOM     11  C   LIG A   1      -3.230   1.122   0.077  0.00  0.00    +0.004 A 
ATOM     12  C   LIG A   1      -2.046   1.863  -0.006  0.00  0.00    -0.039 A 
ATOM     13  C   LIG A   1      -2.145   3.359  -0.140  0.00  0.00    +0.044 C 
ATOM     14  C   LIG A   1      -2.020  -2.459   0.364  0.00  0.00    +0.044 C 
ENDROOT
BRANCH   2  15
ATOM     15  C   LIG A   1       2.964  -1.088   0.034  0.00  0.00    -0.047 C 
ATOM     16  C   LIG A   1       3.424  -1.597   1.189  0.00  0.00    +0.012 C 
ATOM     17  C   LIG A   1       3.694  -1.285  -1.266  0.00  0.00    +0.044 C 
ENDBRANCH   2  15
TORSDOF 1
