@<TRIPOS>MOLECULE
NuBBE_2044
 57 59 0 0 0
SMALL
GASTEIGER

@<TRIPOS>ATOM
      1 O          -0.7650    0.9433    0.4623 O.3     1  LIG1       -0.3668
      2 C          -1.5590    0.4097    1.5208 C.3     1  LIG1        0.0378
      3 C           0.5805    1.3720    0.8151 C.3     1  LIG1        0.1468
      4 C           1.2704    1.9577   -0.4467 C.3     1  LIG1        0.2086
      5 O           2.5610    2.5124   -0.1772 O.3     1  LIG1       -0.3618
      6 O           1.5223    0.8370   -1.2907 O.3     1  LIG1       -0.3372
      7 C           1.7336   -0.3092   -0.4265 C.3     1  LIG1        0.0929
      8 H           2.7825   -0.6042   -0.5539 H       1  LIG1        0.0651
      9 C           1.4437    0.1263    1.0403 C.3     1  LIG1        0.0245
     10 H           0.8946   -0.6555    1.5706 H       1  LIG1        0.0359
     11 C           2.7366    0.3114    1.8361 C.3     1  LIG1       -0.0566
     12 C           0.8853   -1.4826   -0.8899 C.ar    1  LIG1       -0.0113
     13 C           0.9450   -2.6983   -0.1997 C.ar    1  LIG1       -0.0104
     14 C           0.1488   -3.7831   -0.5824 C.ar    1  LIG1        0.1655
     15 O           0.1579   -4.9773    0.0998 O.3     1  LIG1       -0.4913
     16 C           0.4390   -4.9110    1.4949 C.3     1  LIG1        0.0790
     17 C          -0.6686   -3.6976   -1.7320 C.ar    1  LIG1        0.2035
     18 C          -0.7223   -2.4863   -2.4470 C.ar    1  LIG1        0.1655
     19 C           0.0411   -1.3944   -2.0055 C.ar    1  LIG1       -0.0104
     20 O          -1.5862   -2.3730   -3.5074 O.3     1  LIG1       -0.4913
     21 C          -1.2506   -1.4077   -4.5002 C.3     1  LIG1        0.0790
     22 O          -1.4050   -4.8281   -2.0058 O.3     1  LIG1       -0.4885
     23 C          -1.7315   -5.0892   -3.3647 C.3     1  LIG1        0.0791
     24 C           0.4063    3.0328   -1.0799 C.3     1  LIG1        0.0673
     25 C          -0.0095    4.0650   -0.0308 C.2     1  LIG1        0.1645
     26 O          -0.4199    5.1700   -0.3803 O.2     1  LIG1       -0.2922
     27 C           0.0820    3.7291    1.4313 C.2     1  LIG1       -0.0021
     28 C           0.4247    2.4711    1.8240 C.2     1  LIG1       -0.0403
     29 C          -0.2073    4.8171    2.4299 C.3     1  LIG1       -0.0066
     30 C          -1.6606    4.8831    2.8267 C.2     1  LIG1       -0.0867
     31 C          -2.1998    4.2393    3.8725 C.2     1  LIG1       -0.1023
     32 H          -1.8128    1.1814    2.2534 H       1  LIG1        0.0524
     33 H          -1.0715   -0.4270    2.0258 H       1  LIG1        0.0524
     34 H          -2.4927    0.0390    1.0897 H       1  LIG1        0.0524
     35 H           2.9223    2.7486   -1.0496 H       1  LIG1        0.2129
     36 H           3.4641    0.9597    1.3445 H       1  LIG1        0.0234
     37 H           3.2244   -0.6613    1.9710 H       1  LIG1        0.0234
     38 H           2.5304    0.7139    2.8321 H       1  LIG1        0.0234
     39 H           1.6175   -2.7856    0.6484 H       1  LIG1        0.0659
     40 H          -0.1413   -5.6955    1.9896 H       1  LIG1        0.0660
     41 H           0.1484   -3.9591    1.9541 H       1  LIG1        0.0660
     42 H           1.5012   -5.1100    1.6716 H       1  LIG1        0.0660
     43 H          -0.0335   -0.4385   -2.5141 H       1  LIG1        0.0659
     44 H          -1.9090   -1.5666   -5.3594 H       1  LIG1        0.0660
     45 H          -0.2171   -1.5335   -4.8412 H       1  LIG1        0.0660
     46 H          -1.4280   -0.3889   -4.1411 H       1  LIG1        0.0660
     47 H          -2.0853   -6.1237   -3.4271 H       1  LIG1        0.0660
     48 H          -0.8586   -4.9980   -4.0202 H       1  LIG1        0.0660
     49 H          -2.5606   -4.4628   -3.7044 H       1  LIG1        0.0660
     50 H          -0.4815    2.6120   -1.5578 H       1  LIG1        0.0399
     51 H           0.9866    3.5510   -1.8612 H       1  LIG1        0.0399
     52 H           0.4829    2.2253    2.8689 H       1  LIG1        0.0606
     53 H           0.4037    4.6636    3.3276 H       1  LIG1        0.0356
     54 H           0.1007    5.7955    2.0414 H       1  LIG1        0.0356
     55 H          -2.2935    5.5416    2.2333 H       1  LIG1        0.0570
     56 H          -1.6168    3.5735    4.5005 H       1  LIG1        0.0532
     57 H          -3.2501    4.3657    4.1205 H       1  LIG1        0.0532
@<TRIPOS>BOND
     1     1     2    1
     2     3     4    1
     3     4     6    1
     4     6     7    1
     5     7     9    1
     6     3     9    1
     7    12    13   ar
     8    13    14   ar
     9    14    15    1
    10    15    16    1
    11    14    17   ar
    12    17    18   ar
    13    18    19   ar
    14    12    19   ar
    15    18    20    1
    16    20    21    1
    17    17    22    1
    18    22    23    1
    19     4    24    1
    20    24    25    1
    21    25    27    1
    22    27    28    2
    23     3    28    1
    24    29    30    1
    25    30    31    2
    26     1     3    1
    27     4     5    1
    28     7     8    1
    29     7    12    1
    30    25    26    2
    31    27    29    1
    32     9    11    1
    33     9    10    1
    34     2    32    1
    35     2    33    1
    36     2    34    1
    37     5    35    1
    38    11    36    1
    39    11    37    1
    40    11    38    1
    41    13    39    1
    42    16    40    1
    43    16    41    1
    44    16    42    1
    45    19    43    1
    46    21    44    1
    47    21    45    1
    48    21    46    1
    49    23    47    1
    50    23    48    1
    51    23    49    1
    52    24    50    1
    53    24    51    1
    54    28    52    1
    55    29    53    1
    56    29    54    1
    57    30    55    1
    58    31    56    1
    59    31    57    1
