REMARK  Name = NuBBE_1912
REMARK  5 active torsions:
REMARK  status: ('A' for Active; 'I' for Inactive)
REMARK    1  A    between atoms: C_5  and  O_6
REMARK    2  A    between atoms: O_6  and  C_7
REMARK    3  A    between atoms: C_8  and  O_9
REMARK    4  A    between atoms: O_9  and  C_10
REMARK    5  A    between atoms: C_11  and  O_12
REMARK                            x       y       z     vdW  Elec       q    Type
REMARK                         _______ _______ _______ _____ _____    ______ ____
ROOT
ATOM      1  O   LIG A   1      -2.571  -1.329  -0.626  0.00  0.00    -0.286 OA
ATOM      2  C   LIG A   1      -1.383  -1.415  -0.365  0.00  0.00    +0.200 A 
ATOM      3  C   LIG A   1      -0.564  -0.222  -0.107  0.00  0.00    +0.072 A 
ATOM      4  C   LIG A   1      -1.166   1.043  -0.101  0.00  0.00    +0.065 A 
ATOM      5  C   LIG A   1      -0.425   2.181   0.235  0.00  0.00    +0.166 A 
ATOM      6  C   LIG A   1       0.934   2.037   0.558  0.00  0.00    +0.207 A 
ATOM      7  C   LIG A   1       1.515   0.753   0.554  0.00  0.00    +0.206 A 
ATOM      8  C   LIG A   1       0.781  -0.381   0.202  0.00  0.00    +0.184 A 
ATOM      9  O   LIG A   1       1.416  -1.601   0.207  0.00  0.00    -0.451 OA
ATOM     10  C   LIG A   1       0.664  -2.731  -0.013  0.00  0.00    +0.139 A 
ATOM     11  C   LIG A   1       1.332  -3.955   0.046  0.00  0.00    +0.047 A 
ATOM     12  C   LIG A   1       0.626  -5.149  -0.135  0.00  0.00    +0.004 A 
ATOM     13  C   LIG A   1      -0.750  -5.123  -0.373  0.00  0.00    +0.001 A 
ATOM     14  C   LIG A   1      -1.418  -3.902  -0.447  0.00  0.00    +0.015 A 
ATOM     15  C   LIG A   1      -0.703  -2.713  -0.275  0.00  0.00    +0.065 A 
ENDROOT
BRANCH   5  16
ATOM     16  O   LIG A   1      -1.000   3.415   0.378  0.00  0.00    -0.491 OA
ATOM     17  C   LIG A   1      -2.184   3.661  -0.374  0.00  0.00    +0.277 C 
ENDBRANCH   5  16
BRANCH   6  18
ATOM     18  O   LIG A   1       1.750   3.046   1.018  0.00  0.00    -0.488 OA
ATOM     19  C   LIG A   1       1.772   4.234   0.227  0.00  0.00    +0.277 C 
ENDBRANCH   6  18
BRANCH   7  20
ATOM     20  O   LIG A   1       2.824   0.610   0.948  0.00  0.00    -0.501 OA
ATOM     21  H   LIG A   1       3.082   1.479   1.313  0.00  0.00    +0.292 HD
ENDBRANCH   7  20
TORSDOF 3
