@<TRIPOS>MOLECULE
NuBBE_538
 52 53 0 0 0
SMALL
GASTEIGER

@<TRIPOS>ATOM
      1 O           2.8634    0.6192   -0.0084 O.3     1  LIG1       -0.3877
      2 C           2.3232   -0.2814   -0.9677 C.3     1  LIG1        0.0760
      3 H           1.7324    0.3113   -1.6742 H       1  LIG1        0.0638
      4 C           1.4298   -1.3115   -0.2660 C.3     1  LIG1        0.0030
      5 C           0.2921   -0.7283    0.5597 C.3     1  LIG1        0.0602
      6 H           0.6924   -0.1221    1.3802 H       1  LIG1        0.0595
      7 O          -0.4131   -1.8368    1.1323 O.3     1  LIG1       -0.3916
      8 C          -0.6870    0.0847   -0.2890 C.3     1  LIG1       -0.0004
      9 C          -1.8233    0.6386    0.5676 C.3     1  LIG1        0.0610
     10 H          -2.3224   -0.1928    1.0751 H       1  LIG1        0.0597
     11 O          -1.2626    1.4922    1.5738 O.3     1  LIG1       -0.3914
     12 C          -2.8373    1.4229   -0.2843 C.3     1  LIG1       -0.0084
     13 C          -4.0036    1.9961    0.4819 C.2     1  LIG1       -0.0821
     14 C          -4.5074    1.4940    1.6231 C.2     1  LIG1       -0.0475
     15 C          -5.6068    2.0845    2.4849 C.3     1  LIG1        0.1250
     16 H          -6.4550    1.3937    2.4238 H       1  LIG1        0.0782
     17 O          -6.0571    3.3364    1.9724 O.3     1  LIG1       -0.4538
     18 C          -5.3228    4.4570    2.2185 C.2     1  LIG1        0.3322
     19 C          -4.3701    4.4248    3.3356 C.2     1  LIG1        0.0187
     20 C          -4.3361    3.3954    4.1827 C.2     1  LIG1       -0.0735
     21 C          -5.1945    2.1922    3.9630 C.3     1  LIG1        0.0067
     22 O          -5.4386    5.4678    1.5406 O.2     1  LIG1       -0.2456
     23 C           3.4718   -0.8747   -1.7393 C.2     1  LIG1       -0.0553
     24 C           3.7087   -2.1913   -1.8638 C.2     1  LIG1       -0.0561
     25 C           4.7595   -2.8211   -2.6633 C.ar    1  LIG1       -0.0252
     26 C           4.4938   -4.0911   -3.1966 C.ar    1  LIG1       -0.0546
     27 C           5.4602   -4.7674   -3.9375 C.ar    1  LIG1       -0.0612
     28 C           6.7064   -4.1821   -4.1424 C.ar    1  LIG1       -0.0617
     29 C           6.9884   -2.9291   -3.5972 C.ar    1  LIG1       -0.0612
     30 C           6.0197   -2.2505   -2.8549 C.ar    1  LIG1       -0.0546
     31 H           3.4211    0.0967    0.5941 H       1  LIG1        0.2102
     32 H           2.0363   -1.9199    0.4193 H       1  LIG1        0.0318
     33 H           1.0058   -2.0076   -1.0026 H       1  LIG1        0.0318
     34 H           0.0152   -2.0369    1.9836 H       1  LIG1        0.2098
     35 H          -1.1064   -0.5478   -1.0814 H       1  LIG1        0.0315
     36 H          -0.1602    0.9204   -0.7615 H       1  LIG1        0.0315
     37 H          -0.8871    2.2706    1.1260 H       1  LIG1        0.2098
     38 H          -3.2276    0.7942   -1.0935 H       1  LIG1        0.0332
     39 H          -2.3158    2.2662   -0.7565 H       1  LIG1        0.0332
     40 H          -4.4204    2.9094    0.0590 H       1  LIG1        0.0571
     41 H          -4.0995    0.5657    2.0164 H       1  LIG1        0.0605
     42 H          -3.7536    5.3052    3.4607 H       1  LIG1        0.0686
     43 H          -3.6639    3.4094    5.0378 H       1  LIG1        0.0575
     44 H          -6.0876    2.3004    4.5900 H       1  LIG1        0.0346
     45 H          -4.6708    1.2886    4.2908 H       1  LIG1        0.0346
     46 H           4.0958   -0.1501   -2.2590 H       1  LIG1        0.0598
     47 H           3.0590   -2.9122   -1.3748 H       1  LIG1        0.0621
     48 H           3.5252   -4.5629   -3.0417 H       1  LIG1        0.0623
     49 H           5.2378   -5.7479   -4.3494 H       1  LIG1        0.0618
     50 H           7.4605   -4.7058   -4.7230 H       1  LIG1        0.0618
     51 H           7.9672   -2.4811   -3.7450 H       1  LIG1        0.0618
     52 H           6.2649   -1.2851   -2.4203 H       1  LIG1        0.0623
@<TRIPOS>BOND
     1     2     4    1
     2     5     7    1
     3     5     8    1
     4     8     9    1
     5     9    10    1
     6     9    11    1
     7     9    12    1
     8    12    13    1
     9    13    14    2
    10    14    15    1
    11    15    16    1
    12    15    17    1
    13    17    18    1
    14    18    19    1
    15    19    20    2
    16    20    21    1
    17    15    21    1
    18    18    22    2
    19     2    23    1
    20    23    24    2
    21    24    25    1
    22    25    26   ar
    23    26    27   ar
    24    27    28   ar
    25    28    29   ar
    26    29    30   ar
    27    25    30   ar
    28     2     3    1
    29     2     1    1
    30     5     6    1
    31     5     4    1
    32     1    31    1
    33     4    32    1
    34     4    33    1
    35     7    34    1
    36     8    35    1
    37     8    36    1
    38    11    37    1
    39    12    38    1
    40    12    39    1
    41    13    40    1
    42    14    41    1
    43    19    42    1
    44    20    43    1
    45    21    44    1
    46    21    45    1
    47    23    46    1
    48    24    47    1
    49    26    48    1
    50    27    49    1
    51    28    50    1
    52    29    51    1
    53    30    52    1
