@<TRIPOS>MOLECULE
NuBBE_1757
 51 55 0 0 0
SMALL
GASTEIGER

@<TRIPOS>ATOM
      1 C          -2.0415    0.3325   -1.0583 C.2     1  LIG1        0.3205
      2 O          -2.3746    1.1173   -1.9287 O.2     1  LIG1       -0.2497
      3 O          -2.9786   -0.2201   -0.1981 O.3     1  LIG1       -0.4672
      4 C          -4.2953    0.3137   -0.3420 C.3     1  LIG1        0.0817
      5 C          -0.5932   -0.3759   -0.7898 C.3     1  LIG1        0.1235
      6 C           0.9236    0.0750   -1.1615 C.3     1  LIG1        0.0344
      7 H           1.5120    0.4902   -0.3357 H       1  LIG1        0.0480
      8 N           0.7981    1.1031   -2.1587 N.3     1  LIG1       -0.2971
      9 C           0.0679    0.4535   -3.2884 C.3     1  LIG1        0.0021
     10 C          -0.0925   -1.1432   -3.0653 C.3     1  LIG1       -0.0265
     11 H          -0.5964   -1.5986   -3.9241 H       1  LIG1        0.0314
     12 C          -0.8087   -1.5596   -1.7023 C.3     1  LIG1       -0.0262
     13 C           1.3320   -1.6867   -2.9335 C.3     1  LIG1       -0.0447
     14 C           1.9118   -1.0375   -1.6709 C.3     1  LIG1       -0.0240
     15 H           2.8489   -0.5385   -1.9625 H       1  LIG1        0.0316
     16 C           2.3100   -2.0930   -0.6150 C.3     1  LIG1       -0.0516
     17 C           2.9141   -1.5161    0.6586 C.3     1  LIG1       -0.0650
     18 C           0.2143    2.3031   -1.4795 C.3     1  LIG1        0.0033
     19 C           0.1295    2.4289    0.1430 C.3     1  LIG1       -0.0126
     20 C          -0.2115    1.2169    1.0710 C.ar    1  LIG1       -0.0168
     21 C          -0.5173   -0.0836    0.6553 C.ar    1  LIG1        0.0388
     22 N          -0.6823   -0.8964    1.7288 N.ar    1  LIG1       -0.3568
     23 H          -0.9229   -1.8783    1.7091 H       1  LIG1        0.1656
     24 C          -0.4087   -0.1767    2.8741 C.ar    1  LIG1        0.0470
     25 C          -0.1240    1.1437    2.4958 C.ar    1  LIG1        0.0032
     26 C           0.2133    2.0721    3.5003 C.ar    1  LIG1       -0.0523
     27 C           0.2619    1.6567    4.8359 C.ar    1  LIG1       -0.0611
     28 C          -0.0260    0.3388    5.1814 C.ar    1  LIG1       -0.0598
     29 C          -0.3726   -0.6020    4.2078 C.ar    1  LIG1       -0.0378
     30 H          -4.9446   -0.1884    0.3804 H       1  LIG1        0.0661
     31 H          -4.6794    0.1160   -1.3473 H       1  LIG1        0.0661
     32 H          -4.3019    1.3869   -0.1259 H       1  LIG1        0.0661
     33 H           0.6762    0.6032   -4.1899 H       1  LIG1        0.0429
     34 H          -0.8916    0.9126   -3.5247 H       1  LIG1        0.0429
     35 H          -0.4220   -2.4970   -1.2926 H       1  LIG1        0.0283
     36 H          -1.8601   -1.7749   -1.9326 H       1  LIG1        0.0283
     37 H           1.9291   -1.4126   -3.8118 H       1  LIG1        0.0271
     38 H           1.3365   -2.7812   -2.8781 H       1  LIG1        0.0271
     39 H           1.4607   -2.7245   -0.3397 H       1  LIG1        0.0266
     40 H           3.0552   -2.7614   -1.0654 H       1  LIG1        0.0266
     41 H           2.1687   -0.9888    1.2567 H       1  LIG1        0.0230
     42 H           3.7293   -0.8218    0.4358 H       1  LIG1        0.0230
     43 H           3.3111   -2.3222    1.2839 H       1  LIG1        0.0230
     44 H          -0.7497    2.5854   -1.9057 H       1  LIG1        0.0430
     45 H           0.8583    3.1392   -1.7870 H       1  LIG1        0.0430
     46 H          -0.5994    3.2187    0.3655 H       1  LIG1        0.0326
     47 H           1.1094    2.7974    0.4764 H       1  LIG1        0.0326
     48 H           0.4509    3.0992    3.2408 H       1  LIG1        0.0624
     49 H           0.5353    2.3705    5.6088 H       1  LIG1        0.0618
     50 H           0.0252    0.0339    6.2241 H       1  LIG1        0.0618
     51 H          -0.5881   -1.6297    4.4813 H       1  LIG1        0.0638
@<TRIPOS>BOND
     1     1     2    2
     2     1     3    1
     3     3     4    1
     4     5     6    1
     5     6     8    1
     6     8     9    1
     7     9    10    1
     8    10    12    1
     9     5    12    1
    10    10    13    1
    11    13    14    1
    12     6    14    1
    13    16    17    1
    14     8    18    1
    15    18    19    1
    16    19    20    1
    17    20    21   ar
    18     5    21    1
    19    21    22   ar
    20    22    24   ar
    21    24    25   ar
    22    20    25   ar
    23    25    26   ar
    24    26    27   ar
    25    27    28   ar
    26    28    29   ar
    27    24    29   ar
    28     1     5    1
    29     6     7    1
    30    10    11    1
    31    14    15    1
    32    14    16    1
    33    22    23    1
    34     4    30    1
    35     4    31    1
    36     4    32    1
    37     9    33    1
    38     9    34    1
    39    12    35    1
    40    12    36    1
    41    13    37    1
    42    13    38    1
    43    16    39    1
    44    16    40    1
    45    17    41    1
    46    17    42    1
    47    17    43    1
    48    18    44    1
    49    18    45    1
    50    19    46    1
    51    19    47    1
    52    26    48    1
    53    27    49    1
    54    28    50    1
    55    29    51    1
