@<TRIPOS>MOLECULE
NuBBE_1663
 45 47 0 0 0
SMALL
GASTEIGER

@<TRIPOS>ATOM
      1 O          -1.0066   -2.7334    0.4130 O.3     1  LIG1       -0.4944
      2 C          -1.0375   -3.7272    1.4362 C.3     1  LIG1        0.0788
      3 C           0.1912   -2.5913   -0.2439 C.ar    1  LIG1        0.1317
      4 C           0.4863   -1.3157   -0.7541 C.ar    1  LIG1        0.0341
      5 C           1.6931   -1.1239   -1.4413 C.ar    1  LIG1       -0.0049
      6 C           2.6190   -2.1604   -1.6061 C.ar    1  LIG1        0.1623
      7 C           2.3178   -3.4402   -1.1160 C.ar    1  LIG1        0.1650
      8 C           1.0885   -3.6517   -0.4657 C.ar    1  LIG1        0.0260
      9 O           3.1119   -4.5613   -1.2355 O.3     1  LIG1       -0.4913
     10 C           4.5174   -4.3387   -1.3812 C.3     1  LIG1        0.0790
     11 O           3.8102   -1.9898   -2.2498 O.3     1  LIG1       -0.4914
     12 C           4.1722   -0.6949   -2.6885 C.3     1  LIG1        0.0790
     13 C          -0.4135   -0.1556   -0.6102 C.ar    1  LIG1        0.0680
     14 C          -0.3199    0.7674    0.5553 C.ar    1  LIG1        0.2039
     15 O           0.5732    0.7185    1.3748 O.2     1  LIG1       -0.2863
     16 C          -1.3746    1.8045    0.6603 C.ar    1  LIG1        0.1097
     17 C          -2.2005    2.0174   -0.4330 C.ar    1  LIG1        0.1456
     18 O          -2.1383    1.2556   -1.5736 O.2     1  LIG1       -0.4618
     19 C          -1.2963    0.1633   -1.5638 C.ar    1  LIG1        0.1040
     20 C          -3.1474    3.0413   -0.4045 C.ar    1  LIG1        0.0267
     21 C          -3.2838    3.8353    0.7402 C.ar    1  LIG1        0.1657
     22 C          -2.5023    3.5949    1.8813 C.ar    1  LIG1        0.2040
     23 C          -1.5334    2.5713    1.8220 C.ar    1  LIG1        0.1768
     24 O          -0.7575    2.3469    2.9369 O.3     1  LIG1       -0.5027
     25 O          -2.5493    4.2664    3.0754 O.3     1  LIG1       -0.4885
     26 C          -3.4110    5.3856    3.1955 C.3     1  LIG1        0.0791
     27 O          -4.2036    4.8479    0.6971 O.3     1  LIG1       -0.5031
     28 H          -0.2079   -3.6044    2.1416 H       1  LIG1        0.0660
     29 H          -1.0456   -4.7356    1.0112 H       1  LIG1        0.0660
     30 H          -1.9710   -3.6026    1.9946 H       1  LIG1        0.0660
     31 H           1.9001   -0.1369   -1.8408 H       1  LIG1        0.0663
     32 H           0.8492   -4.6605   -0.1403 H       1  LIG1        0.0692
     33 H           5.0392   -5.2974   -1.3102 H       1  LIG1        0.0660
     34 H           4.8954   -3.6908   -0.5814 H       1  LIG1        0.0660
     35 H           4.7713   -3.9510   -2.3732 H       1  LIG1        0.0660
     36 H           4.1137    0.0355   -1.8762 H       1  LIG1        0.0660
     37 H           3.5516   -0.4089   -3.5416 H       1  LIG1        0.0660
     38 H           5.2134   -0.7379   -3.0194 H       1  LIG1        0.0660
     39 H          -1.4433   -0.4128   -2.4706 H       1  LIG1        0.1037
     40 H          -3.7813    3.2049   -1.2713 H       1  LIG1        0.0692
     41 H          -0.0499    1.7070    2.7019 H       1  LIG1        0.2923
     42 H          -3.2323    5.8414    4.1743 H       1  LIG1        0.0660
     43 H          -4.4610    5.0777    3.1650 H       1  LIG1        0.0660
     44 H          -3.1814    6.1484    2.4450 H       1  LIG1        0.0660
     45 H          -4.3656    5.0917   -0.2295 H       1  LIG1        0.2923
@<TRIPOS>BOND
     1     1     2    1
     2     1     3    1
     3     3     4   ar
     4     4     5   ar
     5     5     6   ar
     6     6     7   ar
     7     7     8   ar
     8     3     8   ar
     9     7     9    1
    10     9    10    1
    11     6    11    1
    12    11    12    1
    13     4    13    1
    14    13    14   ar
    15    14    15    2
    16    14    16   ar
    17    16    17   ar
    18    17    18   ar
    19    18    19   ar
    20    13    19   ar
    21    17    20   ar
    22    20    21   ar
    23    21    22   ar
    24    22    23   ar
    25    16    23   ar
    26    23    24    1
    27    22    25    1
    28    25    26    1
    29    21    27    1
    30     2    28    1
    31     2    29    1
    32     2    30    1
    33     5    31    1
    34     8    32    1
    35    10    33    1
    36    10    34    1
    37    10    35    1
    38    12    36    1
    39    12    37    1
    40    12    38    1
    41    19    39    1
    42    20    40    1
    43    24    41    1
    44    26    42    1
    45    26    43    1
    46    26    44    1
    47    27    45    1
