@<TRIPOS>MOLECULE
NuBBE_1895
 49 51 0 0 0
SMALL
GASTEIGER

@<TRIPOS>ATOM
      1 C          -3.4021   -3.4696    0.9798 C.3     1  LIG1        0.0790
      2 O          -2.5549   -2.4641    0.4400 O.3     1  LIG1       -0.4910
      3 C          -2.0191   -1.3136    0.9807 C.ar    1  LIG1        0.1691
      4 C          -0.7319   -1.0823    0.3890 C.ar    1  LIG1        0.0120
      5 C          -0.0230   -2.1536   -0.4937 C.3     1  LIG1        0.0847
      6 C           0.2851   -1.7196   -1.9216 C.2     1  LIG1        0.1775
      7 C           1.5000   -0.8718   -2.0398 C.ar    1  LIG1        0.0634
      8 C           1.5118    0.1603   -2.9749 C.ar    1  LIG1       -0.0023
      9 C           2.4163    1.2240   -2.7921 C.ar    1  LIG1        0.1624
     10 O           2.2141    2.2777   -3.6517 O.3     1  LIG1       -0.4914
     11 C           3.3649    3.0728   -3.9152 C.3     1  LIG1        0.0790
     12 C           3.3243    1.1863   -1.7174 C.ar    1  LIG1        0.1650
     13 O           4.0880    2.2854   -1.4234 O.3     1  LIG1       -0.4913
     14 C           4.4205    2.4871   -0.0495 C.3     1  LIG1        0.0790
     15 C           3.4110    0.0360   -0.9325 C.ar    1  LIG1        0.0261
     16 C           2.4519   -0.9557   -1.0420 C.ar    1  LIG1        0.1347
     17 O           2.4209   -1.8168    0.0201 O.3     1  LIG1       -0.4901
     18 C           1.3098   -2.7149    0.0468 C.3     1  LIG1        0.1036
     19 O          -0.3632   -2.0057   -2.8731 O.2     1  LIG1       -0.2912
     20 C          -0.1281    0.1679    0.6149 C.ar    1  LIG1       -0.0506
     21 C          -0.7274    1.1701    1.3716 C.ar    1  LIG1       -0.0158
     22 C          -1.9388    0.9663    2.0125 C.ar    1  LIG1        0.1652
     23 O          -2.3750    2.1308    2.5956 O.3     1  LIG1       -0.4913
     24 C          -3.1808    2.1729    3.7635 C.3     1  LIG1        0.0790
     25 C          -2.6018   -0.2745    1.8324 C.ar    1  LIG1        0.2038
     26 O          -3.8274   -0.2709    2.4645 O.3     1  LIG1       -0.4885
     27 C          -4.7955   -0.9103    1.6825 C.3     1  LIG1        0.0791
     28 H          -3.2106   -3.6719    2.0362 H       1  LIG1        0.0660
     29 H          -3.2646   -4.4056    0.4208 H       1  LIG1        0.0660
     30 H          -4.4546   -3.2625    0.7547 H       1  LIG1        0.0660
     31 H          -0.6603   -3.0327   -0.5996 H       1  LIG1        0.0464
     32 H           0.7574    0.2019   -3.7552 H       1  LIG1        0.0663
     33 H           4.1941    2.4449   -4.2574 H       1  LIG1        0.0660
     34 H           3.6453    3.6823   -3.0537 H       1  LIG1        0.0660
     35 H           3.1209    3.7866   -4.7063 H       1  LIG1        0.0660
     36 H           5.1308    3.3155    0.0044 H       1  LIG1        0.0660
     37 H           4.9350    1.6295    0.3876 H       1  LIG1        0.0660
     38 H           3.5325    2.7464    0.5388 H       1  LIG1        0.0660
     39 H           4.1396   -0.0642   -0.1402 H       1  LIG1        0.0692
     40 H           1.1959   -3.0536    1.0809 H       1  LIG1        0.0707
     41 H           1.6168   -3.5900   -0.5434 H       1  LIG1        0.0707
     42 H           0.8275    0.4376    0.1920 H       1  LIG1        0.0623
     43 H          -0.2402    2.1405    1.4543 H       1  LIG1        0.0655
     44 H          -3.1232    1.2800    4.3881 H       1  LIG1        0.0660
     45 H          -4.2158    2.4148    3.4994 H       1  LIG1        0.0660
     46 H          -2.8189    3.0167    4.3700 H       1  LIG1        0.0660
     47 H          -5.8226   -0.7864    2.0307 H       1  LIG1        0.0660
     48 H          -4.6160   -1.9389    1.8984 H       1  LIG1        0.0660
     49 H          -4.7181   -0.6051    0.6326 H       1  LIG1        0.0660
@<TRIPOS>BOND
     1     1     2    1
     2     2     3    1
     3     3     4   ar
     4     4     5    1
     5     5     6    1
     6     6     7    1
     7     7     8   ar
     8     8     9   ar
     9     9    10    1
    10    10    11    1
    11     9    12   ar
    12    12    13    1
    13    13    14    1
    14    12    15   ar
    15    15    16   ar
    16     7    16   ar
    17    16    17    1
    18    17    18    1
    19     5    18    1
    20     6    19    2
    21     4    20   ar
    22    20    21   ar
    23    21    22   ar
    24    22    23    1
    25    23    24    1
    26    22    25   ar
    27     3    25   ar
    28    25    26    1
    29    26    27    1
    30     1    28    1
    31     1    29    1
    32     1    30    1
    33     5    31    1
    34     8    32    1
    35    11    33    1
    36    11    34    1
    37    11    35    1
    38    14    36    1
    39    14    37    1
    40    14    38    1
    41    15    39    1
    42    18    40    1
    43    18    41    1
    44    20    42    1
    45    21    43    1
    46    24    44    1
    47    24    45    1
    48    24    46    1
    49    27    47    1
    50    27    48    1
    51    27    49    1
