@<TRIPOS>MOLECULE
NuBBE_1201
 15 15 0 0 0
SMALL
GASTEIGER

@<TRIPOS>ATOM
      1 O          -1.1297   -0.8683   -2.6207 O.3     1  LIG1       -0.3873
      2 C          -0.5141   -1.4031   -1.4556 C.3     1  LIG1        0.1019
      3 C          -0.2176   -0.2824   -0.5338 C.ar    1  LIG1        0.1311
      4 C          -0.4115    1.0829   -0.5872 C.ar    1  LIG1       -0.0177
      5 C           0.0929    1.6106    0.6241 C.ar    1  LIG1       -0.0129
      6 C           0.5679    0.5388    1.3515 C.ar    1  LIG1        0.1672
      7 C           1.1857    0.4609    2.6470 C.2     1  LIG1        0.1851
      8 O           1.4165    1.4203    3.3799 O.2     1  LIG1       -0.2924
      9 O           0.3808   -0.6183    0.6480 O.2     1  LIG1       -0.4548
     10 H          -1.2822   -1.6173   -3.2202 H       1  LIG1        0.2100
     11 H           0.4069   -1.9168   -1.7467 H       1  LIG1        0.0638
     12 H          -1.1999   -2.1162   -0.9888 H       1  LIG1        0.0638
     13 H          -0.8654    1.6213   -1.4085 H       1  LIG1        0.0653
     14 H           0.1118    2.6453    0.9395 H       1  LIG1        0.0656
     15 H           1.4579   -0.5577    2.9713 H       1  LIG1        0.1114
@<TRIPOS>BOND
     1     1     2    1
     2     2     3    1
     3     3     4   ar
     4     4     5   ar
     5     5     6   ar
     6     6     7    1
     7     7     8    2
     8     6     9   ar
     9     3     9   ar
    10     1    10    1
    11     2    11    1
    12     2    12    1
    13     4    13    1
    14     5    14    1
    15     7    15    1
