@<TRIPOS>MOLECULE
NuBBE_2351
 52 55 0 0 0
SMALL
GASTEIGER

@<TRIPOS>ATOM
      1 C          -0.6774    0.8799   -1.3981 C.3     1  LIG1       -0.0590
      2 C           0.0754    0.8671   -0.0411 C.3     1  LIG1       -0.0251
      3 C          -0.9551    0.8687    1.1270 C.3     1  LIG1       -0.0302
      4 H          -0.3661    0.7493    2.0517 H       1  LIG1        0.0311
      5 C          -1.8338   -0.4023    1.0491 C.3     1  LIG1       -0.0484
      6 C          -1.0915   -1.7452    0.7657 C.3     1  LIG1       -0.0433
      7 C           0.2132   -1.7818   -0.0849 C.3     1  LIG1       -0.0071
      8 C           0.9698   -3.1115    0.2569 C.2     1  LIG1       -0.0783
      9 C           1.6384   -3.5974   -0.8265 C.2     1  LIG1       -0.0729
     10 C           2.3957   -4.8335   -1.1056 C.3     1  LIG1       -0.0435
     11 C           1.0047   -0.4460    0.0849 C.3     1  LIG1       -0.0262
     12 C           2.2117   -0.3119   -0.8902 C.3     1  LIG1       -0.0484
     13 C           2.7082   -1.5836   -1.5502 C.3     1  LIG1       -0.0462
     14 C           1.5686   -2.5669   -1.8950 C.3     1  LIG1       -0.0193
     15 H           1.6636   -2.9722   -2.9084 H       1  LIG1        0.0346
     16 C           0.1423   -2.0707   -1.6031 C.3     1  LIG1       -0.0371
     17 C          -1.7195    2.2646    1.3265 C.3     1  LIG1       -0.0315
     18 C          -2.6803    2.7268    0.2026 C.3     1  LIG1       -0.0595
     19 C          -2.5938    2.2507    2.6008 C.3     1  LIG1       -0.0595
     20 C          -0.6412    3.3643    1.5159 C.3     1  LIG1       -0.0476
     21 C           0.3289    3.4470    0.3474 C.3     1  LIG1       -0.0521
     22 C           0.9997    2.1153    0.0596 C.3     1  LIG1       -0.0471
     23 H          -1.3955    0.0573   -1.4785 H       1  LIG1        0.0235
     24 H           0.0018    0.8320   -2.2511 H       1  LIG1        0.0235
     25 H          -1.2598    1.7709   -1.5811 H       1  LIG1        0.0235
     26 H          -2.6322   -0.2752    0.3126 H       1  LIG1        0.0269
     27 H          -2.3495   -0.5223    2.0131 H       1  LIG1        0.0269
     28 H          -1.8171   -2.4681    0.3727 H       1  LIG1        0.0274
     29 H          -0.8288   -2.1282    1.7661 H       1  LIG1        0.0274
     30 H           0.8873   -3.6401    1.1854 H       1  LIG1        0.0577
     31 H           2.2810   -5.6006   -0.3372 H       1  LIG1        0.0274
     32 H           3.4675   -4.6112   -1.2289 H       1  LIG1        0.0274
     33 H           2.0573   -5.2680   -2.0625 H       1  LIG1        0.0274
     34 H           1.4202   -0.4570    1.1048 H       1  LIG1        0.0314
     35 H           3.0428    0.1764   -0.3637 H       1  LIG1        0.0269
     36 H           1.9630    0.3545   -1.7194 H       1  LIG1        0.0269
     37 H           3.4557   -2.0399   -0.8841 H       1  LIG1        0.0271
     38 H           3.2677   -1.3222   -2.4548 H       1  LIG1        0.0271
     39 H          -0.6026   -2.8494   -1.8267 H       1  LIG1        0.0279
     40 H          -0.0780   -1.2476   -2.2694 H       1  LIG1        0.0279
     41 H          -3.3738    1.9387   -0.0996 H       1  LIG1        0.0235
     42 H          -2.1761    3.1155   -0.6816 H       1  LIG1        0.0235
     43 H          -3.2811    3.5847    0.5341 H       1  LIG1        0.0235
     44 H          -3.4233    1.5426    2.5076 H       1  LIG1        0.0235
     45 H          -3.0413    3.2405    2.7720 H       1  LIG1        0.0235
     46 H          -2.0138    2.0027    3.4933 H       1  LIG1        0.0235
     47 H          -0.0700    3.1659    2.4328 H       1  LIG1        0.0271
     48 H          -1.1086    4.3478    1.6541 H       1  LIG1        0.0271
     49 H           1.1077    4.1845    0.5789 H       1  LIG1        0.0266
     50 H          -0.1679    3.8188   -0.5543 H       1  LIG1        0.0266
     51 H           1.7403    1.9418    0.8508 H       1  LIG1        0.0271
     52 H           1.5657    2.2445   -0.8703 H       1  LIG1        0.0271
@<TRIPOS>BOND
     1     1     2    1
     2     2     3    1
     3     3     4    1
     4     3     5    1
     5     5     6    1
     6     6     7    1
     7     7     8    1
     8     8     9    2
     9     9    10    1
    10     7    11    1
    11     2    11    1
    12    11    12    1
    13    12    13    1
    14    13    14    1
    15    14    15    1
    16     9    14    1
    17    14    16    1
    18     7    16    1
    19     3    17    1
    20    17    18    1
    21    17    19    1
    22    17    20    1
    23    20    21    1
    24    21    22    1
    25     2    22    1
    26     1    23    1
    27     1    24    1
    28     1    25    1
    29     5    26    1
    30     5    27    1
    31     6    28    1
    32     6    29    1
    33     8    30    1
    34    10    31    1
    35    10    32    1
    36    10    33    1
    37    11    34    1
    38    12    35    1
    39    12    36    1
    40    13    37    1
    41    13    38    1
    42    16    39    1
    43    16    40    1
    44    18    41    1
    45    18    42    1
    46    18    43    1
    47    19    44    1
    48    19    45    1
    49    19    46    1
    50    20    47    1
    51    20    48    1
    52    21    49    1
    53    21    50    1
    54    22    51    1
    55    22    52    1
