REMARK  Name = NuBBE_2295
REMARK  6 active torsions:
REMARK  status: ('A' for Active; 'I' for Inactive)
REMARK    1  A    between atoms: C_2  and  O_3
REMARK    2  A    between atoms: C_2  and  C_5
REMARK    3  A    between atoms: O_3  and  C_4
REMARK    4  A    between atoms: C_5  and  C_6
REMARK    5  A    between atoms: C_13  and  C_15
REMARK    6  A    between atoms: C_24  and  C_25
REMARK                            x       y       z     vdW  Elec       q    Type
REMARK                         _______ _______ _______ _____ _____    ______ ____
ROOT
ATOM      1  C   LIG A   1      -2.062  -1.854  -0.309  0.00  0.00    +0.068 C 
ATOM      2  C   LIG A   1      -3.236  -1.504   0.647  0.00  0.00    +0.023 C 
ATOM      3  C   LIG A   1      -1.009  -0.670  -0.535  0.00  0.00    +0.012 C 
ATOM      4  C   LIG A   1      -1.577   0.668  -0.018  0.00  0.00    +0.005 C 
ATOM      5  C   LIG A   1      -0.661   1.847  -0.265  0.00  0.00    +0.005 C 
ATOM      6  C   LIG A   1       0.655   1.683   0.493  0.00  0.00    +0.000 C 
ATOM      7  C   LIG A   1       1.554   2.964   0.258  0.00  0.00    +0.023 C 
ATOM      8  C   LIG A   1       1.009   4.183   1.011  0.00  0.00    +0.013 C 
ATOM      9  C   LIG A   1       2.980   2.691   0.619  0.00  0.00    -0.003 A 
ATOM     10  C   LIG A   1       3.450   1.421   0.844  0.00  0.00    +0.109 A 
ATOM     11  O   LIG A   1       4.770   1.418   1.137  0.00  0.00    -0.468 OA
ATOM     12  C   LIG A   1       5.168   2.718   1.080  0.00  0.00    +0.195 A 
ATOM     13  C   LIG A   1       4.108   3.538   0.756  0.00  0.00    +0.045 A 
ATOM     14  C   LIG A   1       2.693   0.154   0.824  0.00  0.00    +0.079 C 
ATOM     15  C   LIG A   1       1.358   0.360   0.035  0.00  0.00    +0.006 C 
ATOM     16  C   LIG A   1       0.448  -0.951  -0.000  0.00  0.00    -0.025 C 
ATOM     17  C   LIG A   1       1.192  -1.916  -0.972  0.00  0.00    +0.012 C 
ATOM     18  C   LIG A   1       0.315  -1.608   1.393  0.00  0.00    +0.007 C 
ATOM     19  C   LIG A   1      -0.485  -2.911   1.435  0.00  0.00    +0.002 C 
ATOM     20  C   LIG A   1      -1.431  -3.142   0.266  0.00  0.00    +0.018 C 
ENDROOT
BRANCH   1  22
ATOM     21  O   LIG A   1      -2.192  -3.062  -2.440  0.00  0.00    -0.250 OA
ATOM     22  C   LIG A   1      -2.636  -2.198  -1.700  0.00  0.00    +0.313 C 
BRANCH  22  23
ATOM     23  O   LIG A   1      -3.640  -1.340  -2.040  0.00  0.00    -0.468 OA
ATOM     24  C   LIG A   1      -4.151  -1.495  -3.365  0.00  0.00    +0.280 C 
ENDBRANCH  22  23
ENDBRANCH   1  22
TORSDOF 2
