@<TRIPOS>MOLECULE
NuBBE_2402
 34 38 0 0 0
SMALL
GASTEIGER

@<TRIPOS>ATOM
      1 O          -5.5557    0.6245    0.0648 O.3     1  LIG1       -0.4950
      2 C          -6.2048    1.8888    0.0186 C.3     1  LIG1        0.0788
      3 C          -4.1873    0.6288    0.0514 C.ar    1  LIG1        0.1236
      4 C          -3.6015   -0.6420    0.0640 C.ar    1  LIG1        0.0225
      5 C          -2.2142   -0.7826    0.0480 C.ar    1  LIG1        0.1351
      6 C          -1.4039    0.3650    0.0258 C.ar    1  LIG1        0.0595
      7 C          -1.9791    1.6342    0.0166 C.ar    1  LIG1       -0.0441
      8 C          -3.3721    1.7647    0.0287 C.ar    1  LIG1       -0.0191
      9 C           0.0065    0.1174    0.0131 C.ar    1  LIG1        0.1461
     10 C           0.5673   -1.1280   -0.0033 C.ar    1  LIG1        0.0433
     11 C          -0.2993   -2.3253   -0.0157 C.3     1  LIG1        0.1187
     12 O          -1.7343   -2.0756    0.0653 O.3     1  LIG1       -0.4864
     13 C           1.9692   -0.9258   -0.0127 C.ar    1  LIG1        0.0309
     14 C           2.1412    0.4694    0.0006 C.ar    1  LIG1        0.1398
     15 O           0.9273    1.1027    0.0162 O.2     1  LIG1       -0.4542
     16 C           3.3792    1.1138   -0.0032 C.ar    1  LIG1        0.0268
     17 C           4.4632    0.2564   -0.0231 C.ar    1  LIG1        0.1698
     18 C           4.3348   -1.1153   -0.0374 C.ar    1  LIG1        0.1670
     19 C           3.1064   -1.7574   -0.0327 C.ar    1  LIG1       -0.0050
     20 O           5.5414   -1.7476   -0.0569 O.3     1  LIG1       -0.4526
     21 C           6.4425   -0.6217   -0.0542 C.3     1  LIG1        0.2332
     22 O           5.7674    0.6519   -0.0318 O.3     1  LIG1       -0.4525
     23 H          -7.2844    1.7104    0.0199 H       1  LIG1        0.0660
     24 H          -5.9575    2.4265   -0.9027 H       1  LIG1        0.0660
     25 H          -5.9652    2.4877    0.9034 H       1  LIG1        0.0660
     26 H          -4.2332   -1.5260    0.0845 H       1  LIG1        0.0691
     27 H          -1.3520    2.5221   -0.0003 H       1  LIG1        0.0627
     28 H          -3.7879    2.7669    0.0214 H       1  LIG1        0.0654
     29 H          -0.0475   -2.9763    0.8285 H       1  LIG1        0.0749
     30 H          -0.1318   -2.8960   -0.9357 H       1  LIG1        0.0749
     31 H           3.4729    2.1901    0.0075 H       1  LIG1        0.0692
     32 H           3.0357   -2.8383   -0.0444 H       1  LIG1        0.0662
     33 H           7.0682   -0.6713   -0.9527 H       1  LIG1        0.1166
     34 H           7.0887   -0.6919    0.8284 H       1  LIG1        0.1166
@<TRIPOS>BOND
     1     1     2    1
     2     1     3    1
     3     3     4   ar
     4     4     5   ar
     5     5     6   ar
     6     6     7   ar
     7     7     8   ar
     8     3     8   ar
     9     6     9    1
    10     9    10   ar
    11    10    11    1
    12    11    12    1
    13     5    12    1
    14    10    13   ar
    15    13    14   ar
    16    14    15   ar
    17     9    15   ar
    18    14    16   ar
    19    16    17   ar
    20    17    18   ar
    21    18    19   ar
    22    13    19   ar
    23    18    20    1
    24    20    21    1
    25    21    22    1
    26    17    22    1
    27     2    23    1
    28     2    24    1
    29     2    25    1
    30     4    26    1
    31     7    27    1
    32     8    28    1
    33    11    29    1
    34    11    30    1
    35    16    31    1
    36    19    32    1
    37    21    33    1
    38    21    34    1
