REMARK  Name = NuBBE_1397
REMARK  19 active torsions:
REMARK  status: ('A' for Active; 'I' for Inactive)
REMARK    1  A    between atoms: C_7  and  C_9
REMARK    2  A    between atoms: C_9  and  C_10
REMARK    3  A    between atoms: C_10  and  C_11
REMARK    4  A    between atoms: C_11  and  C_12
REMARK    5  A    between atoms: C_12  and  C_13
REMARK    6  A    between atoms: C_13  and  C_14
REMARK    7  A    between atoms: C_14  and  C_15
REMARK    8  A    between atoms: C_15  and  C_16
REMARK    9  A    between atoms: C_16  and  C_17
REMARK   10  A    between atoms: C_17  and  C_18
REMARK   11  A    between atoms: C_18  and  C_19
REMARK   12  A    between atoms: C_19  and  C_20
REMARK   13  A    between atoms: C_20  and  C_21
REMARK   14  A    between atoms: C_21  and  C_22
REMARK   15  A    between atoms: C_22  and  C_23
REMARK   16  A    between atoms: C_22  and  C_26
REMARK   17  A    between atoms: C_22  and  O_27
REMARK   18  A    between atoms: C_23  and  C_24
REMARK   19  A    between atoms: C_23  and  C_25
REMARK                            x       y       z     vdW  Elec       q    Type
REMARK                         _______ _______ _______ _____ _____    ______ ____
ROOT
ATOM      1  C   LIG A   1       1.007   1.290  -0.637  0.00  0.00    +0.000 C 
ENDROOT
BRANCH   1   2
ATOM      2  C   LIG A   1       1.673  -0.082  -0.810  0.00  0.00    -0.000 C 
BRANCH   2   3
ATOM      3  C   LIG A   1       3.016  -0.161  -1.559  0.00  0.00    -0.000 C 
BRANCH   3   4
ATOM      4  C   LIG A   1       3.116   0.363  -3.009  0.00  0.00    -0.000 C 
BRANCH   4   5
ATOM      5  C   LIG A   1       2.410  -0.401  -4.161  0.00  0.00    -0.000 C 
BRANCH   5   6
ATOM      6  C   LIG A   1       0.885  -0.484  -4.036  0.00  0.00    -0.000 C 
BRANCH   6   7
ATOM      7  C   LIG A   1       0.140  -1.240  -5.143  0.00  0.00    -0.000 C 
BRANCH   7   8
ATOM      8  C   LIG A   1      -1.396  -1.266  -4.922  0.00  0.00    +0.000 C 
BRANCH   8   9
ATOM      9  C   LIG A   1      -1.879  -1.971  -3.629  0.00  0.00    +0.003 C 
BRANCH   9  10
ATOM     10  C   LIG A   1      -3.424  -1.970  -3.503  0.00  0.00    +0.035 C 
BRANCH  10  11
ATOM     11  C   LIG A   1      -4.029  -2.618  -2.212  0.00  0.00    +0.066 C 
ATOM     12  C   LIG A   1      -3.549  -4.071  -2.058  0.00  0.00    +0.041 C 
BRANCH  11  13
ATOM     13  C   LIG A   1      -5.605  -2.545  -2.226  0.00  0.00    +0.014 C 
ATOM     14  C   LIG A   1      -6.286  -3.179  -0.995  0.00  0.00    +0.010 C 
ATOM     15  C   LIG A   1      -6.140  -1.110  -2.357  0.00  0.00    +0.010 C 
ENDBRANCH  11  13
BRANCH  11  16
ATOM     16  O   LIG A   1      -3.539  -1.874  -1.090  0.00  0.00    -0.389 OA
ATOM     17  H   LIG A   1      -3.623  -2.428  -0.295  0.00  0.00    +0.210 HD
ENDBRANCH  11  16
ENDBRANCH  10  11
ENDBRANCH   9  10
ENDBRANCH   8   9
ENDBRANCH   7   8
ENDBRANCH   6   7
ENDBRANCH   5   6
ENDBRANCH   4   5
ENDBRANCH   3   4
ENDBRANCH   2   3
ENDBRANCH   1   2
BRANCH   1  18
ATOM     18  C   LIG A   1       1.720   2.400   0.161  0.00  0.00    +0.000 C 
BRANCH  18  19
ATOM     19  C   LIG A   1       2.154   2.294   1.662  0.00  0.00    +0.006 C 
BRANCH  19  20
ATOM     20  C   LIG A   1       1.137   2.160   2.844  0.00  0.00    +0.053 C 
BRANCH  20  27
ATOM     21  O   LIG A   1       0.527   2.079   7.748  0.00  0.00    -0.287 OA
ATOM     22  C   LIG A   1       1.308   2.223   6.800  0.00  0.00    +0.190 A 
ATOM     23  C   LIG A   1       2.749   2.482   7.008  0.00  0.00    +0.045 A 
ATOM     24  C   LIG A   1       3.541   2.720   5.869  0.00  0.00    +0.050 A 
ATOM     25  N   LIG A   1       2.989   2.660   4.569  0.00  0.00    -0.358 N 
ATOM     26  H   LIG A   1       3.550   3.017   3.806  0.00  0.00    +0.166 HD
ATOM     27  C   LIG A   1       1.663   2.326   4.329  0.00  0.00    +0.020 A 
ATOM     28  C   LIG A   1       0.828   2.125   5.379  0.00  0.00    +0.072 A 
ATOM     29  C   LIG A   1       4.923   2.892   6.056  0.00  0.00    +0.026 A 
ATOM     30  C   LIG A   1       5.495   2.836   7.339  0.00  0.00    +0.002 A 
ATOM     31  C   LIG A   1       4.692   2.621   8.457  0.00  0.00    +0.001 A 
ATOM     32  C   LIG A   1       3.314   2.454   8.293  0.00  0.00    +0.013 A 
ENDBRANCH  20  27
ENDBRANCH  19  20
ENDBRANCH  18  19
ENDBRANCH   1  18
TORSDOF 16
