@<TRIPOS>MOLECULE
NuBBE_2435
 50 51 0 0 0
SMALL
GASTEIGER

@<TRIPOS>ATOM
      1 O          -1.4188    0.8696   -3.3190 O.2     1  LIG1       -0.2881
      2 C          -1.5430    0.4736   -2.1718 C.2     1  LIG1        0.2031
      3 C          -1.8862   -0.9685   -1.9585 C.ar    1  LIG1        0.0248
      4 C          -2.6036   -1.4099   -0.8504 C.ar    1  LIG1       -0.0057
      5 C          -2.8521   -2.7764   -0.6649 C.ar    1  LIG1        0.1621
      6 O          -3.5684   -3.2740    0.3958 O.3     1  LIG1       -0.4914
      7 C          -3.4617   -2.5368    1.6057 C.3     1  LIG1        0.0790
      8 C          -2.3999   -3.7111   -1.6123 C.ar    1  LIG1        0.1615
      9 O          -2.6514   -5.0330   -1.3452 O.3     1  LIG1       -0.4915
     10 C          -1.6868   -5.9564   -1.8375 C.3     1  LIG1        0.0790
     11 C          -1.7652   -3.2623   -2.7711 C.ar    1  LIG1       -0.0156
     12 C          -1.5095   -1.8951   -2.9427 C.ar    1  LIG1       -0.0474
     13 C          -1.3348    1.4380   -0.9782 C.3     1  LIG1        0.1595
     14 C          -2.6477    2.0896   -0.5523 C.3     1  LIG1       -0.0204
     15 O          -0.6829    0.8692    0.1615 O.3     1  LIG1       -0.4776
     16 C           0.5741    1.3196    0.4902 C.ar    1  LIG1        0.1630
     17 C           1.4469    1.8108   -0.4798 C.ar    1  LIG1       -0.0157
     18 C           2.6741    2.3859   -0.1352 C.ar    1  LIG1       -0.0509
     19 C           3.1014    2.4445    1.1920 C.ar    1  LIG1       -0.0216
     20 C           4.3621    3.1016    1.6007 C.2     1  LIG1       -0.0587
     21 C           5.1995    3.7784    0.7943 C.2     1  LIG1       -0.0865
     22 C           6.4773    4.4147    1.2443 C.3     1  LIG1       -0.0465
     23 C           2.2840    1.8371    2.1578 C.ar    1  LIG1       -0.0092
     24 C           1.0312    1.2727    1.8217 C.ar    1  LIG1        0.1621
     25 O           0.3509    0.7666    2.9045 O.3     1  LIG1       -0.4914
     26 C          -0.5095   -0.3307    2.6287 C.3     1  LIG1        0.0790
     27 H          -3.0032   -0.6901   -0.1483 H       1  LIG1        0.0662
     28 H          -3.9084   -3.1334    2.4055 H       1  LIG1        0.0660
     29 H          -4.0174   -1.5960    1.5457 H       1  LIG1        0.0660
     30 H          -2.4129   -2.3608    1.8633 H       1  LIG1        0.0660
     31 H          -1.8098   -6.8946   -1.2866 H       1  LIG1        0.0660
     32 H          -0.6604   -5.6091   -1.6724 H       1  LIG1        0.0660
     33 H          -1.8646   -6.1635   -2.8966 H       1  LIG1        0.0660
     34 H          -1.4760   -3.9514   -3.5586 H       1  LIG1        0.0655
     35 H          -1.0197   -1.5606   -3.8561 H       1  LIG1        0.0626
     36 H          -0.7576    2.2675   -1.3990 H       1  LIG1        0.0814
     37 H          -3.2013    1.4866    0.1716 H       1  LIG1        0.0270
     38 H          -3.2918    2.2986   -1.4125 H       1  LIG1        0.0270
     39 H          -2.4343    3.0437   -0.0543 H       1  LIG1        0.0270
     40 H           1.1982    1.7682   -1.5348 H       1  LIG1        0.0655
     41 H           3.2755    2.7888   -0.9434 H       1  LIG1        0.0625
     42 H           4.6065    3.0296    2.6593 H       1  LIG1        0.0620
     43 H           4.9909    3.8971   -0.2645 H       1  LIG1        0.0569
     44 H           6.6334    4.3256    2.3233 H       1  LIG1        0.0272
     45 H           6.4825    5.4785    0.9848 H       1  LIG1        0.0272
     46 H           7.3209    3.9378    0.7350 H       1  LIG1        0.0272
     47 H           2.6182    1.7952    3.1946 H       1  LIG1        0.0661
     48 H           0.0226   -1.1278    2.0980 H       1  LIG1        0.0660
     49 H          -1.4025   -0.0106    2.0884 H       1  LIG1        0.0660
     50 H          -0.8688   -0.7372    3.5791 H       1  LIG1        0.0660
@<TRIPOS>BOND
     1     1     2    2
     2     2     3    1
     3     3     4   ar
     4     4     5   ar
     5     5     6    1
     6     6     7    1
     7     5     8   ar
     8     8     9    1
     9     9    10    1
    10     8    11   ar
    11    11    12   ar
    12     3    12   ar
    13     2    13    1
    14    13    14    1
    15    13    15    1
    16    15    16    1
    17    16    17   ar
    18    17    18   ar
    19    18    19   ar
    20    19    20    1
    21    20    21    2
    22    21    22    1
    23    19    23   ar
    24    23    24   ar
    25    16    24   ar
    26    24    25    1
    27    25    26    1
    28     4    27    1
    29     7    28    1
    30     7    29    1
    31     7    30    1
    32    10    31    1
    33    10    32    1
    34    10    33    1
    35    11    34    1
    36    12    35    1
    37    13    36    1
    38    14    37    1
    39    14    38    1
    40    14    39    1
    41    17    40    1
    42    18    41    1
    43    20    42    1
    44    21    43    1
    45    22    44    1
    46    22    45    1
    47    22    46    1
    48    23    47    1
    49    26    48    1
    50    26    49    1
    51    26    50    1
