@<TRIPOS>MOLECULE
NuBBE_985
 81 85 0 0 0
SMALL
GASTEIGER

@<TRIPOS>ATOM
      1 C           2.1950    0.8843   -4.7537 C.3     1  LIG1       -0.0528
      2 C           1.3554    0.0718   -3.7436 C.3     1  LIG1        0.0267
      3 C           1.4514   -1.4125   -4.1325 C.2     1  LIG1        0.1392
      4 C           0.5200   -2.3549   -3.4177 C.3     1  LIG1        0.0069
      5 C          -0.8881   -1.8820   -3.6732 C.3     1  LIG1       -0.0399
      6 C          -1.1178   -0.4603   -3.1663 C.3     1  LIG1       -0.0187
      7 C          -2.6069   -0.1740   -3.0696 C.3     1  LIG1       -0.0401
      8 C          -1.7657   -0.1212   -1.8155 C.3     1  LIG1       -0.0194
      9 C          -1.8322   -1.2323   -0.8009 C.3     1  LIG1       -0.0460
     10 C          -2.8392   -0.9390    0.2975 C.3     1  LIG1       -0.0463
     11 C          -2.6814    0.4153    1.0099 C.3     1  LIG1       -0.0232
     12 C          -2.5702    1.5833   -0.0561 C.3     1  LIG1       -0.0231
     13 C          -2.0919    2.7502    0.8281 C.3     1  LIG1       -0.0466
     14 C          -1.0522    2.1356    1.7510 C.3     1  LIG1       -0.0488
     15 C          -1.4690    0.6595    2.0093 C.3     1  LIG1       -0.0299
     16 H          -1.8860    0.6406    3.0266 H       1  LIG1        0.0310
     17 C          -0.2078   -0.2664    2.0930 C.3     1  LIG1       -0.0109
     18 H           0.3257   -0.2056    1.1359 H       1  LIG1        0.0329
     19 C          -0.5432   -1.7429    2.3698 C.3     1  LIG1       -0.0595
     20 C           0.7767    0.2455    3.2092 C.3     1  LIG1        0.0763
     21 O           0.1773    0.1212    4.4946 O.3     1  LIG1       -0.3875
     22 C           2.1134   -0.4564    3.1815 C.2     1  LIG1       -0.0569
     23 C           2.9181   -0.7215    4.2286 C.2     1  LIG1       -0.0549
     24 C           4.2578   -1.4261    4.1750 C.3     1  LIG1        0.0786
     25 O           4.1461   -2.5749    5.0162 O.3     1  LIG1       -0.3851
     26 C           4.6698   -1.9067    2.7781 C.3     1  LIG1       -0.0327
     27 C           5.3661   -0.5465    4.7589 C.3     1  LIG1       -0.0327
     28 C          -3.9270    1.9608   -0.6899 C.3     1  LIG1       -0.0588
     29 C          -3.9670    0.5425    1.8949 C.3     1  LIG1       -0.0588
     30 C          -1.4980    1.2443   -1.1782 C.3     1  LIG1       -0.0289
     31 C          -1.3581    2.3358   -2.2546 C.3     1  LIG1       -0.0489
     32 C          -0.2721    2.0197   -3.2758 C.3     1  LIG1       -0.0485
     33 C          -0.1455    0.5612   -3.7875 C.3     1  LIG1       -0.0230
     34 O           2.2959   -1.8463   -4.9094 O.2     1  LIG1       -0.2968
     35 C           2.0057    0.1867   -2.3495 C.3     1  LIG1       -0.0528
     36 H           1.8093    0.7612   -5.7725 H       1  LIG1        0.0239
     37 H           3.2406    0.5542   -4.7613 H       1  LIG1        0.0239
     38 H           2.1961    1.9541   -4.5228 H       1  LIG1        0.0239
     39 H           0.7655   -2.3752   -2.3523 H       1  LIG1        0.0342
     40 H           0.6581   -3.3653   -3.8167 H       1  LIG1        0.0342
     41 H          -1.5901   -2.5994   -3.2362 H       1  LIG1        0.0275
     42 H          -1.0890   -1.8919   -4.7534 H       1  LIG1        0.0275
     43 H          -3.3199   -0.9913   -3.1548 H       1  LIG1        0.0276
     44 H          -2.9905    0.7151   -3.5527 H       1  LIG1        0.0276
     45 H          -0.8254   -1.3826   -0.4078 H       1  LIG1        0.0271
     46 H          -2.1253   -2.1835   -1.2556 H       1  LIG1        0.0271
     47 H          -2.8712   -1.7579    1.0228 H       1  LIG1        0.0271
     48 H          -3.8300   -0.9649   -0.1798 H       1  LIG1        0.0271
     49 H          -2.9141    3.1616    1.4261 H       1  LIG1        0.0271
     50 H          -1.6769    3.5902    0.2648 H       1  LIG1        0.0271
     51 H          -0.9877    2.7002    2.6881 H       1  LIG1        0.0268
     52 H          -0.0699    2.1956    1.2686 H       1  LIG1        0.0268
     53 H           0.3458   -2.3134    2.6577 H       1  LIG1        0.0233
     54 H          -0.9178   -2.2611    1.4901 H       1  LIG1        0.0233
     55 H          -1.2850   -1.8448    3.1667 H       1  LIG1        0.0233
     56 H           0.9892    1.3078    3.0592 H       1  LIG1        0.0640
     57 H           0.1370   -0.8261    4.7081 H       1  LIG1        0.2102
     58 H           2.4336   -0.7438    2.1836 H       1  LIG1        0.0595
     59 H           2.6108   -0.3937    5.2229 H       1  LIG1        0.0598
     60 H           3.4338   -3.1276    4.6539 H       1  LIG1        0.2106
     61 H           3.9293   -2.6026    2.3655 H       1  LIG1        0.0260
     62 H           5.6152   -2.4587    2.8155 H       1  LIG1        0.0260
     63 H           4.7901   -1.0695    2.0815 H       1  LIG1        0.0260
     64 H           5.1683   -0.2967    5.8079 H       1  LIG1        0.0260
     65 H           5.4884    0.3845    4.1953 H       1  LIG1        0.0260
     66 H           6.3254   -1.0793    4.7514 H       1  LIG1        0.0260
     67 H          -4.6661    2.2544    0.0625 H       1  LIG1        0.0235
     68 H          -4.3527    1.1321   -1.2626 H       1  LIG1        0.0235
     69 H          -3.8388    2.8256   -1.3541 H       1  LIG1        0.0235
     70 H          -4.8857    0.4142    1.3129 H       1  LIG1        0.0235
     71 H          -4.0287    1.5074    2.4081 H       1  LIG1        0.0235
     72 H          -3.9755   -0.2359    2.6683 H       1  LIG1        0.0235
     73 H          -0.5156    1.1597   -0.6978 H       1  LIG1        0.0312
     74 H          -1.1142    3.2988   -1.7932 H       1  LIG1        0.0268
     75 H          -2.2944    2.5039   -2.7937 H       1  LIG1        0.0268
     76 H           0.6706    2.3684   -2.8447 H       1  LIG1        0.0268
     77 H          -0.4194    2.6752   -4.1451 H       1  LIG1        0.0268
     78 H          -0.4320    0.5861   -4.8502 H       1  LIG1        0.0316
     79 H           2.9424   -0.3829   -2.3067 H       1  LIG1        0.0239
     80 H           1.3553   -0.2102   -1.5641 H       1  LIG1        0.0239
     81 H           2.2560    1.2190   -2.0876 H       1  LIG1        0.0239
@<TRIPOS>BOND
     1     1     2    1
     2     2     3    1
     3     3     4    1
     4     4     5    1
     5     5     6    1
     6     6     7    1
     7     7     8    1
     8     8     9    1
     9     9    10    1
    10    10    11    1
    11    11    12    1
    12    12    13    1
    13    13    14    1
    14    14    15    1
    15    15    16    1
    16    17    19    1
    17    17    20    1
    18    20    21    1
    19    20    22    1
    20    22    23    2
    21    23    24    1
    22    24    25    1
    23    24    26    1
    24    24    27    1
    25    12    28    1
    26    15    11    1
    27    11    29    1
    28     6     8    1
    29     8    30    1
    30    12    30    1
    31    30    31    1
    32    31    32    1
    33    32    33    1
    34     6    33    1
    35     3    34    2
    36    33     2    1
    37     2    35    1
    38    17    18    1
    39    17    15    1
    40     1    36    1
    41     1    37    1
    42     1    38    1
    43     4    39    1
    44     4    40    1
    45     5    41    1
    46     5    42    1
    47     7    43    1
    48     7    44    1
    49     9    45    1
    50     9    46    1
    51    10    47    1
    52    10    48    1
    53    13    49    1
    54    13    50    1
    55    14    51    1
    56    14    52    1
    57    19    53    1
    58    19    54    1
    59    19    55    1
    60    20    56    1
    61    21    57    1
    62    22    58    1
    63    23    59    1
    64    25    60    1
    65    26    61    1
    66    26    62    1
    67    26    63    1
    68    27    64    1
    69    27    65    1
    70    27    66    1
    71    28    67    1
    72    28    68    1
    73    28    69    1
    74    29    70    1
    75    29    71    1
    76    29    72    1
    77    30    73    1
    78    31    74    1
    79    31    75    1
    80    32    76    1
    81    32    77    1
    82    33    78    1
    83    35    79    1
    84    35    80    1
    85    35    81    1
