@<TRIPOS>MOLECULE
NuBBE_243
 36 37 0 0 0
SMALL
GASTEIGER

@<TRIPOS>ATOM
      1 O          -0.1800    5.5352    1.4628 O.3     1  LIG1       -0.3891
      2 C           0.7483    4.6911    2.1464 C.3     1  LIG1        0.0847
      3 H           1.0031    5.1683    3.0972 H       1  LIG1        0.0620
      4 C           1.9888    4.5082    1.2736 C.3     1  LIG1       -0.0209
      5 C           1.7167    3.2146    0.5172 C.3     1  LIG1       -0.0107
      6 C           1.1058    2.3267    1.5966 C.3     1  LIG1        0.1316
      7 H           1.8831    1.9745    2.2885 H       1  LIG1        0.0761
      8 C           0.1590    3.2785    2.3500 C.3     1  LIG1        0.1178
      9 H           0.1031    3.0072    3.4088 H       1  LIG1        0.0656
     10 O          -1.1730    3.2428    1.8125 O.3     1  LIG1       -0.3856
     11 O           0.3594    1.2228    1.0703 O.3     1  LIG1       -0.4556
     12 C           1.1027    0.1962    0.5883 C.2     1  LIG1        0.3323
     13 C           0.1694   -0.8215    0.0668 C.2     1  LIG1        0.0231
     14 C           0.6205   -1.8222   -0.7045 C.2     1  LIG1       -0.0477
     15 C          -0.2384   -2.8864   -1.2468 C.ar    1  LIG1       -0.0211
     16 C           0.3259   -4.1502   -1.4906 C.ar    1  LIG1       -0.0509
     17 C          -0.4455   -5.2003   -2.0047 C.ar    1  LIG1       -0.0160
     18 C          -1.7876   -4.9776   -2.2840 C.ar    1  LIG1        0.1582
     19 C          -2.3495   -3.7242   -2.0645 C.ar    1  LIG1        0.1588
     20 O          -3.6686   -3.5093   -2.3494 O.3     1  LIG1       -0.5033
     21 C          -1.5885   -2.6767   -1.5626 C.ar    1  LIG1       -0.0094
     22 O          -2.5980   -5.9616   -2.7769 O.3     1  LIG1       -0.5033
     23 O           2.3191    0.1180    0.5764 O.2     1  LIG1       -0.2456
     24 H          -1.0080    5.0100    1.4057 H       1  LIG1        0.2099
     25 H           2.8728    4.3769    1.9089 H       1  LIG1        0.0292
     26 H           2.1670    5.3451    0.5926 H       1  LIG1        0.0292
     27 H           2.6308    2.7881    0.0937 H       1  LIG1        0.0302
     28 H           1.0132    3.3733   -0.3086 H       1  LIG1        0.0302
     29 H          -1.3326    2.3136    1.5558 H       1  LIG1        0.2100
     30 H          -0.8697   -0.7170    0.3464 H       1  LIG1        0.0689
     31 H           1.6810   -1.8916   -0.9433 H       1  LIG1        0.0626
     32 H           1.3764   -4.3331   -1.2694 H       1  LIG1        0.0625
     33 H           0.0161   -6.1668   -2.1732 H       1  LIG1        0.0655
     34 H          -3.9915   -4.3711   -2.6802 H       1  LIG1        0.2923
     35 H          -2.0627   -1.7098   -1.4287 H       1  LIG1        0.0661
     36 H          -2.0685   -6.7719   -2.8711 H       1  LIG1        0.2923
@<TRIPOS>BOND
     1     2     4    1
     2     4     5    1
     3     5     6    1
     4     6     7    1
     5     6     8    1
     6     8     9    1
     7     2     8    1
     8     8    10    1
     9     6    11    1
    10    11    12    1
    11    12    13    1
    12    13    14    2
    13    14    15    1
    14    15    16   ar
    15    16    17   ar
    16    17    18   ar
    17    18    19   ar
    18    19    20    1
    19    19    21   ar
    20    15    21   ar
    21    18    22    1
    22    12    23    2
    23     2     3    1
    24     2     1    1
    25     1    24    1
    26     4    25    1
    27     4    26    1
    28     5    27    1
    29     5    28    1
    30    10    29    1
    31    13    30    1
    32    14    31    1
    33    16    32    1
    34    17    33    1
    35    20    34    1
    36    21    35    1
    37    22    36    1
