@<TRIPOS>MOLECULE
NuBBE_1611
 67 71 0 0 0
SMALL
GASTEIGER

@<TRIPOS>ATOM
      1 C          -1.5458    0.1654    1.5430 C.3     1  LIG1       -0.0521
      2 C          -0.2227   -0.0424    0.7532 C.3     1  LIG1        0.0304
      3 C           0.3177   -1.4125    1.2299 C.2     1  LIG1       -0.0497
      4 C           1.0454   -1.6567    2.3316 C.2     1  LIG1       -0.0181
      5 C           1.0245   -3.1196    2.5316 C.2     1  LIG1        0.1643
      6 O           1.7121   -3.6737    3.3701 O.2     1  LIG1       -0.2920
      7 C          -0.0294   -3.7729    1.6501 C.3     1  LIG1        0.0585
      8 H           0.3621   -4.7317    1.2871 H       1  LIG1        0.0439
      9 C          -0.0810   -2.7077    0.5027 C.3     1  LIG1        0.0039
     10 C           0.9999   -3.1425   -0.5344 C.3     1  LIG1       -0.0548
     11 C          -1.4191   -2.5288   -0.2368 C.3     1  LIG1       -0.0426
     12 C          -1.4717   -1.2775   -1.1436 C.3     1  LIG1       -0.0477
     13 C          -0.4163   -0.1867   -0.8054 C.3     1  LIG1       -0.0194
     14 H           0.5240   -0.6105   -1.1797 H       1  LIG1        0.0319
     15 C          -0.4885    1.1549   -1.6349 C.3     1  LIG1       -0.0061
     16 C          -1.7667    1.9678   -1.3093 C.3     1  LIG1       -0.0555
     17 C           0.7903    2.0530   -1.3153 C.3     1  LIG1       -0.0164
     18 H           0.3893    3.0205   -0.9778 H       1  LIG1        0.0320
     19 C           1.6185    1.4965   -0.1218 C.3     1  LIG1       -0.0103
     20 C           0.7441    1.1537    1.0808 C.3     1  LIG1        0.1126
     21 H           1.3894    0.8832    1.9220 H       1  LIG1        0.0743
     22 O           0.0218    2.3499    1.4591 O.3     1  LIG1       -0.4606
     23 C           0.7295    3.2837    2.1539 C.2     1  LIG1        0.3042
     24 O           1.8750    3.1456    2.5652 O.2     1  LIG1       -0.2512
     25 C          -0.0507    4.5470    2.3130 C.3     1  LIG1        0.0332
     26 C           1.7402    2.4096   -2.5141 C.3     1  LIG1        0.0311
     27 C           2.4729    3.7384   -2.2143 C.3     1  LIG1       -0.0525
     28 C           2.8062    1.3329   -2.8043 C.3     1  LIG1       -0.0525
     29 C           0.9414    2.5805   -3.8007 C.2     1  LIG1        0.1617
     30 O           1.1453    3.4675   -4.6252 O.2     1  LIG1       -0.2921
     31 C          -0.0440    1.5343   -4.1178 C.2     1  LIG1       -0.0221
     32 C          -0.6440    0.8690   -3.1262 C.2     1  LIG1       -0.0742
     33 C          -1.2935   -4.0319    2.4303 C.ar    1  LIG1        0.0017
     34 C          -2.4967   -4.6407    1.9597 C.ar    1  LIG1       -0.0200
     35 C          -3.3673   -4.6796    3.0225 C.ar    1  LIG1        0.0920
     36 O          -2.7777   -4.1755    4.1323 O.2     1  LIG1       -0.4707
     37 C          -1.5236   -3.8047    3.7772 C.ar    1  LIG1        0.0955
     38 H          -2.1986   -0.7092    1.5534 H       1  LIG1        0.0239
     39 H          -2.1480    0.9885    1.1583 H       1  LIG1        0.0239
     40 H          -1.3332    0.3866    2.5971 H       1  LIG1        0.0239
     41 H           1.4528   -0.9883    3.0700 H       1  LIG1        0.0652
     42 H           2.0082   -3.1344   -0.1046 H       1  LIG1        0.0238
     43 H           1.0288   -2.5202   -1.4308 H       1  LIG1        0.0238
     44 H           0.7999   -4.1626   -0.8853 H       1  LIG1        0.0238
     45 H          -2.2511   -2.4500    0.4676 H       1  LIG1        0.0274
     46 H          -1.6423   -3.4176   -0.8413 H       1  LIG1        0.0274
     47 H          -2.4856   -0.8642   -1.1077 H       1  LIG1        0.0269
     48 H          -1.3165   -1.6231   -2.1723 H       1  LIG1        0.0269
     49 H          -1.7530    2.3919   -0.3053 H       1  LIG1        0.0238
     50 H          -2.6757    1.3650   -1.4109 H       1  LIG1        0.0238
     51 H          -1.8746    2.8233   -1.9895 H       1  LIG1        0.0238
     52 H           2.3551    2.2498    0.1751 H       1  LIG1        0.0304
     53 H           2.1918    0.6057   -0.3996 H       1  LIG1        0.0304
     54 H          -0.1515    4.7746    3.3771 H       1  LIG1        0.0342
     55 H          -1.0505    4.4522    1.8786 H       1  LIG1        0.0342
     56 H           0.4736    5.3567    1.7974 H       1  LIG1        0.0342
     57 H           1.7590    4.5562   -2.0593 H       1  LIG1        0.0239
     58 H           3.1256    4.0332   -3.0441 H       1  LIG1        0.0239
     59 H           3.1014    3.6688   -1.3210 H       1  LIG1        0.0239
     60 H           2.3640    0.3333   -2.8746 H       1  LIG1        0.0239
     61 H           3.5807    1.3074   -2.0300 H       1  LIG1        0.0239
     62 H           3.3155    1.5286   -3.7558 H       1  LIG1        0.0239
     63 H          -0.2705    1.3716   -5.1643 H       1  LIG1        0.0649
     64 H          -1.4017    0.1474   -3.4264 H       1  LIG1        0.0579
     65 H          -2.7132   -4.9916    0.9604 H       1  LIG1        0.0652
     66 H          -4.3833   -5.0260    3.1501 H       1  LIG1        0.1029
     67 H          -0.9175   -3.4118    4.5841 H       1  LIG1        0.1032
@<TRIPOS>BOND
     1     2     3    1
     2     3     4    2
     3     4     5    1
     4     5     7    1
     5     7     9    1
     6     3     9    1
     7     9    11    1
     8    11    12    1
     9    12    13    1
    10     2    13    1
    11    13    15    1
    12    15    17    1
    13    17    19    1
    14    19    20    1
    15     2    20    1
    16    22    23    1
    17    23    24    2
    18    23    25    1
    19    17    26    1
    20    26    29    1
    21    29    31    1
    22    31    32    2
    23    15    32    1
    24    33    34   ar
    25    34    35   ar
    26    35    36   ar
    27    36    37   ar
    28    33    37   ar
    29     1     2    1
    30     5     6    2
    31     7     8    1
    32     7    33    1
    33     9    10    1
    34    13    14    1
    35    15    16    1
    36    17    18    1
    37    20    21    1
    38    20    22    1
    39    26    27    1
    40    26    28    1
    41    29    30    2
    42     1    38    1
    43     1    39    1
    44     1    40    1
    45     4    41    1
    46    10    42    1
    47    10    43    1
    48    10    44    1
    49    11    45    1
    50    11    46    1
    51    12    47    1
    52    12    48    1
    53    16    49    1
    54    16    50    1
    55    16    51    1
    56    19    52    1
    57    19    53    1
    58    25    54    1
    59    25    55    1
    60    25    56    1
    61    27    57    1
    62    27    58    1
    63    27    59    1
    64    28    60    1
    65    28    61    1
    66    28    62    1
    67    31    63    1
    68    32    64    1
    69    34    65    1
    70    35    66    1
    71    37    67    1
