@<TRIPOS>MOLECULE
NuBBE_249
 53 54 0 0 0
SMALL
GASTEIGER

@<TRIPOS>ATOM
      1 O          -2.7967   -3.7637   -3.0400 O.3     1  LIG1       -0.4771
      2 C          -1.4921   -3.9977   -2.7809 C.2     1  LIG1        0.3368
      3 C          -0.8099   -2.8959   -2.0519 C.ar    1  LIG1        0.0599
      4 C          -1.1662   -1.5511   -2.2166 C.ar    1  LIG1       -0.0408
      5 C          -0.5008   -0.5409   -1.4970 C.ar    1  LIG1       -0.0006
      6 C          -0.9204    0.9053   -1.6891 C.3     1  LIG1       -0.0057
      7 C          -0.1737    1.5910   -2.8044 C.2     1  LIG1       -0.0809
      8 C          -0.6694    2.1613   -3.9223 C.2     1  LIG1       -0.0793
      9 C          -2.1264    2.2523   -4.2843 C.3     1  LIG1       -0.0440
     10 C           0.2547    2.7823   -4.9412 C.3     1  LIG1       -0.0440
     11 C           0.5545   -0.9004   -0.6365 C.ar    1  LIG1        0.1323
     12 O           1.1584    0.1147    0.0534 O.3     1  LIG1       -0.4811
     13 C           2.2500   -0.1771    0.9518 C.3     1  LIG1        0.1266
     14 C           1.8366    0.2998    2.3684 C.3     1  LIG1       -0.0060
     15 C           0.5781   -0.4024    2.9102 C.3     1  LIG1       -0.0306
     16 C           0.1991    0.0986    4.2804 C.2     1  LIG1       -0.0851
     17 C          -0.9389    0.7162    4.6568 C.2     1  LIG1       -0.0796
     18 C          -2.0899    1.0636    3.7524 C.3     1  LIG1       -0.0440
     19 C          -1.1536    1.1207    6.0937 C.3     1  LIG1       -0.0440
     20 C           3.4249    0.6691    0.4366 C.3     1  LIG1       -0.0212
     21 C           2.6908   -1.6222    1.0018 C.2     1  LIG1       -0.0406
     22 C           2.0749   -2.5987    0.3322 C.2     1  LIG1       -0.0513
     23 C           0.9438   -2.2402   -0.5085 C.ar    1  LIG1        0.0176
     24 C           0.2551   -3.2345   -1.2103 C.ar    1  LIG1       -0.0371
     25 O          -0.9337   -5.0365   -3.0772 O.2     1  LIG1       -0.2451
     26 H          -3.1788   -2.9858   -2.5963 H       1  LIG1        0.2954
     27 H          -1.9425   -1.2655   -2.9227 H       1  LIG1        0.0630
     28 H          -0.7661    1.4677   -0.7605 H       1  LIG1        0.0357
     29 H          -2.0027    0.9240   -1.8487 H       1  LIG1        0.0357
     30 H           0.9054    1.6284   -2.6468 H       1  LIG1        0.0575
     31 H          -2.7952    1.9447   -3.4784 H       1  LIG1        0.0274
     32 H          -2.3386    1.6243   -5.1556 H       1  LIG1        0.0274
     33 H          -2.3890    3.2863   -4.5344 H       1  LIG1        0.0274
     34 H           1.3104    2.6485   -4.6830 H       1  LIG1        0.0274
     35 H           0.0648    3.8577   -5.0247 H       1  LIG1        0.0274
     36 H           0.0962    2.3255   -5.9241 H       1  LIG1        0.0274
     37 H           2.6689    0.1471    3.0698 H       1  LIG1        0.0310
     38 H           1.6398    1.3799    2.3406 H       1  LIG1        0.0310
     39 H           0.7591   -1.4802    2.9977 H       1  LIG1        0.0309
     40 H          -0.2439   -0.2863    2.2012 H       1  LIG1        0.0309
     41 H           0.9506   -0.1000    5.0453 H       1  LIG1        0.0571
     42 H          -1.9510    0.7452    2.7180 H       1  LIG1        0.0274
     43 H          -2.2433    2.1479    3.7427 H       1  LIG1        0.0274
     44 H          -3.0087    0.5910    4.1165 H       1  LIG1        0.0274
     45 H          -0.3338    0.8002    6.7450 H       1  LIG1        0.0274
     46 H          -2.0753    0.6727    6.4805 H       1  LIG1        0.0274
     47 H          -1.2382    2.2095    6.1714 H       1  LIG1        0.0274
     48 H           3.7119    0.3578   -0.5762 H       1  LIG1        0.0271
     49 H           4.3072    0.5935    1.0808 H       1  LIG1        0.0271
     50 H           3.1418    1.7257    0.3587 H       1  LIG1        0.0271
     51 H           3.5470   -1.8649    1.6265 H       1  LIG1        0.0611
     52 H           2.4056   -3.6297    0.3918 H       1  LIG1        0.0623
     53 H           0.5496   -4.2787   -1.1127 H       1  LIG1        0.0633
@<TRIPOS>BOND
     1     1     2    1
     2     2     3    1
     3     3     4   ar
     4     4     5   ar
     5     5     6    1
     6     6     7    1
     7     7     8    2
     8     8     9    1
     9     8    10    1
    10     5    11   ar
    11    11    12    1
    12    12    13    1
    13    14    15    1
    14    15    16    1
    15    16    17    2
    16    17    18    1
    17    17    19    1
    18    13    21    1
    19    21    22    2
    20    11    23   ar
    21    22    23    1
    22    23    24   ar
    23     3    24   ar
    24     2    25    2
    25    13    20    1
    26    13    14    1
    27     1    26    1
    28     4    27    1
    29     6    28    1
    30     6    29    1
    31     7    30    1
    32     9    31    1
    33     9    32    1
    34     9    33    1
    35    10    34    1
    36    10    35    1
    37    10    36    1
    38    14    37    1
    39    14    38    1
    40    15    39    1
    41    15    40    1
    42    16    41    1
    43    18    42    1
    44    18    43    1
    45    18    44    1
    46    19    45    1
    47    19    46    1
    48    19    47    1
    49    20    48    1
    50    20    49    1
    51    20    50    1
    52    21    51    1
    53    22    52    1
    54    24    53    1
