REMARK  Name = NuBBE_61
REMARK  17 active torsions:
REMARK  status: ('A' for Active; 'I' for Inactive)
REMARK    1  A    between atoms: O_1  and  C_2
REMARK    2  A    between atoms: C_6  and  O_15
REMARK    3  A    between atoms: C_9  and  O_11
REMARK    4  A    between atoms: O_11  and  C_12
REMARK    5  A    between atoms: C_12  and  C_13
REMARK    6  A    between atoms: O_15  and  C_16
REMARK    7  A    between atoms: C_16  and  C_17
REMARK    8  A    between atoms: C_20  and  O_22
REMARK    9  A    between atoms: O_22  and  C_23
REMARK   10  A    between atoms: C_23  and  C_24
REMARK   11  A    between atoms: C_25  and  C_26
REMARK   12  A    between atoms: C_34  and  C_36
REMARK   13  A    between atoms: C_37  and  C_38
REMARK   14  A    between atoms: C_37  and  C_39
REMARK   15  A    between atoms: C_39  and  C_40
REMARK   16  A    between atoms: C_41  and  C_42
REMARK   17  A    between atoms: C_41  and  C_43
REMARK                            x       y       z     vdW  Elec       q    Type
REMARK                         _______ _______ _______ _____ _____    ______ ____
ROOT
ATOM      1  C   LIG A   1      -2.103  -0.778  -2.995  0.00  0.00    +0.138 C 
ATOM      2  C   LIG A   1      -3.188  -0.404  -2.041  0.00  0.00    +0.010 C 
ATOM      3  C   LIG A   1      -2.929   0.238  -0.888  0.00  0.00    +0.012 C 
ATOM      4  C   LIG A   1      -3.767   1.439  -0.467  0.00  0.00    +0.343 C 
ATOM      5  O   LIG A   1      -2.817   2.328   0.141  0.00  0.00    -0.297 OA
ATOM      6  C   LIG A   1      -1.515   1.904  -0.305  0.00  0.00    +0.328 C 
ATOM      7  C   LIG A   1      -1.557   0.335  -0.202  0.00  0.00    +0.100 C 
ATOM      8  C   LIG A   1      -1.719  -0.244   1.259  0.00  0.00    +0.194 C 
ATOM      9  C   LIG A   1      -1.495  -1.772   1.249  0.00  0.00    +0.049 C 
ATOM     10  C   LIG A   1      -0.121  -2.268   0.743  0.00  0.00    -0.004 C 
ATOM     11  C   LIG A   1       1.003  -2.137   1.770  0.00  0.00    +0.008 C 
ATOM     12  C   LIG A   1       0.193  -1.810  -0.726  0.00  0.00    -0.022 C 
ATOM     13  C   LIG A   1      -0.423  -2.932  -1.611  0.00  0.00    +0.012 C 
ATOM     14  C   LIG A   1      -0.395  -0.337  -1.063  0.00  0.00    +0.018 C 
ATOM     15  C   LIG A   1      -0.743  -0.183  -2.581  0.00  0.00    +0.040 C 
ENDROOT
BRANCH   1  16
ATOM     16  O   LIG A   1      -2.440  -0.210  -4.263  0.00  0.00    -0.388 OA
ATOM     17  H   LIG A   1      -3.357  -0.456  -4.468  0.00  0.00    +0.210 HD
ENDBRANCH   1  16
BRANCH   6  18
ATOM     18  O   LIG A   1      -0.502   2.596   0.427  0.00  0.00    -0.434 OA
BRANCH  18  19
ATOM     19  C   LIG A   1      -0.089   3.740  -0.200  0.00  0.00    +0.306 C 
ATOM     20  C   LIG A   1      -0.172   4.938   0.713  0.00  0.00    +0.136 C 
ATOM     21  O   LIG A   1       0.222   3.817  -1.367  0.00  0.00    -0.251 OA
ENDBRANCH  18  19
ENDBRANCH   6  18
BRANCH   4  22
ATOM     22  O   LIG A   1      -4.269   2.085  -1.649  0.00  0.00    -0.431 OA
BRANCH  22  23
ATOM     23  C   LIG A   1      -5.611   2.111  -1.811  0.00  0.00    +0.306 C 
ATOM     24  C   LIG A   1      -5.971   2.665  -3.162  0.00  0.00    +0.136 C 
ATOM     25  O   LIG A   1      -6.434   1.722  -1.000  0.00  0.00    -0.251 OA
ENDBRANCH  22  23
ENDBRANCH   4  22
BRANCH   8  26
ATOM     26  O   LIG A   1      -0.815   0.317   2.239  0.00  0.00    -0.457 OA
BRANCH  26  27
ATOM     27  C   LIG A   1      -1.098   1.507   2.863  0.00  0.00    +0.332 C 
ATOM     28  O   LIG A   1      -2.131   2.128   2.834  0.00  0.00    -0.246 OA
BRANCH  27  29
ATOM     29  C   LIG A   1       0.142   2.025   3.521  0.00  0.00    +0.092 C 
ATOM     30  C   LIG A   1       1.351   1.449   3.398  0.00  0.00    +0.015 C 
BRANCH  30  31
ATOM     31  C   LIG A   1       2.628   2.019   3.867  0.00  0.00    -0.025 A 
ATOM     32  C   LIG A   1       3.718   1.202   4.210  0.00  0.00    +0.008 A 
ATOM     33  C   LIG A   1       4.973   1.765   4.494  0.00  0.00    +0.001 A 
ATOM     34  C   LIG A   1       5.155   3.144   4.421  0.00  0.00    +0.000 A 
ATOM     35  C   LIG A   1       4.072   3.964   4.123  0.00  0.00    +0.001 A 
ATOM     36  C   LIG A   1       2.821   3.405   3.855  0.00  0.00    +0.008 A 
ENDBRANCH  30  31
ENDBRANCH  27  29
ENDBRANCH  26  27
ENDBRANCH   8  26
BRANCH  12  37
ATOM     37  C   LIG A   1       1.746  -1.770  -1.121  0.00  0.00    +0.034 C 
BRANCH  37  38
ATOM     38  C   LIG A   1       2.570  -3.042  -1.057  0.00  0.00    -0.023 C 
ATOM     39  C   LIG A   1       2.912  -3.899  -2.046  0.00  0.00    -0.055 C 
ATOM     40  C   LIG A   1       2.541  -3.803  -3.503  0.00  0.00    +0.043 C 
BRANCH  39  41
ATOM     41  C   LIG A   1       3.713  -5.079  -1.739  0.00  0.00    -0.005 C 
ATOM     42  C   LIG A   1       3.335  -6.013  -0.857  0.00  0.00    +0.008 C 
ENDBRANCH  39  41
ENDBRANCH  37  38
ENDBRANCH  12  37
TORSDOF 12
