@<TRIPOS>MOLECULE
NuBBE_1174
 105 110 0 0 0
SMALL
GASTEIGER

@<TRIPOS>ATOM
      1 C          -3.6183    0.1688    4.9461 C.3     1  LIG1       -0.0598
      2 C          -2.7584    1.3959    4.5791 C.3     1  LIG1       -0.0343
      3 C          -3.5487    2.3447    3.6633 C.3     1  LIG1       -0.0468
      4 C          -3.8118    1.7535    2.2831 C.3     1  LIG1       -0.0362
      5 C          -2.5560    1.1401    1.5950 C.3     1  LIG1        0.0744
      6 C          -2.3545    1.8734    0.2503 C.3     1  LIG1       -0.0359
      7 C          -1.1706    1.3401   -0.5425 C.3     1  LIG1       -0.0424
      8 C           0.1913    1.2351    0.2229 C.3     1  LIG1       -0.0050
      9 C           1.1327    0.1195   -0.4819 C.3     1  LIG1       -0.0170
     10 C           1.2768    0.3004   -2.0256 C.3     1  LIG1       -0.0201
     11 C           2.5544    0.9145   -2.5899 C.3     1  LIG1        0.0597
     12 H           2.5462    0.6761   -3.6569 H       1  LIG1        0.0596
     13 C           3.8179    0.3183   -1.9397 C.3     1  LIG1        0.0007
     14 H           3.6798   -0.7709   -2.0443 H       1  LIG1        0.0338
     15 C           5.1699    0.5898   -2.7301 C.3     1  LIG1        0.0250
     16 C           5.0904    0.0376   -4.1918 C.3     1  LIG1        0.0524
     17 O           4.8501   -1.3649   -4.2187 O.3     1  LIG1       -0.3944
     18 C           6.3045   -0.2016   -2.0156 C.3     1  LIG1        0.0888
     19 H           6.1447   -1.2785   -2.1529 H       1  LIG1        0.0625
     20 C           6.3940    0.0486   -0.5052 C.3     1  LIG1        0.0822
     21 H           6.7458    1.0639   -0.3033 H       1  LIG1        0.0619
     22 C           5.0690   -0.2411    0.1969 C.3     1  LIG1       -0.0184
     23 C           3.8461    0.5511   -0.3754 C.3     1  LIG1       -0.0202
     24 C           2.5180   -0.0923    0.2438 C.3     1  LIG1       -0.0255
     25 H           2.7262   -1.1605    0.0673 H       1  LIG1        0.0315
     26 C           2.3936   -0.0395    1.7925 C.3     1  LIG1       -0.0306
     27 C           1.0596    0.3384    2.3792 C.2     1  LIG1       -0.0836
     28 C           0.0270    0.9054    1.7202 C.2     1  LIG1       -0.0629
     29 C          -1.2634    1.3729    2.4267 C.3     1  LIG1       -0.0031
     30 H          -1.1296    2.4658    2.4818 H       1  LIG1        0.0357
     31 C          -1.4325    0.9392    3.9072 C.3     1  LIG1       -0.0403
     32 C           4.0395    2.0211    0.0540 C.3     1  LIG1       -0.0588
     33 O           7.3958   -0.8168    0.0480 O.3     1  LIG1       -0.3892
     34 O           7.5944    0.0562   -2.5990 O.3     1  LIG1       -0.3886
     35 C           5.5358    2.0837   -2.8828 C.3     1  LIG1       -0.0547
     36 O           2.5132    2.3271   -2.5246 O.3     1  LIG1       -0.3915
     37 C           0.4012   -1.2893   -0.3391 C.3     1  LIG1       -0.0584
     38 C           0.7853    2.6626    0.2112 C.3     1  LIG1       -0.0553
     39 C          -2.8516   -0.3643    1.3524 C.2     1  LIG1        0.3161
     40 O          -3.8910   -0.4759    0.4751 O.3     1  LIG1       -0.4318
     41 C          -4.3480   -1.8039    0.1445 C.3     1  LIG1        0.2337
     42 H          -4.4190   -2.4209    1.0509 H       1  LIG1        0.1085
     43 C          -5.7468   -1.5924   -0.4880 C.3     1  LIG1        0.1455
     44 H          -5.7071   -0.7181   -1.1497 H       1  LIG1        0.0683
     45 O          -6.7354   -1.2751    0.5064 O.3     1  LIG1       -0.3829
     46 C          -6.2261   -2.8023   -1.2919 C.3     1  LIG1        0.1152
     47 H          -6.5988   -3.5867   -0.6221 H       1  LIG1        0.0648
     48 O          -7.3637   -2.4305   -2.0985 O.3     1  LIG1       -0.3864
     49 C          -5.1255   -3.3595   -2.1936 C.3     1  LIG1        0.1120
     50 H          -4.8884   -2.6203   -2.9698 H       1  LIG1        0.0647
     51 O          -5.5995   -4.5278   -2.8598 O.3     1  LIG1       -0.3865
     52 C          -3.8892   -3.6330   -1.3333 C.3     1  LIG1        0.1140
     53 H          -4.1178   -4.3190   -0.5057 H       1  LIG1        0.0647
     54 C          -2.7633   -4.2534   -2.1703 C.3     1  LIG1        0.0731
     55 O          -1.6346   -4.5353   -1.3447 O.3     1  LIG1       -0.3924
     56 O          -3.4435   -2.3737   -0.8032 O.3     1  LIG1       -0.3312
     57 O          -2.3061   -1.2991    1.9016 O.2     1  LIG1       -0.2501
     58 C          -2.4443    2.1411    5.8929 C.3     1  LIG1       -0.0598
     59 H          -3.9377   -0.3928    4.0640 H       1  LIG1        0.0235
     60 H          -4.5217    0.4706    5.4889 H       1  LIG1        0.0235
     61 H          -3.0632   -0.5227    5.5900 H       1  LIG1        0.0235
     62 H          -3.0057    3.2917    3.5442 H       1  LIG1        0.0271
     63 H          -4.5100    2.6091    4.1227 H       1  LIG1        0.0271
     64 H          -4.2458    2.5466    1.6602 H       1  LIG1        0.0276
     65 H          -4.6123    1.0085    2.3752 H       1  LIG1        0.0276
     66 H          -2.2140    2.9475    0.4304 H       1  LIG1        0.0276
     67 H          -3.2511    1.7964   -0.3786 H       1  LIG1        0.0276
     68 H          -1.0498    1.9993   -1.4133 H       1  LIG1        0.0274
     69 H          -1.4796    0.3823   -0.9623 H       1  LIG1        0.0274
     70 H           0.4195    0.8404   -2.4353 H       1  LIG1        0.0296
     71 H           1.2182   -0.6949   -2.4896 H       1  LIG1        0.0296
     72 H           4.2952    0.5155   -4.7696 H       1  LIG1        0.0563
     73 H           6.0271    0.2321   -4.7290 H       1  LIG1        0.0563
     74 H           5.3023   -1.7140   -5.0086 H       1  LIG1        0.2094
     75 H           5.1898   -0.0481    1.2706 H       1  LIG1        0.0296
     76 H           4.8813   -1.3219    0.1267 H       1  LIG1        0.0296
     77 H           3.1455    0.6133    2.2435 H       1  LIG1        0.0310
     78 H           2.6308   -1.0421    2.1759 H       1  LIG1        0.0310
     79 H           0.9877    0.1382    3.4450 H       1  LIG1        0.0572
     80 H          -0.5908    1.3617    4.4733 H       1  LIG1        0.0276
     81 H          -1.3242   -0.1485    3.9952 H       1  LIG1        0.0276
     82 H           5.0601    2.3742   -0.0937 H       1  LIG1        0.0235
     83 H           3.8628    2.1657    1.1227 H       1  LIG1        0.0235
     84 H           3.3976    2.7202   -0.4736 H       1  LIG1        0.0235
     85 H           8.0891   -0.9000   -0.6359 H       1  LIG1        0.2099
     86 H           7.8320    0.9811   -2.4140 H       1  LIG1        0.2099
     87 H           5.8168    2.5555   -1.9431 H       1  LIG1        0.0237
     88 H           4.7271    2.6654   -3.3312 H       1  LIG1        0.0237
     89 H           6.3970    2.2141   -3.5498 H       1  LIG1        0.0237
     90 H           1.7580    2.6281   -3.0590 H       1  LIG1        0.2098
     91 H          -0.5430   -1.3391   -0.8852 H       1  LIG1        0.0235
     92 H           0.2017   -1.5665    0.6992 H       1  LIG1        0.0235
     93 H           1.0208   -2.0937   -0.7573 H       1  LIG1        0.0235
     94 H           1.0276    2.9990   -0.7962 H       1  LIG1        0.0238
     95 H           1.6710    2.7500    0.8424 H       1  LIG1        0.0238
     96 H           0.0756    3.3979    0.6107 H       1  LIG1        0.0238
     97 H          -7.6051   -1.3308    0.0644 H       1  LIG1        0.2102
     98 H          -7.0909   -1.7107   -2.6976 H       1  LIG1        0.2100
     99 H          -6.5143   -4.3327   -3.1457 H       1  LIG1        0.2100
    100 H          -3.0821   -5.1971   -2.6233 H       1  LIG1        0.0584
    101 H          -2.4427   -3.5627   -2.9568 H       1  LIG1        0.0584
    102 H          -0.9147   -4.8238   -1.9302 H       1  LIG1        0.2095
    103 H          -1.8321    3.0311    5.7081 H       1  LIG1        0.0235
    104 H          -1.8996    1.4974    6.5925 H       1  LIG1        0.0235
    105 H          -3.3639    2.4707    6.3907 H       1  LIG1        0.0235
@<TRIPOS>BOND
     1     2     3    1
     2     3     4    1
     3     4     5    1
     4     5     6    1
     5     6     7    1
     6     7     8    1
     7     8     9    1
     8     9    10    1
     9    10    11    1
    10    11    13    1
    11    13    15    1
    12    16    17    1
    13    15    18    1
    14    18    20    1
    15    20    22    1
    16    22    23    1
    17    13    23    1
    18    23    24    1
    19     9    24    1
    20    24    26    1
    21    26    27    1
    22    27    28    2
    23     8    28    1
    24    28    29    1
    25     5    29    1
    26    29    31    1
    27     2    31    1
    28    39    40    1
    29    40    41    1
    30    41    42    1
    31    41    43    1
    32    43    46    1
    33    46    49    1
    34    49    50    1
    35    49    51    1
    36    49    52    1
    37    54    55    1
    38    52    56    1
    39    41    56    1
    40    39    57    2
    41     1     2    1
    42     2    58    1
    43     5    39    1
    44     8    38    1
    45     9    37    1
    46    11    12    1
    47    11    36    1
    48    13    14    1
    49    15    16    1
    50    15    35    1
    51    18    19    1
    52    18    34    1
    53    23    32    1
    54    24    25    1
    55    29    30    1
    56    20    33    1
    57    20    21    1
    58    43    45    1
    59    43    44    1
    60    46    48    1
    61    46    47    1
    62    52    54    1
    63    52    53    1
    64     1    59    1
    65     1    60    1
    66     1    61    1
    67     3    62    1
    68     3    63    1
    69     4    64    1
    70     4    65    1
    71     6    66    1
    72     6    67    1
    73     7    68    1
    74     7    69    1
    75    10    70    1
    76    10    71    1
    77    16    72    1
    78    16    73    1
    79    17    74    1
    80    22    75    1
    81    22    76    1
    82    26    77    1
    83    26    78    1
    84    27    79    1
    85    31    80    1
    86    31    81    1
    87    32    82    1
    88    32    83    1
    89    32    84    1
    90    33    85    1
    91    34    86    1
    92    35    87    1
    93    35    88    1
    94    35    89    1
    95    36    90    1
    96    37    91    1
    97    37    92    1
    98    37    93    1
    99    38    94    1
   100    38    95    1
   101    38    96    1
   102    45    97    1
   103    48    98    1
   104    51    99    1
   105    54   100    1
   106    54   101    1
   107    55   102    1
   108    58   103    1
   109    58   104    1
   110    58   105    1
