REMARK  Name = NuBBE_2074
REMARK  5 active torsions:
REMARK  status: ('A' for Active; 'I' for Inactive)
REMARK    1  A    between atoms: C_3  and  C_4
REMARK    2  A    between atoms: C_5  and  O_6
REMARK    3  A    between atoms: C_16  and  O_18
REMARK    4  A    between atoms: O_18  and  C_19
REMARK    5  A    between atoms: C_19  and  C_20
REMARK                            x       y       z     vdW  Elec       q    Type
REMARK                         _______ _______ _______ _____ _____    ______ ____
ROOT
ATOM      1  O   LIG A   1      -4.844  -0.335   0.710  0.00  0.00    -0.250 OA
ATOM      2  C   LIG A   1      -3.630  -0.327   0.735  0.00  0.00    +0.319 C 
ATOM      3  C   LIG A   1      -2.689   0.817   1.013  0.00  0.00    +0.125 C 
ATOM      4  C   LIG A   1      -2.448   0.606   2.539  0.00  0.00    +0.029 C 
ATOM      5  C   LIG A   1      -2.808   2.321   0.659  0.00  0.00    +0.183 C 
ATOM      6  C   LIG A   1      -2.532   2.722  -0.832  0.00  0.00    +0.066 C 
ATOM      7  C   LIG A   1      -1.063   2.317  -1.251  0.00  0.00    +0.015 C 
ATOM      8  C   LIG A   1      -0.518   1.365  -0.139  0.00  0.00    +0.005 C 
ATOM      9  C   LIG A   1      -0.449   2.350   1.076  0.00  0.00    +0.170 C 
ATOM     10  O   LIG A   1      -1.718   2.980   1.352  0.00  0.00    -0.347 OA
ATOM     11  C   LIG A   1       0.861   0.661  -0.268  0.00  0.00    +0.005 C 
ATOM     12  C   LIG A   1       1.770   1.241  -1.357  0.00  0.00    +0.005 C 
ATOM     13  C   LIG A   1       3.175   0.645  -1.265  0.00  0.00    +0.004 C 
ATOM     14  C   LIG A   1       3.163  -0.879  -1.283  0.00  0.00    +0.045 C 
ATOM     15  C   LIG A   1       2.230  -1.485  -0.222  0.00  0.00    +0.180 C 
ATOM     16  C   LIG A   1       0.812  -0.896  -0.376  0.00  0.00    +0.037 C 
ATOM     17  C   LIG A   1      -0.228  -1.520   0.604  0.00  0.00    +0.052 C 
ATOM     18  C   LIG A   1      -1.580  -1.114   0.058  0.00  0.00    +0.182 C 
ATOM     19  O   LIG A   1      -2.821  -1.481   0.668  0.00  0.00    -0.461 OA
ATOM     20  C   LIG A   1      -1.675   0.367  -0.016  0.00  0.00    +0.060 C 
ENDROOT
BRANCH   5  21
ATOM     21  O   LIG A   1      -4.013   2.865   1.135  0.00  0.00    -0.364 OA
ATOM     22  H   LIG A   1      -3.977   3.814   0.935  0.00  0.00    +0.213 HD
ENDBRANCH   5  21
BRANCH  15  23
ATOM     23  O   LIG A   1       2.152  -2.908  -0.435  0.00  0.00    -0.461 OA
BRANCH  23  24
ATOM     24  C   LIG A   1       3.180  -3.645   0.072  0.00  0.00    +0.304 C 
ATOM     25  C   LIG A   1       3.013  -5.087  -0.298  0.00  0.00    +0.136 C 
ATOM     26  O   LIG A   1       4.131  -3.200   0.698  0.00  0.00    -0.251 OA
ENDBRANCH  23  24
ENDBRANCH  15  23
TORSDOF 3
