REMARK  Name = NuBBE_253
REMARK  3 active torsions:
REMARK  status: ('A' for Active; 'I' for Inactive)
REMARK    1  A    between atoms: O_1  and  C_2
REMARK    2  A    between atoms: C_5  and  O_7
REMARK    3  A    between atoms: C_8  and  O_10
REMARK                            x       y       z     vdW  Elec       q    Type
REMARK                         _______ _______ _______ _____ _____    ______ ____
ROOT
ATOM      1  C   LIG A   1      -1.507  -1.684  -0.047  0.00  0.00    +0.128 A 
ATOM      2  C   LIG A   1      -0.813  -0.466  -0.021  0.00  0.00    +0.065 A 
ATOM      3  C   LIG A   1       0.595  -0.458  -0.064  0.00  0.00    -0.003 A 
ATOM      4  C   LIG A   1       1.375   0.834  -0.074  0.00  0.00    +0.174 C 
ATOM      5  C   LIG A   1       0.505   2.030  -0.520  0.00  0.00    +0.155 C 
ATOM      6  C   LIG A   1      -0.779   2.082   0.292  0.00  0.00    +0.114 C 
ATOM      7  C   LIG A   1      -1.565   0.817   0.063  0.00  0.00    +0.170 C 
ATOM      8  O   LIG A   1      -2.789   0.805  -0.004  0.00  0.00    -0.292 OA
ATOM      9  C   LIG A   1       1.281  -1.686  -0.087  0.00  0.00    +0.007 A 
ATOM     10  C   LIG A   1       0.579  -2.893  -0.086  0.00  0.00    +0.004 A 
ATOM     11  C   LIG A   1      -0.814  -2.891  -0.074  0.00  0.00    +0.046 A 
ENDROOT
BRANCH   1  12
ATOM     12  O   LIG A   1      -2.873  -1.771  -0.044  0.00  0.00    -0.506 OA
ATOM     13  H   LIG A   1      -3.237  -0.856  -0.052  0.00  0.00    +0.292 HD
ENDBRANCH   1  12
BRANCH   4  14
ATOM     14  O   LIG A   1       1.920   1.080   1.222  0.00  0.00    -0.385 OA
ATOM     15  H   LIG A   1       2.176   0.229   1.617  0.00  0.00    +0.210 HD
ENDBRANCH   4  14
BRANCH   5  16
ATOM     16  O   LIG A   1       1.179   3.285  -0.395  0.00  0.00    -0.389 OA
ATOM     17  H   LIG A   1       2.137   3.122  -0.434  0.00  0.00    +0.210 HD
ENDBRANCH   5  16
TORSDOF 3
