@<TRIPOS>MOLECULE
NuBBE_1881
 59 61 0 0 0
SMALL
GASTEIGER

@<TRIPOS>ATOM
      1 O          -3.9148   -1.2715    0.2675 O.2     1  LIG1       -0.2830
      2 C          -2.7075   -1.1173    0.1667 C.ar    1  LIG1        0.2382
      3 C          -1.7348   -2.2131    0.3813 C.ar    1  LIG1        0.1131
      4 C          -1.9028   -3.5479   -0.0329 C.ar    1  LIG1        0.1797
      5 C          -0.8556   -4.4780    0.2162 C.ar    1  LIG1        0.2045
      6 O          -1.0794   -5.7930   -0.1082 O.3     1  LIG1       -0.4885
      7 C          -0.0324   -6.5486   -0.7150 C.3     1  LIG1        0.0791
      8 C           0.2892   -4.0582    0.9391 C.ar    1  LIG1        0.1687
      9 C           0.4381   -2.7180    1.2876 C.ar    1  LIG1        0.0270
     10 C          -0.5512   -1.8098    0.9806 C.ar    1  LIG1        0.1468
     11 O          -0.2633   -0.4975    1.2397 O.2     1  LIG1       -0.4505
     12 C          -0.8560    0.4116    0.3822 C.ar    1  LIG1        0.1845
     13 C           0.0190    1.5685    0.1222 C.ar    1  LIG1        0.0671
     14 C           0.9952    1.4808   -0.8907 C.ar    1  LIG1       -0.0012
     15 C           1.8883    2.5419   -1.1087 C.ar    1  LIG1        0.1739
     16 O           2.7610    2.4210   -2.2112 O.3     1  LIG1       -0.4223
     17 C           4.0134    3.0417   -2.1119 C.2     1  LIG1        0.3093
     18 C           4.1559    4.0041   -3.2625 C.3     1  LIG1        0.0336
     19 O           4.8422    2.8472   -1.2433 O.2     1  LIG1       -0.2507
     20 C           1.8098    3.7079   -0.3381 C.ar    1  LIG1        0.1657
     21 C           0.8770    3.7765    0.6941 C.ar    1  LIG1        0.0269
     22 C          -0.0275    2.7296    0.9054 C.ar    1  LIG1        0.1461
     23 O          -0.9809    2.7803    1.9519 O.3     1  LIG1       -0.4252
     24 C          -1.5723    3.9897    2.3238 C.2     1  LIG1        0.3092
     25 C          -2.5171    3.7404    3.4548 C.3     1  LIG1        0.0336
     26 O          -1.3624    5.1006    1.8451 O.2     1  LIG1       -0.2507
     27 O           2.5486    4.7940   -0.7222 O.3     1  LIG1       -0.4913
     28 C           3.1114    5.5627    0.3351 C.3     1  LIG1        0.0790
     29 C          -2.0688    0.2076   -0.1689 C.ar    1  LIG1        0.2108
     30 O          -2.6655    1.1391   -0.9973 O.3     1  LIG1       -0.4883
     31 C          -3.5490    0.5808   -1.9659 C.3     1  LIG1        0.0791
     32 O           1.2519   -4.9756    1.2716 O.3     1  LIG1       -0.4912
     33 C           2.0145   -4.6980    2.4426 C.3     1  LIG1        0.0790
     34 O          -3.1030   -3.8283   -0.6369 O.3     1  LIG1       -0.4905
     35 C          -3.1333   -4.8210   -1.6537 C.3     1  LIG1        0.0790
     36 H           0.9860   -6.2784   -0.4400 H       1  LIG1        0.0660
     37 H          -0.1139   -6.4906   -1.8050 H       1  LIG1        0.0660
     38 H          -0.1813   -7.5939   -0.4240 H       1  LIG1        0.0660
     39 H           1.3261   -2.3298    1.7703 H       1  LIG1        0.0692
     40 H           1.0593    0.5931   -1.5157 H       1  LIG1        0.0664
     41 H           3.4109    4.8001   -3.1660 H       1  LIG1        0.0342
     42 H           4.0248    3.4842   -4.2155 H       1  LIG1        0.0342
     43 H           5.1480    4.4635   -3.2438 H       1  LIG1        0.0342
     44 H           0.8200    4.6659    1.3067 H       1  LIG1        0.0692
     45 H          -1.9601    3.4126    4.3354 H       1  LIG1        0.0342
     46 H          -3.2545    2.9943    3.1546 H       1  LIG1        0.0342
     47 H          -3.0388    4.6716    3.6918 H       1  LIG1        0.0342
     48 H           3.7318    6.3377   -0.1246 H       1  LIG1        0.0660
     49 H           3.7530    4.9421    0.9683 H       1  LIG1        0.0660
     50 H           2.3467    6.0730    0.9267 H       1  LIG1        0.0660
     51 H          -3.8255    1.3769   -2.6624 H       1  LIG1        0.0660
     52 H          -4.4713    0.2202   -1.5034 H       1  LIG1        0.0660
     53 H          -3.0588   -0.2150   -2.5384 H       1  LIG1        0.0660
     54 H           2.7519   -5.4955    2.5586 H       1  LIG1        0.0660
     55 H           1.3635   -4.6895    3.3223 H       1  LIG1        0.0660
     56 H           2.5826   -3.7661    2.3655 H       1  LIG1        0.0660
     57 H          -3.1133   -5.8292   -1.2332 H       1  LIG1        0.0660
     58 H          -2.3353   -4.6702   -2.3881 H       1  LIG1        0.0660
     59 H          -4.0895   -4.7274   -2.1805 H       1  LIG1        0.0660
@<TRIPOS>BOND
     1     1     2    2
     2     2     3   ar
     3     3     4   ar
     4     4     5   ar
     5     5     6    1
     6     6     7    1
     7     5     8   ar
     8     8     9   ar
     9     9    10   ar
    10     3    10   ar
    11    10    11   ar
    12    11    12   ar
    13    12    13    1
    14    13    14   ar
    15    14    15   ar
    16    15    16    1
    17    16    17    1
    18    17    18    1
    19    17    19    2
    20    15    20   ar
    21    20    21   ar
    22    21    22   ar
    23    13    22   ar
    24    22    23    1
    25    23    24    1
    26    24    25    1
    27    24    26    2
    28    20    27    1
    29    27    28    1
    30    12    29   ar
    31     2    29   ar
    32    29    30    1
    33    30    31    1
    34     8    32    1
    35    32    33    1
    36     4    34    1
    37    34    35    1
    38     7    36    1
    39     7    37    1
    40     7    38    1
    41     9    39    1
    42    14    40    1
    43    18    41    1
    44    18    42    1
    45    18    43    1
    46    21    44    1
    47    25    45    1
    48    25    46    1
    49    25    47    1
    50    28    48    1
    51    28    49    1
    52    28    50    1
    53    31    51    1
    54    31    52    1
    55    31    53    1
    56    33    54    1
    57    33    55    1
    58    33    56    1
    59    35    57    1
    60    35    58    1
    61    35    59    1
