REMARK  Name = NuBBE_1416
REMARK  2 active torsions:
REMARK  status: ('A' for Active; 'I' for Inactive)
REMARK    1  A    between atoms: C_3  and  C_5
REMARK    2  A    between atoms: C_17  and  C_19
REMARK                            x       y       z     vdW  Elec       q    Type
REMARK                         _______ _______ _______ _____ _____    ______ ____
ROOT
ATOM      1  C   LIG A   1      -1.046   0.598  -1.228  0.00  0.00    +0.056 C 
ATOM      2  C   LIG A   1      -0.379   1.960  -1.123  0.00  0.00    +0.154 C 
ATOM      3  O   LIG A   1       1.032   1.691  -0.998  0.00  0.00    -0.371 OA
ATOM      4  C   LIG A   1       1.232   0.292  -0.732  0.00  0.00    +0.167 C 
ATOM      5  C   LIG A   1      -0.136  -0.312  -0.449  0.00  0.00    +0.056 C 
ATOM      6  C   LIG A   1      -0.409  -1.673  -1.070  0.00  0.00    +0.154 C 
ATOM      7  O   LIG A   1      -0.711  -1.417  -2.457  0.00  0.00    -0.371 OA
ATOM      8  C   LIG A   1      -0.984  -0.016  -2.620  0.00  0.00    +0.167 C 
ENDROOT
BRANCH   2   9
ATOM      9  C   LIG A   1      -0.874   2.781   0.060  0.00  0.00    -0.015 A 
ATOM     10  C   LIG A   1       0.003   3.208   1.088  0.00  0.00    +0.010 A 
ATOM     11  C   LIG A   1      -0.452   3.970   2.169  0.00  0.00    +0.050 A 
ATOM     12  C   LIG A   1      -1.787   4.301   2.201  0.00  0.00    +0.166 A 
ATOM     13  O   LIG A   1      -2.403   5.030   3.170  0.00  0.00    -0.453 OA
ATOM     14  C   LIG A   1      -3.758   5.042   2.677  0.00  0.00    +0.466 C 
ATOM     15  O   LIG A   1      -3.922   4.342   1.426  0.00  0.00    -0.453 OA
ATOM     16  C   LIG A   1      -2.651   3.909   1.208  0.00  0.00    +0.167 A 
ATOM     17  C   LIG A   1      -2.229   3.160   0.127  0.00  0.00    +0.055 A 
ENDBRANCH   2   9
BRANCH   6  18
ATOM     18  C   LIG A   1       0.692  -2.692  -0.874  0.00  0.00    -0.015 A 
ATOM     19  C   LIG A   1       1.366  -3.278  -1.972  0.00  0.00    +0.010 A 
ATOM     20  C   LIG A   1       2.386  -4.217  -1.781  0.00  0.00    +0.050 A 
ATOM     21  C   LIG A   1       2.711  -4.557  -0.487  0.00  0.00    +0.166 A 
ATOM     22  C   LIG A   1       2.061  -4.003   0.588  0.00  0.00    +0.167 A 
ATOM     23  O   LIG A   1       2.528  -4.473   1.776  0.00  0.00    -0.453 OA
ATOM     24  C   LIG A   1       3.544  -5.391   1.323  0.00  0.00    +0.466 C 
ATOM     25  O   LIG A   1       3.669  -5.447  -0.114  0.00  0.00    -0.453 OA
ATOM     26  C   LIG A   1       1.052  -3.076   0.431  0.00  0.00    +0.055 A 
ENDBRANCH   6  18
TORSDOF 2
