REMARK  Name = NuBBE_1759
REMARK  16 active torsions:
REMARK  status: ('A' for Active; 'I' for Inactive)
REMARK    1  A    between atoms: C_1  and  C_2
REMARK    2  A    between atoms: C_2  and  C_3
REMARK    3  A    between atoms: C_3  and  C_4
REMARK    4  A    between atoms: C_4  and  C_5
REMARK    5  A    between atoms: C_6  and  C_7
REMARK    6  A    between atoms: C_6  and  C_8
REMARK    7  A    between atoms: C_9  and  C_10
REMARK    8  A    between atoms: C_10  and  C_11
REMARK    9  A    between atoms: C_13  and  C_14
REMARK   10  A    between atoms: C_14  and  O_15
REMARK   11  A    between atoms: O_15  and  C_16
REMARK   12  A    between atoms: C_19  and  C_20
REMARK   13  A    between atoms: C_20  and  C_21
REMARK   14  A    between atoms: C_22  and  C_23
REMARK   15  A    between atoms: C_22  and  C_24
REMARK   16  A    between atoms: C_25  and  O_26
REMARK                            x       y       z     vdW  Elec       q    Type
REMARK                         _______ _______ _______ _____ _____    ______ ____
ROOT
ATOM      1  C   LIG A   1       1.101  -0.500   0.899  0.00  0.00    -0.001 A 
ATOM      2  C   LIG A   1       1.917  -0.950  -0.145  0.00  0.00    +0.022 A 
ATOM      3  C   LIG A   1       2.923  -0.126  -0.669  0.00  0.00    +0.060 A 
ATOM      4  C   LIG A   1       3.122   1.160  -0.145  0.00  0.00    +0.022 A 
ATOM      5  C   LIG A   1       2.287   1.657   0.871  0.00  0.00    -0.001 A 
ATOM      6  C   LIG A   1       1.299   0.801   1.391  0.00  0.00    +0.124 A 
ENDROOT
BRANCH   3   7
ATOM      7  C   LIG A   1       3.757  -0.594  -1.799  0.00  0.00    +0.339 C 
ATOM      8  O   LIG A   1       4.910  -0.228  -2.007  0.00  0.00    -0.245 OA
BRANCH   7   9
ATOM      9  O   LIG A   1       3.015  -1.420  -2.570  0.00  0.00    -0.465 OA
ATOM     10  C   LIG A   1       3.658  -1.937  -3.733  0.00  0.00    +0.280 C 
ENDBRANCH   7   9
ENDBRANCH   3   7
BRANCH   6  11
ATOM     11  O   LIG A   1       0.489   1.213   2.411  0.00  0.00    -0.506 OA
ATOM     12  H   LIG A   1       1.053   1.675   3.054  0.00  0.00    +0.292 HD
ENDBRANCH   6  11
BRANCH   1  13
ATOM     13  C   LIG A   1      -0.000  -1.398   1.431  0.00  0.00    +0.066 C 
BRANCH  13  16
ATOM     14  C   LIG A   1      -2.693  -2.861   1.986  0.00  0.00    +0.038 C 
ATOM     15  C   LIG A   1      -2.447  -1.890   0.863  0.00  0.00    -0.076 C 
ATOM     16  C   LIG A   1      -1.274  -1.261   0.640  0.00  0.00    -0.023 C 
BRANCH  15  17
ATOM     17  C   LIG A   1      -3.638  -1.608  -0.034  0.00  0.00    +0.034 C 
BRANCH  17  18
ATOM     18  C   LIG A   1      -4.143  -2.855  -0.769  0.00  0.00    +0.031 C 
BRANCH  18  19
ATOM     19  C   LIG A   1      -5.304  -2.530  -1.664  0.00  0.00    -0.028 C 
ATOM     20  C   LIG A   1      -5.245  -2.156  -2.955  0.00  0.00    -0.080 C 
ATOM     21  C   LIG A   1      -3.971  -1.963  -3.731  0.00  0.00    +0.038 C 
ATOM     22  C   LIG A   1      -6.505  -1.872  -3.726  0.00  0.00    +0.038 C 
ENDBRANCH  18  19
ENDBRANCH  17  18
ENDBRANCH  15  17
ENDBRANCH  13  16
ENDBRANCH   1  13
BRANCH   5  23
ATOM     23  C   LIG A   1       2.455   3.095   1.337  0.00  0.00    +0.066 C 
BRANCH  23  24
ATOM     24  C   LIG A   1       3.500   3.262   2.410  0.00  0.00    -0.023 C 
ATOM     25  C   LIG A   1       3.856   4.413   3.018  0.00  0.00    -0.079 C 
ATOM     26  C   LIG A   1       3.268   5.771   2.740  0.00  0.00    +0.038 C 
ATOM     27  C   LIG A   1       4.938   4.435   4.067  0.00  0.00    +0.038 C 
ENDBRANCH  23  24
ENDBRANCH   5  23
TORSDOF 10
