REMARK  Name = NuBBE_2153
REMARK  10 active torsions:
REMARK  status: ('A' for Active; 'I' for Inactive)
REMARK    1  A    between atoms: C_1  and  O_2
REMARK    2  A    between atoms: O_2  and  C_3
REMARK    3  A    between atoms: C_10  and  C_11
REMARK    4  A    between atoms: C_13  and  C_15
REMARK    5  A    between atoms: C_18  and  C_19
REMARK    6  A    between atoms: C_19  and  C_20
REMARK    7  A    between atoms: C_23  and  O_24
REMARK    8  A    between atoms: O_24  and  C_25
REMARK    9  A    between atoms: C_26  and  O_27
REMARK   10  A    between atoms: O_27  and  C_28
REMARK                            x       y       z     vdW  Elec       q    Type
REMARK                         _______ _______ _______ _____ _____    ______ ____
ROOT
ATOM      1  C   LIG A   1      -0.659   0.363  -0.882  0.00  0.00    +0.073 C 
ATOM      2  C   LIG A   1      -0.267   1.196  -2.122  0.00  0.00    +0.178 C 
ATOM      3  C   LIG A   1      -1.415   1.373  -3.111  0.00  0.00    +0.052 C 
ATOM      4  O   LIG A   1       0.129   2.497  -1.650  0.00  0.00    -0.488 OA
ATOM      5  C   LIG A   1       0.217   2.419  -0.257  0.00  0.00    +0.150 C 
ATOM      6  C   LIG A   1       0.236   0.977   0.235  0.00  0.00    +0.048 C 
ATOM      7  C   LIG A   1      -0.425   0.929   1.628  0.00  0.00    +0.055 C 
ATOM      8  C   LIG A   1       0.138   2.001   2.582  0.00  0.00    +0.193 C 
ATOM      9  C   LIG A   1       0.120   3.538   0.474  0.00  0.00    +0.203 C 
ATOM     10  C   LIG A   1       0.012   3.412   1.968  0.00  0.00    +0.229 C 
ATOM     11  O   LIG A   1      -0.144   4.393   2.650  0.00  0.00    -0.286 OA
ENDROOT
BRANCH   1  19
ATOM     12  C   LIG A   1       0.024  -3.216  -2.235  0.00  0.00    +0.166 A 
ATOM     13  C   LIG A   1      -0.892  -3.910  -1.472  0.00  0.00    +0.207 A 
ATOM     14  O   LIG A   1      -1.196  -5.235  -1.551  0.00  0.00    -0.449 OA
ATOM     15  C   LIG A   1      -2.307  -5.330  -0.649  0.00  0.00    +0.467 C 
ATOM     16  O   LIG A   1      -2.519  -4.123   0.107  0.00  0.00    -0.453 OA
ATOM     17  C   LIG A   1      -1.659  -3.273  -0.523  0.00  0.00    +0.170 A 
ATOM     18  C   LIG A   1      -1.568  -1.914  -0.286  0.00  0.00    +0.053 A 
ATOM     19  C   LIG A   1      -0.691  -1.148  -1.076  0.00  0.00    -0.033 A 
ATOM     20  C   LIG A   1       0.101  -1.824  -2.043  0.00  0.00    +0.053 A 
BRANCH  12  22
ATOM     21  C   LIG A   1       1.197  -5.100  -3.063  0.00  0.00    +0.277 C 
ATOM     22  O   LIG A   1       0.831  -3.730  -3.211  0.00  0.00    -0.491 OA
ENDBRANCH  12  22
ENDBRANCH   1  19
BRANCH   8  23
ATOM     23  O   LIG A   1      -0.530   1.836   3.842  0.00  0.00    -0.372 OA
ATOM     24  C   LIG A   1      -0.111   2.766   4.843  0.00  0.00    +0.195 C 
ENDBRANCH   8  23
BRANCH   9  25
ATOM     25  O   LIG A   1       0.001   4.765  -0.166  0.00  0.00    -0.489 OA
ATOM     26  C   LIG A   1       0.550   5.893   0.533  0.00  0.00    +0.277 C 
ENDBRANCH   9  25
BRANCH   6  27
ATOM     27  C   LIG A   1       1.713   0.446   0.257  0.00  0.00    +0.042 C 
BRANCH  27  28
ATOM     28  C   LIG A   1       1.942  -0.961   0.761  0.00  0.00    -0.034 C 
ATOM     29  C   LIG A   1       2.715  -1.312   1.796  0.00  0.00    +0.004 C 
ENDBRANCH  27  28
ENDBRANCH   6  27
TORSDOF 6
