REMARK  Name = NuBBE_1954
REMARK  26 active torsions:
REMARK  status: ('A' for Active; 'I' for Inactive)
REMARK    1  A    between atoms: O_1  and  C_2
REMARK    2  A    between atoms: O_1  and  C_3
REMARK    3  A    between atoms: C_6  and  O_7
REMARK    4  A    between atoms: O_7  and  C_8
REMARK    5  A    between atoms: N_12  and  C_39
REMARK    6  A    between atoms: C_15  and  C_16
REMARK    7  A    between atoms: C_16  and  C_17
REMARK    8  A    between atoms: C_17  and  O_18
REMARK    9  A    between atoms: C_17  and  C_36
REMARK   10  A    between atoms: O_18  and  C_19
REMARK   11  A    between atoms: C_19  and  C_21
REMARK   12  A    between atoms: C_21  and  C_22
REMARK   13  A    between atoms: C_22  and  C_23
REMARK   14  A    between atoms: C_23  and  C_24
REMARK   15  A    between atoms: C_24  and  C_25
REMARK   16  A    between atoms: C_25  and  C_26
REMARK   17  A    between atoms: C_26  and  C_27
REMARK   18  A    between atoms: C_27  and  C_28
REMARK   19  A    between atoms: C_28  and  C_29
REMARK   20  A    between atoms: C_29  and  C_30
REMARK   21  A    between atoms: C_30  and  C_31
REMARK   22  A    between atoms: C_31  and  C_32
REMARK   23  A    between atoms: C_32  and  C_33
REMARK   24  A    between atoms: C_33  and  C_34
REMARK   25  A    between atoms: C_34  and  C_35
REMARK   26  A    between atoms: C_36  and  C_38
REMARK                            x       y       z     vdW  Elec       q    Type
REMARK                         _______ _______ _______ _____ _____    ______ ____
ROOT
ATOM      1  C   LIG A   1       1.598   2.409  -2.275  0.00  0.00    +0.206 C 
ENDROOT
BRANCH   1   2
ATOM      2  C   LIG A   1       0.647   1.280  -2.801  0.00  0.00    -0.039 C 
ATOM      3  C   LIG A   1       0.092   0.311  -2.044  0.00  0.00    +0.011 C 
ATOM      4  C   LIG A   1       0.430   1.221  -4.294  0.00  0.00    +0.042 C 
ENDBRANCH   1   2
BRANCH   1   5
ATOM      5  O   LIG A   1       2.893   1.761  -2.008  0.00  0.00    -0.457 OA
BRANCH   5   6
ATOM      6  C   LIG A   1       2.923   0.633  -1.254  0.00  0.00    +0.308 C 
ATOM      7  O   LIG A   1       2.746   0.672  -0.008  0.00  0.00    -0.251 OA
BRANCH   6   8
ATOM      8  C   LIG A   1       3.183  -0.683  -2.008  0.00  0.00    +0.120 C 
BRANCH   8   9
ATOM      9  C   LIG A   1       2.782  -1.941  -1.218  0.00  0.00    +0.011 C 
BRANCH   9  10
ATOM     10  C   LIG A   1       2.856  -3.241  -2.058  0.00  0.00    +0.000 C 
BRANCH  10  11
ATOM     11  C   LIG A   1       2.895  -4.594  -1.287  0.00  0.00    +0.000 C 
BRANCH  11  12
ATOM     12  C   LIG A   1       1.604  -4.932  -0.529  0.00  0.00    -0.000 C 
BRANCH  12  13
ATOM     13  C   LIG A   1       1.531  -6.311   0.171  0.00  0.00    -0.000 C 
BRANCH  13  14
ATOM     14  C   LIG A   1       0.233  -6.393   1.021  0.00  0.00    -0.000 C 
BRANCH  14  15
ATOM     15  C   LIG A   1      -1.069  -6.497   0.209  0.00  0.00    -0.000 C 
BRANCH  15  16
ATOM     16  C   LIG A   1      -2.357  -6.721   1.026  0.00  0.00    -0.000 C 
BRANCH  16  17
ATOM     17  C   LIG A   1      -2.731  -5.627   2.047  0.00  0.00    -0.000 C 
BRANCH  17  18
ATOM     18  C   LIG A   1      -4.087  -5.978   2.691  0.00  0.00    -0.000 C 
BRANCH  18  19
ATOM     19  C   LIG A   1      -4.534  -5.104   3.870  0.00  0.00    -0.000 C 
BRANCH  19  20
ATOM     20  C   LIG A   1      -5.890  -5.564   4.456  0.00  0.00    -0.000 C 
BRANCH  20  21
ATOM     21  C   LIG A   1      -5.843  -7.000   4.995  0.00  0.00    -0.003 C 
ATOM     22  C   LIG A   1      -7.165  -7.486   5.568  0.00  0.00    +0.004 C 
ENDBRANCH  20  21
ENDBRANCH  19  20
ENDBRANCH  18  19
ENDBRANCH  17  18
ENDBRANCH  16  17
ENDBRANCH  15  16
ENDBRANCH  14  15
ENDBRANCH  13  14
ENDBRANCH  12  13
ENDBRANCH  11  12
ENDBRANCH  10  11
ENDBRANCH   9  10
ENDBRANCH   8   9
ENDBRANCH   6   8
ENDBRANCH   5   6
ENDBRANCH   1   5
BRANCH   1  23
ATOM     23  C   LIG A   1       0.966   3.405  -1.152  0.00  0.00    +0.093 C 
BRANCH  23  34
ATOM     24  C   LIG A   1       2.411   5.673  -0.900  0.00  0.00    +0.138 A 
ATOM     25  C   LIG A   1       2.544   7.271  -0.714  0.00  0.00    +0.044 A 
ATOM     26  C   LIG A   1       1.356   7.941  -0.856  0.00  0.00    +0.097 A 
ATOM     27  C   LIG A   1       1.428   9.278  -1.369  0.00  0.00    +0.144 A 
ATOM     28  C   LIG A   1       2.655   9.941  -1.648  0.00  0.00    +0.048 A 
ATOM     29  C   LIG A   1       3.833   9.389  -1.256  0.00  0.00    +0.004 A 
ATOM     30  C   LIG A   1       3.733   8.141  -0.673  0.00  0.00    +0.014 A 
ATOM     31  N   LIG A   1       0.204   7.232  -0.388  0.00  0.00    -0.308 N 
ATOM     32  C   LIG A   1       0.051   5.810  -0.415  0.00  0.00    +0.258 A 
ATOM     33  O   LIG A   1      -0.938   5.268  -0.036  0.00  0.00    -0.267 OA
ATOM     34  C   LIG A   1       1.234   4.992  -0.903  0.00  0.00    +0.063 A 
ATOM     35  C   LIG A   1      -0.471   7.856   0.740  0.00  0.00    +0.152 C 
BRANCH  24  36
ATOM     36  O   LIG A   1       3.557   4.921  -1.242  0.00  0.00    -0.494 OA
ATOM     37  C   LIG A   1       4.614   5.821  -1.225  0.00  0.00    +0.277 C 
ENDBRANCH  24  36
BRANCH  27  38
ATOM     38  O   LIG A   1       0.401  10.087  -1.777  0.00  0.00    -0.493 OA
ATOM     39  C   LIG A   1      -0.898   9.562  -1.681  0.00  0.00    +0.277 C 
ENDBRANCH  27  38
ENDBRANCH  23  34
ENDBRANCH   1  23
TORSDOF 21
