REMARK  Name = NuBBE_2401
REMARK  6 active torsions:
REMARK  status: ('A' for Active; 'I' for Inactive)
REMARK    1  A    between atoms: O_1  and  C_2
REMARK    2  A    between atoms: O_1  and  C_3
REMARK    3  A    between atoms: C_4  and  C_11
REMARK    4  A    between atoms: C_7  and  O_9
REMARK    5  A    between atoms: O_9  and  C_10
REMARK    6  A    between atoms: C_19  and  O_22
REMARK                            x       y       z     vdW  Elec       q    Type
REMARK                         _______ _______ _______ _____ _____    ______ ____
ROOT
ATOM      1  C   LIG A   1       0.600  -0.728   1.419  0.00  0.00    +0.064 C 
ATOM      2  C   LIG A   1      -0.795  -0.788   2.057  0.00  0.00    +0.050 C 
ATOM      3  C   LIG A   1      -1.462   0.558   2.126  0.00  0.00    -0.005 A 
ATOM      4  C   LIG A   1      -0.732   1.736   1.932  0.00  0.00    +0.127 A 
ATOM      5  O   LIG A   1       0.598   1.756   1.615  0.00  0.00    -0.491 OA
ATOM      6  C   LIG A   1       1.310   0.545   1.893  0.00  0.00    +0.237 C 
ATOM      7  C   LIG A   1      -1.366   2.978   1.994  0.00  0.00    +0.091 A 
ATOM      8  C   LIG A   1      -2.728   3.041   2.260  0.00  0.00    +0.120 A 
ATOM      9  C   LIG A   1      -3.470   1.881   2.454  0.00  0.00    +0.046 A 
ATOM     10  C   LIG A   1      -2.836   0.641   2.390  0.00  0.00    +0.011 A 
ENDROOT
BRANCH   1  12
ATOM     11  C   LIG A   1       1.762  -1.442  -0.739  0.00  0.00    +0.127 A 
ATOM     12  C   LIG A   1       0.634  -0.884  -0.103  0.00  0.00    +0.001 A 
ATOM     13  C   LIG A   1      -0.441  -0.475  -0.906  0.00  0.00    +0.011 A 
ATOM     14  C   LIG A   1      -0.427  -0.651  -2.290  0.00  0.00    +0.046 A 
ATOM     15  C   LIG A   1       0.674  -1.236  -2.908  0.00  0.00    +0.124 A 
ATOM     16  C   LIG A   1       1.766  -1.627  -2.128  0.00  0.00    +0.091 A 
BRANCH  11  17
ATOM     17  O   LIG A   1       2.793  -1.831   0.080  0.00  0.00    -0.495 OA
ATOM     18  C   LIG A   1       4.094  -1.810  -0.500  0.00  0.00    +0.277 C 
ENDBRANCH  11  17
BRANCH  15  19
ATOM     19  O   LIG A   1       0.793  -1.475  -4.250  0.00  0.00    -0.495 OA
ATOM     20  C   LIG A   1      -0.299  -1.065  -5.066  0.00  0.00    +0.277 C 
ENDBRANCH  15  19
ENDBRANCH   1  12
BRANCH   8  21
ATOM     21  O   LIG A   1      -3.386   4.233   2.338  0.00  0.00    -0.507 OA
ATOM     22  H   LIG A   1      -2.742   4.948   2.204  0.00  0.00    +0.292 HD
ENDBRANCH   8  21
TORSDOF 4
