@<TRIPOS>MOLECULE
NuBBE_491
 75 79 0 0 0
SMALL
GASTEIGER

@<TRIPOS>ATOM
      1 O           4.8336    0.2721    4.9726 O.3     1  LIG1       -0.3917
      2 C           5.4880   -0.3660    3.8772 C.3     1  LIG1        0.0583
      3 H           6.5552   -0.3469    4.1250 H       1  LIG1        0.0594
      4 C           5.0390   -1.8245    3.7630 C.3     1  LIG1       -0.0261
      5 C           3.6310   -1.9809    3.1749 C.3     1  LIG1       -0.0419
      6 C           3.4524   -1.2495    1.8195 C.3     1  LIG1        0.0096
      7 C           3.8827    0.2606    1.9794 C.3     1  LIG1        0.1306
      8 O           3.8854    0.8504    0.6571 O.3     1  LIG1       -0.2225
      9 O           2.5859    0.5697   -0.0265 O.3     1  LIG1       -0.2225
     10 C           5.2809    0.4318    2.5886 C.3     1  LIG1        0.0095
     11 C           2.8482    1.0854    2.7195 C.2     1  LIG1       -0.0501
     12 C           1.6529    1.0845    2.1388 C.2     1  LIG1       -0.0501
     13 C           1.5549    0.1835    0.9178 C.3     1  LIG1        0.1293
     14 C           1.9123   -1.2543    1.3985 C.3     1  LIG1        0.0035
     15 C           1.4481   -2.3559    0.4241 C.3     1  LIG1       -0.0461
     16 C           1.0211   -1.8252   -0.9462 C.3     1  LIG1       -0.0466
     17 C          -0.1174   -0.7646   -0.8837 C.3     1  LIG1       -0.0229
     18 C           0.1604    0.2775    0.2551 C.3     1  LIG1        0.0007
     19 C          -0.0921    1.6353   -0.4053 C.3     1  LIG1       -0.0464
     20 C           0.3469    1.4612   -1.8482 C.3     1  LIG1       -0.0488
     21 C          -0.1434    0.0599   -2.2503 C.3     1  LIG1       -0.0293
     22 H           0.6244   -0.3682   -2.9103 H       1  LIG1        0.0312
     23 C          -1.4301    0.1007   -3.1442 C.3     1  LIG1       -0.0224
     24 H          -1.7468   -0.9356   -3.3114 H       1  LIG1        0.0343
     25 C          -2.5856    0.8904   -2.5854 C.2     1  LIG1       -0.0846
     26 C          -3.8657    0.4871   -2.6287 C.2     1  LIG1       -0.0846
     27 C          -5.0495    1.3010   -2.1445 C.3     1  LIG1       -0.0234
     28 H          -5.9091    0.9953   -2.7572 H       1  LIG1        0.0343
     29 C          -5.3726    0.9967   -0.6543 C.3     1  LIG1       -0.0407
     30 C          -6.5813    1.7940   -0.1510 C.3     1  LIG1       -0.0621
     31 C          -5.6354   -0.4974   -0.4132 C.3     1  LIG1       -0.0621
     32 C          -4.8382    2.8009   -2.4139 C.3     1  LIG1       -0.0587
     33 C          -1.1451    0.6903   -4.5481 C.3     1  LIG1       -0.0587
     34 C          -1.4281   -1.5054   -0.5384 C.3     1  LIG1       -0.0589
     35 C           4.3497   -1.9426    0.7582 C.3     1  LIG1       -0.0562
     36 H           3.9057   -0.0136    5.0042 H       1  LIG1        0.2098
     37 H           5.0534   -2.2919    4.7551 H       1  LIG1        0.0290
     38 H           5.7558   -2.3745    3.1426 H       1  LIG1        0.0290
     39 H           2.9042   -1.6051    3.9055 H       1  LIG1        0.0272
     40 H           3.4105   -3.0492    3.0554 H       1  LIG1        0.0272
     41 H           5.4730    1.4975    2.7756 H       1  LIG1        0.0322
     42 H           6.0387    0.1336    1.8536 H       1  LIG1        0.0322
     43 H           3.0914    1.7066    3.5767 H       1  LIG1        0.0599
     44 H           0.8107    1.6649    2.5038 H       1  LIG1        0.0599
     45 H           1.3272   -1.4397    2.3135 H       1  LIG1        0.0339
     46 H           0.5967   -2.8775    0.8800 H       1  LIG1        0.0269
     47 H           2.1924   -3.1446    0.2942 H       1  LIG1        0.0269
     48 H           1.9053   -1.4106   -1.4444 H       1  LIG1        0.0271
     49 H           0.7024   -2.6692   -1.5718 H       1  LIG1        0.0271
     50 H          -0.5806    0.1532    1.0588 H       1  LIG1        0.0338
     51 H           0.4287    2.4666    0.0778 H       1  LIG1        0.0269
     52 H          -1.1620    1.8621   -0.3502 H       1  LIG1        0.0269
     53 H          -0.0294    2.2699   -2.4790 H       1  LIG1        0.0268
     54 H           1.4385    1.4991   -1.9247 H       1  LIG1        0.0268
     55 H          -2.3580    1.8715   -2.1808 H       1  LIG1        0.0572
     56 H          -4.0993   -0.4818   -3.0675 H       1  LIG1        0.0572
     57 H          -4.5084    1.2839   -0.0398 H       1  LIG1        0.0301
     58 H          -7.4684    1.5956   -0.7619 H       1  LIG1        0.0233
     59 H          -6.3860    2.8702   -0.1654 H       1  LIG1        0.0233
     60 H          -6.8176    1.5289    0.8852 H       1  LIG1        0.0233
     61 H          -6.4415   -0.8670   -1.0558 H       1  LIG1        0.0233
     62 H          -5.9228   -0.6793    0.6282 H       1  LIG1        0.0233
     63 H          -4.7427   -1.0998   -0.6068 H       1  LIG1        0.0233
     64 H          -4.5263    2.9691   -3.4520 H       1  LIG1        0.0235
     65 H          -4.0723    3.2277   -1.7567 H       1  LIG1        0.0235
     66 H          -5.7586    3.3712   -2.2633 H       1  LIG1        0.0235
     67 H          -2.0594    0.7071   -5.1571 H       1  LIG1        0.0235
     68 H          -0.4127    0.0840   -5.0901 H       1  LIG1        0.0235
     69 H          -0.7723    1.7211   -4.5168 H       1  LIG1        0.0235
     70 H          -1.3812   -1.9326    0.4724 H       1  LIG1        0.0235
     71 H          -1.6262   -2.3352   -1.2237 H       1  LIG1        0.0235
     72 H          -2.2911   -0.8378   -0.5324 H       1  LIG1        0.0235
     73 H           5.4138   -1.7507    0.9225 H       1  LIG1        0.0236
     74 H           4.1210   -1.6033   -0.2568 H       1  LIG1        0.0236
     75 H           4.2347   -3.0315    0.7836 H       1  LIG1        0.0236
@<TRIPOS>BOND
     1     1     2    1
     2     2     3    1
     3     2     4    1
     4     4     5    1
     5     5     6    1
     6     6     7    1
     7     7     8    1
     8     8     9    1
     9     7    10    1
    10     2    10    1
    11     7    11    1
    12    11    12    2
    13    12    13    1
    14     9    13    1
    15    13    14    1
    16     6    14    1
    17    14    15    1
    18    15    16    1
    19    16    17    1
    20    17    18    1
    21    13    18    1
    22    18    19    1
    23    19    20    1
    24    20    21    1
    25    17    21    1
    26    23    24    1
    27    23    25    1
    28    25    26    2
    29    26    27    1
    30    27    28    1
    31    27    29    1
    32    29    30    1
    33    29    31    1
    34    27    32    1
    35    23    33    1
    36    17    34    1
    37     6    35    1
    38    21    23    1
    39    21    22    1
    40     1    36    1
    41     4    37    1
    42     4    38    1
    43     5    39    1
    44     5    40    1
    45    10    41    1
    46    10    42    1
    47    11    43    1
    48    12    44    1
    49    14    45    1
    50    15    46    1
    51    15    47    1
    52    16    48    1
    53    16    49    1
    54    18    50    1
    55    19    51    1
    56    19    52    1
    57    20    53    1
    58    20    54    1
    59    25    55    1
    60    26    56    1
    61    29    57    1
    62    30    58    1
    63    30    59    1
    64    30    60    1
    65    31    61    1
    66    31    62    1
    67    31    63    1
    68    32    64    1
    69    32    65    1
    70    32    66    1
    71    33    67    1
    72    33    68    1
    73    33    69    1
    74    34    70    1
    75    34    71    1
    76    34    72    1
    77    35    73    1
    78    35    74    1
    79    35    75    1
