REMARK  Name = NuBBE_663
REMARK  2 active torsions:
REMARK  status: ('A' for Active; 'I' for Inactive)
REMARK    1  A    between atoms: C_8  and  O_9
REMARK    2  A    between atoms: O_9  and  C_10
REMARK                            x       y       z     vdW  Elec       q    Type
REMARK                         _______ _______ _______ _____ _____    ______ ____
ROOT
ATOM      1  O   LIG A   1      -4.808  -0.804   0.590  0.00  0.00    -0.245 OA
ATOM      2  C   LIG A   1      -3.609  -0.693   0.362  0.00  0.00    +0.337 A 
ATOM      3  C   LIG A   1      -2.803  -1.863  -0.020  0.00  0.00    +0.093 A 
ATOM      4  C   LIG A   1      -1.492  -1.781  -0.264  0.00  0.00    +0.022 A 
ATOM      5  O   LIG A   1      -2.942   0.521   0.448  0.00  0.00    -0.422 OA
ATOM      6  C   LIG A   1      -1.556   0.628   0.187  0.00  0.00    +0.146 A 
ATOM      7  C   LIG A   1      -0.804  -0.498  -0.160  0.00  0.00    +0.060 A 
ATOM      8  C   LIG A   1       0.579  -0.354  -0.392  0.00  0.00    +0.141 A 
ATOM      9  C   LIG A   1      -1.010   1.909   0.297  0.00  0.00    +0.094 A 
ATOM     10  C   LIG A   1       0.349   2.007   0.019  0.00  0.00    +0.142 A 
ATOM     11  C   LIG A   1       1.161   0.932  -0.330  0.00  0.00    +0.062 A 
ATOM     12  C   LIG A   1       2.451   1.487  -0.553  0.00  0.00    +0.053 A 
ATOM     13  C   LIG A   1       2.345   2.837  -0.310  0.00  0.00    +0.196 A 
ATOM     14  O   LIG A   1       1.074   3.160   0.040  0.00  0.00    -0.463 OA
ENDROOT
BRANCH   8  15
ATOM     15  O   LIG A   1       1.320  -1.459  -0.761  0.00  0.00    -0.494 OA
ATOM     16  C   LIG A   1       2.137  -1.891   0.328  0.00  0.00    +0.277 C 
ENDBRANCH   8  15
TORSDOF 1
