REMARK  Name = NuBBE_1019
REMARK  11 active torsions:
REMARK  status: ('A' for Active; 'I' for Inactive)
REMARK    1  A    between atoms: C_1  and  O_2
REMARK    2  A    between atoms: O_2  and  C_3
REMARK    3  A    between atoms: C_7  and  C_8
REMARK    4  A    between atoms: C_7  and  C_9
REMARK    5  A    between atoms: C_13  and  O_14
REMARK    6  A    between atoms: O_14  and  C_15
REMARK    7  A    between atoms: C_16  and  C_17
REMARK    8  A    between atoms: C_17  and  C_18
REMARK    9  A    between atoms: C_18  and  C_19
REMARK   10  A    between atoms: C_19  and  O_20
REMARK   11  A    between atoms: O_20  and  C_21
REMARK                            x       y       z     vdW  Elec       q    Type
REMARK                         _______ _______ _______ _____ _____    ______ ____
ROOT
ATOM      1  C   LIG A   1      -1.235   0.468  -1.091  0.00  0.00    +0.130 A 
ATOM      2  C   LIG A   1      -0.950   1.700  -0.509  0.00  0.00    +0.092 A 
ATOM      3  C   LIG A   1      -0.404   1.784   0.763  0.00  0.00    +0.136 A 
ATOM      4  O   LIG A   1      -0.227   3.064   1.197  0.00  0.00    -0.481 OA
ATOM      5  C   LIG A   1       0.473   3.287   2.428  0.00  0.00    +0.123 C 
ATOM      6  C   LIG A   1       1.778   3.995   2.049  0.00  0.00    +0.060 C 
ATOM      7  C   LIG A   1      -0.416   4.231   3.244  0.00  0.00    +0.060 C 
ATOM      8  C   LIG A   1       0.749   2.046   3.243  0.00  0.00    +0.020 C 
ATOM      9  C   LIG A   1       0.447   0.809   2.831  0.00  0.00    +0.015 C 
ATOM     10  C   LIG A   1      -0.114   0.636   1.496  0.00  0.00    +0.059 A 
ATOM     11  C   LIG A   1      -0.379  -0.619   0.909  0.00  0.00    +0.137 A 
ATOM     12  C   LIG A   1      -0.941  -0.717  -0.387  0.00  0.00    +0.037 A 
ENDROOT
BRANCH   1  14
ATOM     13  C   LIG A   1      -2.103   1.570  -3.007  0.00  0.00    +0.277 C 
ATOM     14  O   LIG A   1      -1.806   0.346  -2.335  0.00  0.00    -0.495 OA
ENDBRANCH   1  14
BRANCH  11  15
ATOM     15  O   LIG A   1      -0.206  -1.779   1.628  0.00  0.00    -0.494 OA
ATOM     16  C   LIG A   1       1.156  -2.202   1.666  0.00  0.00    +0.277 C 
ENDBRANCH  11  15
BRANCH  12  17
ATOM     17  C   LIG A   1      -1.160  -2.066  -1.047  0.00  0.00    +0.054 C 
BRANCH  17  18
ATOM     18  C   LIG A   1      -0.003  -2.395  -1.984  0.00  0.00    +0.125 C 
BRANCH  18  19
ATOM     19  C   LIG A   1      -0.219  -3.700  -2.710  0.00  0.00    +0.307 C 
ATOM     20  O   LIG A   1      -1.154  -4.456  -2.569  0.00  0.00    -0.251 OA
BRANCH  19  21
ATOM     21  O   LIG A   1       0.902  -3.947  -3.452  0.00  0.00    -0.468 OA
ATOM     22  C   LIG A   1       1.202  -5.330  -3.625  0.00  0.00    +0.280 C 
ENDBRANCH  19  21
ENDBRANCH  18  19
ENDBRANCH  17  18
ENDBRANCH  12  17
TORSDOF 6
