@<TRIPOS>MOLECULE
NuBBE_481
 87 91 0 0 0
SMALL
GASTEIGER

@<TRIPOS>ATOM
      1 C          -2.4364   -1.2635   -0.5810 C.3     1  LIG1       -0.0585
      2 C          -0.9558   -0.8303   -0.6378 C.3     1  LIG1       -0.0194
      3 C          -0.2253   -1.7433   -1.6646 C.3     1  LIG1       -0.0463
      4 C          -0.1035   -3.2135   -1.2464 C.3     1  LIG1       -0.0484
      5 C           0.5123   -3.5420    0.1475 C.3     1  LIG1       -0.0231
      6 C           0.4697   -5.1165    0.4736 C.3     1  LIG1        0.0461
      7 C           1.5758   -5.5081    1.5049 C.3     1  LIG1        0.0546
      8 O           1.5652   -6.9080    1.7834 O.3     1  LIG1       -0.3943
      9 C           0.8208   -6.0046   -0.7703 C.3     1  LIG1        0.0546
     10 O          -0.1430   -5.9446   -1.8169 O.3     1  LIG1       -0.3943
     11 C          -0.9311   -5.5051    1.0306 C.3     1  LIG1        0.0653
     12 H          -0.9244   -6.5480    1.3672 H       1  LIG1        0.0600
     13 O          -1.9588   -5.4224    0.0399 O.3     1  LIG1       -0.3911
     14 C          -1.3761   -4.6179    2.1992 C.3     1  LIG1       -0.0257
     15 C          -1.4079   -3.1233    1.8366 C.3     1  LIG1       -0.0447
     16 C          -0.0705   -2.5824    1.2800 C.3     1  LIG1       -0.0248
     17 C           0.8985   -2.5105    2.5031 C.3     1  LIG1       -0.0590
     18 C          -0.1119   -1.1105    0.6719 C.3     1  LIG1       -0.0257
     19 C          -0.2327    0.0654    1.6248 C.3     1  LIG1       -0.0306
     20 C           0.4291    1.2269    0.9383 C.2     1  LIG1       -0.0835
     21 C           0.1217    1.5916   -0.3201 C.2     1  LIG1       -0.0602
     22 C          -0.9388    0.7761   -1.0857 C.3     1  LIG1       -0.0050
     23 C          -0.8005    0.8367   -2.6375 C.3     1  LIG1       -0.0553
     24 C          -2.2286    1.6073   -0.7181 C.3     1  LIG1       -0.0424
     25 C          -2.1611    3.1222   -1.0783 C.3     1  LIG1       -0.0358
     26 C          -0.8427    3.8902   -0.7083 C.3     1  LIG1        0.0768
     27 C          -1.0471    4.4584    0.7193 C.2     1  LIG1        0.3137
     28 O          -0.7070    3.5606    1.6724 O.3     1  LIG1       -0.4675
     29 C          -0.8069    3.9392    3.0462 C.3     1  LIG1        0.0817
     30 O          -1.5103    5.5591    0.9645 O.2     1  LIG1       -0.2502
     31 C           0.4141    2.9788   -0.9033 C.3     1  LIG1        0.0252
     32 C           1.8048    3.6924   -0.7423 C.3     1  LIG1        0.0733
     33 C           2.2281    4.1483    0.6560 C.3     1  LIG1       -0.0352
     34 O           2.8169    2.7645   -1.1853 O.3     1  LIG1       -0.3880
     35 C           1.8350    4.8851   -1.7555 C.3     1  LIG1       -0.0146
     36 H           1.7683    4.4566   -2.7672 H       1  LIG1        0.0326
     37 C           3.1433    5.6858   -1.7483 C.3     1  LIG1       -0.0598
     38 C           0.6384    5.8302   -1.5700 C.3     1  LIG1       -0.0468
     39 C          -0.7028    5.1007   -1.6769 C.3     1  LIG1       -0.0363
     40 H          -2.5820   -2.3420   -0.6286 H       1  LIG1        0.0235
     41 H          -2.9864   -0.9006   -1.4563 H       1  LIG1        0.0235
     42 H          -2.9334   -0.8845    0.3175 H       1  LIG1        0.0235
     43 H           0.7862   -1.3588   -1.8509 H       1  LIG1        0.0271
     44 H          -0.7451   -1.7360   -2.6296 H       1  LIG1        0.0271
     45 H           0.5258   -3.6729   -2.0175 H       1  LIG1        0.0268
     46 H          -1.0924   -3.6632   -1.3413 H       1  LIG1        0.0268
     47 H           1.5780   -3.2851    0.0454 H       1  LIG1        0.0314
     48 H           2.5703   -5.2524    1.1222 H       1  LIG1        0.0564
     49 H           1.4609   -5.0397    2.4698 H       1  LIG1        0.0564
     50 H           2.1552   -7.0562    2.5442 H       1  LIG1        0.2094
     51 H           1.7981   -5.7119   -1.1742 H       1  LIG1        0.0564
     52 H           0.8816   -7.0628   -0.4958 H       1  LIG1        0.0564
     53 H           0.3348   -6.1409   -2.6443 H       1  LIG1        0.2094
     54 H          -1.5746   -5.7637   -0.7971 H       1  LIG1        0.2098
     55 H          -0.7440   -4.7901    3.0751 H       1  LIG1        0.0290
     56 H          -2.3925   -4.9079    2.4966 H       1  LIG1        0.0290
     57 H          -1.7073   -2.5486    2.7223 H       1  LIG1        0.0271
     58 H          -2.2240   -3.0047    1.1339 H       1  LIG1        0.0271
     59 H           0.5463   -1.8078    3.2628 H       1  LIG1        0.0235
     60 H           1.9096   -2.2194    2.2019 H       1  LIG1        0.0235
     61 H           0.9589   -3.4232    3.0823 H       1  LIG1        0.0235
     62 H           0.9381   -1.0185    0.3324 H       1  LIG1        0.0315
     63 H           0.3034   -0.0576    2.5647 H       1  LIG1        0.0310
     64 H          -1.2714    0.2861    1.8910 H       1  LIG1        0.0310
     65 H           1.0510    1.8265    1.5849 H       1  LIG1        0.0572
     66 H           0.1951    0.5215   -2.9660 H       1  LIG1        0.0238
     67 H          -0.9635    1.8295   -3.0647 H       1  LIG1        0.0238
     68 H          -1.5540    0.2047   -3.1205 H       1  LIG1        0.0238
     69 H          -2.4485    1.5246    0.3535 H       1  LIG1        0.0274
     70 H          -3.1066    1.2076   -1.2383 H       1  LIG1        0.0274
     71 H          -3.0248    3.6177   -0.6135 H       1  LIG1        0.0276
     72 H          -2.3408    3.2089   -2.1574 H       1  LIG1        0.0276
     73 H           0.0077    3.4383    3.5808 H       1  LIG1        0.0661
     74 H          -1.7546    3.5718    3.4463 H       1  LIG1        0.0661
     75 H          -0.7060    5.0157    3.2000 H       1  LIG1        0.0661
     76 H           0.4543    2.7719   -1.9795 H       1  LIG1        0.0384
     77 H           3.2612    4.5164    0.6421 H       1  LIG1        0.0257
     78 H           2.2664    3.3307    1.3733 H       1  LIG1        0.0257
     79 H           1.5978    4.9438    1.0564 H       1  LIG1        0.0257
     80 H           2.6698    1.9268   -0.7101 H       1  LIG1        0.2102
     81 H           3.2551    6.2749   -0.8327 H       1  LIG1        0.0233
     82 H           3.1634    6.3871   -2.5901 H       1  LIG1        0.0233
     83 H           4.0130    5.0288   -1.8478 H       1  LIG1        0.0233
     84 H           0.6681    6.6078   -2.3441 H       1  LIG1        0.0269
     85 H           0.7066    6.3523   -0.6091 H       1  LIG1        0.0269
     86 H          -0.8088    4.7509   -2.7131 H       1  LIG1        0.0276
     87 H          -1.5148    5.8225   -1.5224 H       1  LIG1        0.0276
@<TRIPOS>BOND
     1     2     3    1
     2     3     4    1
     3     4     5    1
     4     5     6    1
     5     7     8    1
     6     9    10    1
     7     6    11    1
     8    11    14    1
     9    14    15    1
    10    15    16    1
    11     5    16    1
    12    16    18    1
    13     2    18    1
    14    18    19    1
    15    19    20    1
    16    20    21    2
    17    21    22    1
    18     2    22    1
    19    22    24    1
    20    24    25    1
    21    25    26    1
    22    27    28    1
    23    28    29    1
    24    27    30    2
    25    26    31    1
    26    21    31    1
    27    31    32    1
    28    32    35    1
    29    35    38    1
    30    38    39    1
    31    26    39    1
    32     1     2    1
    33     6     7    1
    34     6     9    1
    35    11    12    1
    36    11    13    1
    37    16    17    1
    38    22    23    1
    39    26    27    1
    40    35    36    1
    41    35    37    1
    42    32    34    1
    43    32    33    1
    44     1    40    1
    45     1    41    1
    46     1    42    1
    47     3    43    1
    48     3    44    1
    49     4    45    1
    50     4    46    1
    51     5    47    1
    52     7    48    1
    53     7    49    1
    54     8    50    1
    55     9    51    1
    56     9    52    1
    57    10    53    1
    58    13    54    1
    59    14    55    1
    60    14    56    1
    61    15    57    1
    62    15    58    1
    63    17    59    1
    64    17    60    1
    65    17    61    1
    66    18    62    1
    67    19    63    1
    68    19    64    1
    69    20    65    1
    70    23    66    1
    71    23    67    1
    72    23    68    1
    73    24    69    1
    74    24    70    1
    75    25    71    1
    76    25    72    1
    77    29    73    1
    78    29    74    1
    79    29    75    1
    80    31    76    1
    81    33    77    1
    82    33    78    1
    83    33    79    1
    84    34    80    1
    85    37    81    1
    86    37    82    1
    87    37    83    1
    88    38    84    1
    89    38    85    1
    90    39    86    1
    91    39    87    1
