@<TRIPOS>MOLECULE
NuBBE_1314
 34 37 0 0 0
SMALL
GASTEIGER

@<TRIPOS>ATOM
      1 O          -3.1975    1.0955    0.4621 O.2     1  LIG1       -0.2831
      2 C          -2.0087    0.8351    0.3205 C.ar    1  LIG1        0.2346
      3 C          -1.4768   -0.5594    0.2023 C.ar    1  LIG1        0.2105
      4 O          -2.2873   -1.6840    0.2867 O.3     1  LIG1       -0.4883
      5 C          -3.6291   -1.5408   -0.1615 C.3     1  LIG1        0.0791
      6 C          -0.1451   -0.6950    0.0465 C.ar    1  LIG1        0.1808
      7 C           0.4862   -2.0170   -0.0818 C.ar    1  LIG1        0.0211
      8 C           0.9209   -2.7083    1.0557 C.ar    1  LIG1       -0.0510
      9 C           1.5318   -3.9576    0.9283 C.ar    1  LIG1       -0.0611
     10 C           1.7117   -4.5216   -0.3342 C.ar    1  LIG1       -0.0617
     11 C           1.2809   -3.8392   -1.4713 C.ar    1  LIG1       -0.0611
     12 C           0.6704   -2.5898   -1.3468 C.ar    1  LIG1       -0.0510
     13 O           0.7731    0.3336   -0.0219 O.2     1  LIG1       -0.4502
     14 C          -1.0269    1.9344    0.2686 C.ar    1  LIG1        0.0685
     15 C           0.3253    1.6224    0.1055 C.ar    1  LIG1        0.1503
     16 C           1.2607    2.6745    0.0737 C.ar    1  LIG1        0.0630
     17 C           2.6723    2.7814   -0.0614 C.ar    1  LIG1       -0.0126
     18 C           2.9690    4.1236   -0.0061 C.ar    1  LIG1        0.0932
     19 O           1.8366    4.8574    0.1515 O.2     1  LIG1       -0.4628
     20 C           0.7976    3.9794    0.2012 C.ar    1  LIG1        0.1383
     21 C          -0.5424    4.3238    0.3583 C.ar    1  LIG1       -0.0179
     22 C          -1.4563    3.2652    0.3909 C.ar    1  LIG1       -0.0438
     23 H          -3.6838   -1.0053   -1.1150 H       1  LIG1        0.0660
     24 H          -4.2440   -1.0610    0.6053 H       1  LIG1        0.0660
     25 H          -4.0349   -2.5448   -0.3192 H       1  LIG1        0.0660
     26 H           0.7844   -2.2791    2.0453 H       1  LIG1        0.0625
     27 H           1.8660   -4.4909    1.8145 H       1  LIG1        0.0618
     28 H           2.1865   -5.4946   -0.4318 H       1  LIG1        0.0618
     29 H           1.4199   -4.2801   -2.4550 H       1  LIG1        0.0618
     30 H           0.3391   -2.0667   -2.2406 H       1  LIG1        0.0625
     31 H           3.3817    1.9745   -0.1807 H       1  LIG1        0.0656
     32 H           3.8880    4.6909   -0.0601 H       1  LIG1        0.1030
     33 H          -0.8533    5.3575    0.4537 H       1  LIG1        0.0655
     34 H          -2.5158    3.4858    0.5170 H       1  LIG1        0.0627
@<TRIPOS>BOND
     1     1     2    2
     2     2     3   ar
     3     3     4    1
     4     4     5    1
     5     3     6   ar
     6     6     7    1
     7     7     8   ar
     8     8     9   ar
     9     9    10   ar
    10    10    11   ar
    11    11    12   ar
    12     7    12   ar
    13     6    13   ar
    14     2    14   ar
    15    14    15   ar
    16    13    15   ar
    17    15    16   ar
    18    16    17   ar
    19    17    18   ar
    20    18    19   ar
    21    16    20   ar
    22    19    20   ar
    23    20    21   ar
    24    21    22   ar
    25    14    22   ar
    26     5    23    1
    27     5    24    1
    28     5    25    1
    29     8    26    1
    30     9    27    1
    31    10    28    1
    32    11    29    1
    33    12    30    1
    34    17    31    1
    35    18    32    1
    36    21    33    1
    37    22    34    1
