REMARK  Name = NuBBE_2036
REMARK  9 active torsions:
REMARK  status: ('A' for Active; 'I' for Inactive)
REMARK    1  A    between atoms: C_1  and  C_2
REMARK    2  A    between atoms: C_1  and  C_14
REMARK    3  A    between atoms: C_2  and  C_3
REMARK    4  A    between atoms: C_3  and  C_4
REMARK    5  A    between atoms: C_5  and  O_6
REMARK    6  A    between atoms: O_6  and  C_7
REMARK    7  A    between atoms: C_9  and  O_13
REMARK    8  A    between atoms: C_10  and  C_12
REMARK    9  A    between atoms: C_19  and  O_20
REMARK                            x       y       z     vdW  Elec       q    Type
REMARK                         _______ _______ _______ _____ _____    ______ ____
ROOT
ATOM      1  C   LIG A   1      -0.594  -1.656  -0.371  0.00  0.00    +0.010 C 
ENDROOT
BRANCH   1   2
ATOM      2  C   LIG A   1       0.406  -1.012   0.596  0.00  0.00    +0.039 C 
BRANCH   2   3
ATOM      3  C   LIG A   1       1.839  -1.363   0.279  0.00  0.00    -0.002 A 
ATOM      4  C   LIG A   1       2.568  -0.558  -0.612  0.00  0.00    +0.056 A 
ATOM      5  C   LIG A   1       3.881  -0.892  -0.873  0.00  0.00    +0.167 A 
ATOM      6  C   LIG A   1       4.480  -1.982  -0.289  0.00  0.00    +0.170 A 
ATOM      7  C   LIG A   1       3.801  -2.802   0.585  0.00  0.00    +0.095 A 
ATOM      8  C   LIG A   1       2.467  -2.488   0.858  0.00  0.00    +0.124 A 
ATOM      9  O   LIG A   1       5.776  -2.135  -0.676  0.00  0.00    -0.453 OA
ATOM     10  C   LIG A   1       5.915  -1.034  -1.599  0.00  0.00    +0.466 C 
ATOM     11  O   LIG A   1       4.728  -0.218  -1.695  0.00  0.00    -0.453 OA
BRANCH   8  12
ATOM     12  O   LIG A   1       1.745  -3.268   1.715  0.00  0.00    -0.506 OA
ATOM     13  H   LIG A   1       2.313  -3.998   2.030  0.00  0.00    +0.292 HD
ENDBRANCH   8  12
ENDBRANCH   2   3
ENDBRANCH   1   2
BRANCH   1  14
ATOM     14  C   LIG A   1      -2.049  -1.280  -0.041  0.00  0.00    +0.039 C 
BRANCH  14  15
ATOM     15  C   LIG A   1      -2.323   0.212  -0.095  0.00  0.00    -0.005 A 
ATOM     16  C   LIG A   1      -2.759   0.933   1.034  0.00  0.00    +0.127 A 
ATOM     17  C   LIG A   1      -2.929   2.319   0.945  0.00  0.00    +0.091 A 
ATOM     18  C   LIG A   1      -2.696   2.979  -0.262  0.00  0.00    +0.123 A 
ATOM     19  C   LIG A   1      -2.300   2.283  -1.403  0.00  0.00    -0.009 A 
ATOM     20  C   LIG A   1      -2.111   0.899  -1.306  0.00  0.00    +0.014 A 
ATOM     21  C   LIG A   1      -2.043   2.998  -2.696  0.00  0.00    +0.048 C 
BRANCH  16  22
ATOM     22  O   LIG A   1      -2.987   0.201   2.171  0.00  0.00    -0.495 OA
ATOM     23  C   LIG A   1      -3.436   0.897   3.327  0.00  0.00    +0.277 C 
ENDBRANCH  16  22
BRANCH  18  24
ATOM     24  O   LIG A   1      -2.855   4.335  -0.347  0.00  0.00    -0.506 OA
ATOM     25  H   LIG A   1      -3.128   4.675   0.520  0.00  0.00    +0.292 HD
ENDBRANCH  18  24
ENDBRANCH  14  15
ENDBRANCH   1  14
TORSDOF 7
