REMARK  Name = NuBBE_1835
REMARK  13 active torsions:
REMARK  status: ('A' for Active; 'I' for Inactive)
REMARK    1  A    between atoms: C_1  and  C_2
REMARK    2  A    between atoms: C_4  and  C_19
REMARK    3  A    between atoms: C_10  and  O_17
REMARK    4  A    between atoms: C_11  and  O_13
REMARK    5  A    between atoms: O_13  and  C_14
REMARK    6  A    between atoms: C_14  and  C_15
REMARK    7  A    between atoms: O_17  and  C_18
REMARK    8  A    between atoms: C_21  and  O_22
REMARK    9  A    between atoms: O_22  and  C_23
REMARK   10  A    between atoms: C_24  and  O_29
REMARK   11  A    between atoms: C_25  and  O_27
REMARK   12  A    between atoms: O_27  and  C_28
REMARK   13  A    between atoms: O_29  and  C_30
REMARK                            x       y       z     vdW  Elec       q    Type
REMARK                         _______ _______ _______ _____ _____    ______ ____
ROOT
ATOM      1  C   LIG A   1      -0.908   1.359   3.419  0.00  0.00    +0.016 C 
ATOM      2  C   LIG A   1      -0.628   0.578   2.138  0.00  0.00    +0.065 C 
ATOM      3  C   LIG A   1       0.884   0.580   1.790  0.00  0.00    +0.211 C 
ATOM      4  O   LIG A   1       1.125   1.454   0.657  0.00  0.00    -0.483 OA
ATOM      5  C   LIG A   1      -0.117   1.717   0.149  0.00  0.00    +0.129 A 
ATOM      6  C   LIG A   1      -1.160   1.243   0.920  0.00  0.00    +0.005 A 
ATOM      7  C   LIG A   1      -2.467   1.417   0.501  0.00  0.00    +0.057 A 
ATOM      8  C   LIG A   1      -2.717   2.078  -0.716  0.00  0.00    +0.162 A 
ATOM      9  C   LIG A   1      -1.634   2.572  -1.485  0.00  0.00    +0.166 A 
ATOM     10  C   LIG A   1      -0.321   2.388  -1.040  0.00  0.00    +0.095 A 
ENDROOT
BRANCH   3  11
ATOM     11  C   LIG A   1       1.403  -0.818   1.504  0.00  0.00    +0.000 A 
ATOM     12  C   LIG A   1       1.375  -1.380   0.226  0.00  0.00    +0.057 A 
ATOM     13  C   LIG A   1       1.740  -2.713   0.011  0.00  0.00    +0.166 A 
ATOM     14  C   LIG A   1       2.209  -3.493   1.101  0.00  0.00    +0.203 A 
ATOM     15  C   LIG A   1       2.325  -2.900   2.377  0.00  0.00    +0.166 A 
ATOM     16  C   LIG A   1       1.866  -1.593   2.566  0.00  0.00    +0.057 A 
BRANCH  13  17
ATOM     17  O   LIG A   1       1.630  -3.331  -1.214  0.00  0.00    -0.491 OA
ATOM     18  C   LIG A   1       1.173  -2.556  -2.323  0.00  0.00    +0.277 C 
ENDBRANCH  13  17
BRANCH  15  19
ATOM     19  O   LIG A   1       2.817  -3.622   3.434  0.00  0.00    -0.491 OA
ATOM     20  C   LIG A   1       3.565  -2.905   4.417  0.00  0.00    +0.277 C 
ENDBRANCH  15  19
BRANCH  14  21
ATOM     21  O   LIG A   1       2.575  -4.785   0.791  0.00  0.00    -0.488 OA
ATOM     22  C   LIG A   1       2.407  -5.766   1.810  0.00  0.00    +0.277 C 
ENDBRANCH  14  21
ENDBRANCH   3  11
BRANCH   8  23
ATOM     23  O   LIG A   1      -4.056   2.129  -1.014  0.00  0.00    -0.491 OA
ATOM     24  C   LIG A   1      -4.471   2.767  -2.214  0.00  0.00    +0.277 C 
ENDBRANCH   8  23
BRANCH   9  25
ATOM     25  O   LIG A   1      -1.909   3.293  -2.617  0.00  0.00    -0.484 OA
BRANCH  25  26
ATOM     26  C   LIG A   1      -0.990   3.194  -3.701  0.00  0.00    +0.256 C 
BRANCH  26  27
ATOM     27  C   LIG A   1      -1.787   3.368  -4.952  0.00  0.00    +0.006 C 
ATOM     28  C   LIG A   1      -2.021   4.577  -5.560  0.00  0.00    +0.007 C 
ENDBRANCH  26  27
ENDBRANCH  25  26
ENDBRANCH   9  25
TORSDOF 8
