@<TRIPOS>MOLECULE
NuBBE_1939
 42 43 0 0 0
SMALL
GASTEIGER

@<TRIPOS>ATOM
      1 O          -2.1656    0.3555   -0.4513 O.3     1  LIG1       -0.3877
      2 C          -1.2087   -0.6686   -0.1169 C.3     1  LIG1        0.0754
      3 C           0.2427   -0.0679   -0.2779 C.3     1  LIG1        0.0095
      4 H           0.9670   -0.8455    0.0104 H       1  LIG1        0.0374
      5 C           0.5034    1.1573    0.6566 C.3     1  LIG1       -0.0298
      6 H          -0.1612    1.9775    0.3510 H       1  LIG1        0.0310
      7 C           1.9825    1.6977    0.6179 C.3     1  LIG1       -0.0433
      8 C           2.2204    2.8165    1.6480 C.3     1  LIG1       -0.0624
      9 C           2.4222    2.2371   -0.7490 C.3     1  LIG1       -0.0624
     10 C           0.1350    0.7681    2.1109 C.3     1  LIG1       -0.0490
     11 C          -1.2409    0.1337    2.2738 C.3     1  LIG1       -0.0476
     12 C          -1.4322   -1.0819    1.3592 C.3     1  LIG1       -0.0144
     13 H          -0.6786   -1.8357    1.6260 H       1  LIG1        0.0326
     14 C          -2.8073   -1.7010    1.6384 C.3     1  LIG1       -0.0598
     15 C           0.4473    0.2196   -1.7743 C.2     1  LIG1       -0.0789
     16 C           0.3345   -0.8698   -2.5632 C.2     1  LIG1       -0.0761
     17 C          -1.0259   -1.5242   -2.5495 C.3     1  LIG1       -0.0294
     18 C          -1.4201   -1.8592   -1.0980 C.3     1  LIG1       -0.0195
     19 C           1.5011   -1.7911   -2.7835 C.3     1  LIG1       -0.0438
     20 H          -3.0458   -0.0528   -0.4999 H       1  LIG1        0.2102
     21 H           2.6573    0.8708    0.8769 H       1  LIG1        0.0298
     22 H           1.4890    3.6230    1.5301 H       1  LIG1        0.0232
     23 H           3.2210    3.2495    1.5381 H       1  LIG1        0.0232
     24 H           2.1641    2.4401    2.6736 H       1  LIG1        0.0232
     25 H           1.6705    2.9105   -1.1734 H       1  LIG1        0.0232
     26 H           2.6200    1.4274   -1.4552 H       1  LIG1        0.0232
     27 H           3.3626    2.7949   -0.6722 H       1  LIG1        0.0232
     28 H           0.1524    1.6539    2.7550 H       1  LIG1        0.0268
     29 H           0.8907    0.0744    2.5020 H       1  LIG1        0.0268
     30 H          -2.0135    0.8878    2.0774 H       1  LIG1        0.0269
     31 H          -1.3642   -0.1678    3.3216 H       1  LIG1        0.0269
     32 H          -3.6230   -1.0130    1.3954 H       1  LIG1        0.0233
     33 H          -2.9009   -1.9617    2.6987 H       1  LIG1        0.0233
     34 H          -2.9532   -2.6239    1.0698 H       1  LIG1        0.0233
     35 H          -0.2609    1.0280   -2.0022 H       1  LIG1        0.0575
     36 H          -1.0288   -2.4370   -3.1561 H       1  LIG1        0.0311
     37 H          -1.7644   -0.8481   -2.9983 H       1  LIG1        0.0311
     38 H          -0.8274   -2.7181   -0.7573 H       1  LIG1        0.0296
     39 H          -2.4711   -2.1705   -1.1093 H       1  LIG1        0.0296
     40 H           2.4436   -1.3301   -2.4689 H       1  LIG1        0.0274
     41 H           1.5869   -2.0300   -3.8483 H       1  LIG1        0.0274
     42 H           1.3796   -2.7255   -2.2262 H       1  LIG1        0.0274
@<TRIPOS>BOND
     1     2     3    1
     2     3     5    1
     3     7     8    1
     4     7     9    1
     5     5    10    1
     6    10    11    1
     7    11    12    1
     8     2    12    1
     9     3    15    1
    10    15    16    2
    11    16    17    1
    12    17    18    1
    13     2    18    1
    14     1     2    1
    15     3     4    1
    16     5     6    1
    17     5     7    1
    18    16    19    1
    19    12    14    1
    20    12    13    1
    21     1    20    1
    22     7    21    1
    23     8    22    1
    24     8    23    1
    25     8    24    1
    26     9    25    1
    27     9    26    1
    28     9    27    1
    29    10    28    1
    30    10    29    1
    31    11    30    1
    32    11    31    1
    33    14    32    1
    34    14    33    1
    35    14    34    1
    36    15    35    1
    37    17    36    1
    38    17    37    1
    39    18    38    1
    40    18    39    1
    41    19    40    1
    42    19    41    1
    43    19    42    1
