@<TRIPOS>MOLECULE
NuBBE_981
 69 70 0 0 0
SMALL
GASTEIGER

@<TRIPOS>ATOM
      1 O          -5.7407    3.5221    1.7314 O.2     1  LIG1       -0.2702
      2 C          -5.8460    2.7153    0.7925 C.2     1  LIG1        0.2441
      3 N          -6.3605    1.4317    0.9608 N.am    1  LIG1       -0.3110
      4 C          -6.8202    0.9604    2.2583 C.3     1  LIG1        0.0159
      5 C          -6.6984   -0.5635    2.4167 C.3     1  LIG1       -0.0120
      6 C          -5.2837   -1.0904    2.2892 C.ar    1  LIG1       -0.0457
      7 C          -4.9668   -2.1039    1.3737 C.ar    1  LIG1       -0.0551
      8 C          -3.6392   -2.5377    1.2093 C.ar    1  LIG1       -0.0197
      9 C          -2.6025   -1.9018    1.8966 C.ar    1  LIG1        0.1210
     10 O          -1.3034   -2.2267    1.5585 O.3     1  LIG1       -0.4880
     11 C          -0.4155   -1.0886    1.5874 C.3     1  LIG1        0.1081
     12 C           0.9810   -1.4628    1.1460 C.2     1  LIG1       -0.0457
     13 C           1.7366   -0.8851    0.1819 C.2     1  LIG1       -0.0452
     14 C           1.2434    0.1936   -0.7551 C.3     1  LIG1       -0.0413
     15 C           3.1352   -1.3955   -0.1380 C.3     1  LIG1        0.0796
     16 O           3.0028   -1.8981   -1.4651 O.3     1  LIG1       -0.3874
     17 C           4.2936   -0.3587   -0.0608 C.3     1  LIG1        0.0170
     18 C           5.7103   -0.9730   -0.3243 C.3     1  LIG1        0.1337
     19 O           5.7647   -1.4166   -1.7008 O.3     1  LIG1       -0.4586
     20 C           5.4493   -2.7193   -1.9099 C.2     1  LIG1        0.3043
     21 C           4.9754   -2.9204   -3.3327 C.3     1  LIG1        0.0332
     22 O           5.4030   -3.6059   -1.0477 O.2     1  LIG1       -0.2512
     23 C           6.9088   -0.0004   -0.0181 C.3     1  LIG1        0.0973
     24 C           8.2762   -0.6235   -0.3793 C.3     1  LIG1       -0.0328
     25 C           6.8054    1.3614   -0.7149 C.3     1  LIG1       -0.0328
     26 O           6.9191    0.2894    1.3923 O.3     1  LIG1       -0.3855
     27 C          -2.9321   -0.9810    2.8929 C.ar    1  LIG1       -0.0197
     28 C          -4.2594   -0.5899    3.0982 C.ar    1  LIG1       -0.0551
     29 H          -6.5790    0.8705    0.1595 H       1  LIG1        0.1490
     30 C          -5.4219    3.1297   -0.5778 C.ar    1  LIG1        0.0367
     31 C          -5.4571    2.2456   -1.6846 C.ar    1  LIG1       -0.0496
     32 C          -5.0936    2.6963   -2.9568 C.ar    1  LIG1       -0.0610
     33 C          -4.6526    4.0030   -3.1479 C.ar    1  LIG1       -0.0617
     34 C          -4.5743    4.8718   -2.0589 C.ar    1  LIG1       -0.0610
     35 C          -4.9636    4.4396   -0.7917 C.ar    1  LIG1       -0.0496
     36 H          -7.8711    1.2568    2.3485 H       1  LIG1        0.0465
     37 H          -6.2715    1.4820    3.0559 H       1  LIG1        0.0465
     38 H          -7.3408   -1.0445    1.6673 H       1  LIG1        0.0328
     39 H          -7.0917   -0.8591    3.3971 H       1  LIG1        0.0328
     40 H          -5.7496   -2.5536    0.7657 H       1  LIG1        0.0621
     41 H          -3.4272   -3.3538    0.5212 H       1  LIG1        0.0654
     42 H          -0.3098   -0.7302    2.6157 H       1  LIG1        0.0742
     43 H          -0.8348   -0.2889    0.9705 H       1  LIG1        0.0742
     44 H           1.4188   -2.2659    1.7389 H       1  LIG1        0.0606
     45 H           0.1673    0.3634   -0.6989 H       1  LIG1        0.0275
     46 H           1.4390   -0.0860   -1.7969 H       1  LIG1        0.0275
     47 H           1.7551    1.1388   -0.5564 H       1  LIG1        0.0275
     48 H           3.3990   -2.2429    0.5053 H       1  LIG1        0.0641
     49 H           2.3139   -2.5856   -1.4276 H       1  LIG1        0.2102
     50 H           4.2845    0.1149    0.9277 H       1  LIG1        0.0330
     51 H           4.1144    0.4195   -0.8140 H       1  LIG1        0.0330
     52 H           5.8296   -1.8212    0.3650 H       1  LIG1        0.0764
     53 H           5.8239   -2.8763   -4.0150 H       1  LIG1        0.0342
     54 H           4.2343   -2.1610   -3.6056 H       1  LIG1        0.0342
     55 H           4.4800   -3.8943   -3.4201 H       1  LIG1        0.0342
     56 H           8.2648   -1.1363   -1.3457 H       1  LIG1        0.0258
     57 H           8.6153   -1.3312    0.3856 H       1  LIG1        0.0258
     58 H           9.0559    0.1483   -0.4350 H       1  LIG1        0.0258
     59 H           6.9111    1.2833   -1.8005 H       1  LIG1        0.0258
     60 H           7.5895    2.0367   -0.3434 H       1  LIG1        0.0258
     61 H           5.8639    1.8658   -0.4792 H       1  LIG1        0.0258
     62 H           7.3672   -0.4417    1.8525 H       1  LIG1        0.2103
     63 H          -2.1751   -0.5475    3.5365 H       1  LIG1        0.0654
     64 H          -4.4740    0.1318    3.8837 H       1  LIG1        0.0621
     65 H          -5.7448    1.2136   -1.5799 H       1  LIG1        0.0625
     66 H          -5.1536    2.0123   -3.8007 H       1  LIG1        0.0618
     67 H          -4.3626    4.3408   -4.1394 H       1  LIG1        0.0618
     68 H          -4.2091    5.8874   -2.2056 H       1  LIG1        0.0618
     69 H          -4.9058    5.1370    0.0460 H       1  LIG1        0.0625
@<TRIPOS>BOND
     1     1     2    2
     2     2     3   am
     3     3     4    1
     4     4     5    1
     5     5     6    1
     6     6     7   ar
     7     7     8   ar
     8     8     9   ar
     9     9    10    1
    10    10    11    1
    11    11    12    1
    12    12    13    2
    13    13    14    1
    14    13    15    1
    15    15    16    1
    16    15    17    1
    17    17    18    1
    18    18    19    1
    19    19    20    1
    20    20    21    1
    21    20    22    2
    22    18    23    1
    23    23    24    1
    24    23    25    1
    25    23    26    1
    26     9    27   ar
    27    27    28   ar
    28     6    28   ar
    29     3    29    1
    30     2    30    1
    31    30    31   ar
    32    31    32   ar
    33    32    33   ar
    34    33    34   ar
    35    34    35   ar
    36    30    35   ar
    37     4    36    1
    38     4    37    1
    39     5    38    1
    40     5    39    1
    41     7    40    1
    42     8    41    1
    43    11    42    1
    44    11    43    1
    45    12    44    1
    46    14    45    1
    47    14    46    1
    48    14    47    1
    49    15    48    1
    50    16    49    1
    51    17    50    1
    52    17    51    1
    53    18    52    1
    54    21    53    1
    55    21    54    1
    56    21    55    1
    57    24    56    1
    58    24    57    1
    59    24    58    1
    60    25    59    1
    61    25    60    1
    62    25    61    1
    63    26    62    1
    64    27    63    1
    65    28    64    1
    66    31    65    1
    67    32    66    1
    68    33    67    1
    69    34    68    1
    70    35    69    1
