@<TRIPOS>MOLECULE
NuBBE_2460
 70 72 0 0 0
SMALL
GASTEIGER

@<TRIPOS>ATOM
      1 C          -1.3998   -3.2182   -4.9160 C.3     1  LIG1        0.0790
      2 O          -0.9580   -3.4934   -3.6112 O.3     1  LIG1       -0.4914
      3 C          -0.5026   -2.5099   -2.8082 C.ar    1  LIG1        0.1625
      4 C           0.0816   -2.9118   -1.6131 C.ar    1  LIG1        0.1733
      5 O          -0.0020   -4.2492   -1.1278 O.3     1  LIG1       -0.4223
      6 C          -1.0463   -5.1668   -1.4002 C.2     1  LIG1        0.3093
      7 C          -1.0156   -6.2290   -0.3693 C.3     1  LIG1        0.0336
      8 O          -1.9106   -5.1589   -2.2714 O.2     1  LIG1       -0.2507
      9 C           0.7449   -1.9852   -0.7943 C.ar    1  LIG1       -0.0115
     10 C           0.6939   -0.6040   -1.0869 C.ar    1  LIG1       -0.0327
     11 C           1.3641    0.4259   -0.1705 C.3     1  LIG1        0.0160
     12 H           2.4367    0.2377   -0.3384 H       1  LIG1        0.0401
     13 C           1.1657    0.2023    1.3358 C.ar    1  LIG1       -0.0359
     14 C           2.1857    0.5977    2.2134 C.ar    1  LIG1       -0.0543
     15 C           2.0573    0.4034    3.5844 C.ar    1  LIG1       -0.0153
     16 C           0.8885   -0.1476    4.1170 C.ar    1  LIG1        0.1730
     17 O           0.8251   -0.4060    5.5068 O.3     1  LIG1       -0.4223
     18 C           1.4622    0.5030    6.3618 C.2     1  LIG1        0.3093
     19 C           1.9133   -0.2109    7.6031 C.3     1  LIG1        0.0336
     20 O           1.6769    1.6847    6.1427 O.2     1  LIG1       -0.2507
     21 C          -0.1454   -0.5723    3.2669 C.ar    1  LIG1        0.1625
     22 O          -1.2635   -1.1260    3.8379 O.3     1  LIG1       -0.4914
     23 C          -2.0661   -1.9579    2.9967 C.3     1  LIG1        0.0790
     24 C           0.0025   -0.3776    1.8824 C.ar    1  LIG1       -0.0125
     25 C           1.0986    1.9322   -0.5347 C.3     1  LIG1        0.0103
     26 H           0.9180    2.5224    0.3759 H       1  LIG1        0.0346
     27 C           2.3844    2.5454   -1.1549 C.3     1  LIG1        0.0965
     28 O           2.0988    3.9168   -1.4803 O.3     1  LIG1       -0.4645
     29 C           2.9368    4.8582   -0.9764 C.2     1  LIG1        0.3040
     30 C           2.2297    6.1784   -0.8933 C.3     1  LIG1        0.0332
     31 O           4.0653    4.6557   -0.5586 O.2     1  LIG1       -0.2512
     32 C          -0.1255    2.1700   -1.4583 C.3     1  LIG1        0.0041
     33 H          -0.0911    3.1865   -1.8731 H       1  LIG1        0.0341
     34 C          -1.4801    2.0905   -0.7241 C.3     1  LIG1        0.0959
     35 O          -2.5026    2.3560   -1.7049 O.3     1  LIG1       -0.4645
     36 C          -3.4767    1.4034   -1.8300 C.2     1  LIG1        0.3040
     37 C          -4.0399    1.4788   -3.2261 C.3     1  LIG1        0.0332
     38 O          -3.7707    0.5733   -1.0108 O.2     1  LIG1       -0.2512
     39 C          -0.0693    1.2346   -2.6653 C.3     1  LIG1       -0.0210
     40 C           0.0207   -0.2049   -2.2544 C.ar    1  LIG1       -0.0395
     41 C          -0.5543   -1.1586   -3.1087 C.ar    1  LIG1       -0.0128
     42 H          -1.7474   -4.1671   -5.3352 H       1  LIG1        0.0660
     43 H          -0.5554   -2.8652   -5.5096 H       1  LIG1        0.0660
     44 H          -2.2395   -2.5184   -4.9295 H       1  LIG1        0.0660
     45 H          -0.9984   -5.7563    0.6151 H       1  LIG1        0.0342
     46 H          -0.1637   -6.8891   -0.5309 H       1  LIG1        0.0342
     47 H          -1.9468   -6.8000   -0.4534 H       1  LIG1        0.0342
     48 H           1.2639   -2.3373    0.0964 H       1  LIG1        0.0658
     49 H           3.0984    1.0637    1.8482 H       1  LIG1        0.0622
     50 H           2.8798    0.6983    4.2296 H       1  LIG1        0.0656
     51 H           1.0561   -0.4558    8.2295 H       1  LIG1        0.0342
     52 H           2.5974    0.4377    8.1619 H       1  LIG1        0.0342
     53 H           2.4720   -1.1105    7.3282 H       1  LIG1        0.0342
     54 H          -2.7851   -2.4821    3.6344 H       1  LIG1        0.0660
     55 H          -1.4579   -2.7176    2.4928 H       1  LIG1        0.0660
     56 H          -2.6414   -1.3745    2.2680 H       1  LIG1        0.0660
     57 H          -0.7886   -0.6857    1.2049 H       1  LIG1        0.0658
     58 H           3.2067    2.4705   -0.4347 H       1  LIG1        0.0700
     59 H           2.6861    2.0199   -2.0677 H       1  LIG1        0.0700
     60 H           1.3040    6.1630   -1.4768 H       1  LIG1        0.0342
     61 H           2.8723    6.9680   -1.2858 H       1  LIG1        0.0342
     62 H           1.9758    6.3742    0.1526 H       1  LIG1        0.0342
     63 H          -1.6213    1.1251   -0.2354 H       1  LIG1        0.0700
     64 H          -1.5442    2.8753    0.0385 H       1  LIG1        0.0700
     65 H          -4.3593    2.4981   -3.4496 H       1  LIG1        0.0342
     66 H          -4.8992    0.8100   -3.3106 H       1  LIG1        0.0342
     67 H          -3.2761    1.1569   -3.9400 H       1  LIG1        0.0342
     68 H           0.7935    1.4654   -3.2994 H       1  LIG1        0.0317
     69 H          -0.9498    1.3864   -3.2994 H       1  LIG1        0.0317
     70 H          -1.0623   -0.8214   -4.0056 H       1  LIG1        0.0658
@<TRIPOS>BOND
     1     1     2    1
     2     2     3    1
     3     3     4   ar
     4     4     5    1
     5     5     6    1
     6     6     7    1
     7     6     8    2
     8     4     9   ar
     9     9    10   ar
    10    10    11    1
    11    11    12    1
    12    11    13    1
    13    13    14   ar
    14    14    15   ar
    15    15    16   ar
    16    16    17    1
    17    17    18    1
    18    18    19    1
    19    18    20    2
    20    16    21   ar
    21    21    22    1
    22    22    23    1
    23    21    24   ar
    24    13    24   ar
    25    11    25    1
    26    27    28    1
    27    28    29    1
    28    29    30    1
    29    29    31    2
    30    25    32    1
    31    34    35    1
    32    35    36    1
    33    36    37    1
    34    36    38    2
    35    32    39    1
    36    10    40   ar
    37    39    40    1
    38    40    41   ar
    39     3    41   ar
    40    25    27    1
    41    25    26    1
    42    32    34    1
    43    32    33    1
    44     1    42    1
    45     1    43    1
    46     1    44    1
    47     7    45    1
    48     7    46    1
    49     7    47    1
    50     9    48    1
    51    14    49    1
    52    15    50    1
    53    19    51    1
    54    19    52    1
    55    19    53    1
    56    23    54    1
    57    23    55    1
    58    23    56    1
    59    24    57    1
    60    27    58    1
    61    27    59    1
    62    30    60    1
    63    30    61    1
    64    30    62    1
    65    34    63    1
    66    34    64    1
    67    37    65    1
    68    37    66    1
    69    37    67    1
    70    39    68    1
    71    39    69    1
    72    41    70    1
