REMARK  Name = NuBBE_1611
REMARK  9 active torsions:
REMARK  status: ('A' for Active; 'I' for Inactive)
REMARK    1  A    between atoms: C_1  and  C_2
REMARK    2  A    between atoms: C_7  and  C_33
REMARK    3  A    between atoms: C_9  and  C_10
REMARK    4  A    between atoms: C_15  and  C_16
REMARK    5  A    between atoms: C_20  and  O_22
REMARK    6  A    between atoms: O_22  and  C_23
REMARK    7  A    between atoms: C_23  and  C_25
REMARK    8  A    between atoms: C_26  and  C_27
REMARK    9  A    between atoms: C_26  and  C_28
REMARK                            x       y       z     vdW  Elec       q    Type
REMARK                         _______ _______ _______ _____ _____    ______ ____
ROOT
ATOM      1  C   LIG A   1      -1.546   0.165   1.543  0.00  0.00    +0.020 C 
ATOM      2  C   LIG A   1      -0.223  -0.042   0.753  0.00  0.00    +0.030 C 
ATOM      3  C   LIG A   1       0.318  -1.413   1.230  0.00  0.00    -0.050 C 
ATOM      4  C   LIG A   1       1.045  -1.657   2.332  0.00  0.00    +0.047 C 
ATOM      5  C   LIG A   1       1.024  -3.120   2.532  0.00  0.00    +0.164 C 
ATOM      6  O   LIG A   1       1.712  -3.674   3.370  0.00  0.00    -0.292 OA
ATOM      7  C   LIG A   1      -0.029  -3.773   1.650  0.00  0.00    +0.102 C 
ATOM      8  C   LIG A   1      -0.081  -2.708   0.503  0.00  0.00    +0.004 C 
ATOM      9  C   LIG A   1       1.000  -3.143  -0.534  0.00  0.00    +0.017 C 
ATOM     10  C   LIG A   1      -1.419  -2.529  -0.237  0.00  0.00    +0.012 C 
ATOM     11  C   LIG A   1      -1.472  -1.278  -1.144  0.00  0.00    +0.006 C 
ATOM     12  C   LIG A   1      -0.416  -0.187  -0.805  0.00  0.00    +0.012 C 
ATOM     13  C   LIG A   1      -0.488   1.155  -1.635  0.00  0.00    -0.006 C 
ATOM     14  C   LIG A   1      -1.767   1.968  -1.309  0.00  0.00    +0.016 C 
ATOM     15  C   LIG A   1       0.790   2.053  -1.315  0.00  0.00    +0.016 C 
ATOM     16  C   LIG A   1       1.619   1.496  -0.122  0.00  0.00    +0.051 C 
ATOM     17  C   LIG A   1       0.744   1.154   1.081  0.00  0.00    +0.187 C 
ATOM     18  C   LIG A   1       1.740   2.410  -2.514  0.00  0.00    +0.031 C 
ATOM     19  C   LIG A   1       2.473   3.738  -2.214  0.00  0.00    +0.019 C 
ATOM     20  C   LIG A   1       2.806   1.333  -2.804  0.00  0.00    +0.019 C 
ATOM     21  C   LIG A   1       0.941   2.580  -3.801  0.00  0.00    +0.162 C 
ATOM     22  O   LIG A   1       1.145   3.467  -4.625  0.00  0.00    -0.292 OA
ATOM     23  C   LIG A   1      -0.044   1.534  -4.118  0.00  0.00    +0.043 C 
ATOM     24  C   LIG A   1      -0.644   0.869  -3.126  0.00  0.00    -0.016 C 
ENDROOT
BRANCH   7  25
ATOM     25  C   LIG A   1      -1.294  -4.032   2.430  0.00  0.00    +0.002 A 
ATOM     26  C   LIG A   1      -2.497  -4.641   1.960  0.00  0.00    +0.045 A 
ATOM     27  C   LIG A   1      -3.367  -4.680   3.022  0.00  0.00    +0.195 A 
ATOM     28  O   LIG A   1      -2.778  -4.176   4.132  0.00  0.00    -0.471 OA
ATOM     29  C   LIG A   1      -1.524  -3.805   3.777  0.00  0.00    +0.199 A 
ENDBRANCH   7  25
BRANCH  17  30
ATOM     30  O   LIG A   1       0.022   2.350   1.459  0.00  0.00    -0.461 OA
BRANCH  30  31
ATOM     31  C   LIG A   1       0.730   3.284   2.154  0.00  0.00    +0.304 C 
ATOM     32  O   LIG A   1       1.875   3.146   2.565  0.00  0.00    -0.251 OA
ATOM     33  C   LIG A   1      -0.051   4.547   2.313  0.00  0.00    +0.136 C 
ENDBRANCH  30  31
ENDBRANCH  17  30
TORSDOF 3
