@<TRIPOS>MOLECULE
NuBBE_2007
 54 56 0 0 0
SMALL
GASTEIGER

@<TRIPOS>ATOM
      1 O          -2.0087   -0.3515   -2.6578 O.2     1  LIG1       -0.2877
      2 C          -0.9713   -0.5366   -2.0259 C.2     1  LIG1        0.2145
      3 C          -0.3030   -1.8900   -1.9814 C.3     1  LIG1        0.2057
      4 H          -1.0341   -2.6695   -1.7361 H       1  LIG1        0.0860
      5 O           0.2219   -2.0421   -3.3207 O.3     1  LIG1       -0.4493
      6 C          -0.6908   -2.4161   -4.2643 C.2     1  LIG1        0.3047
      7 C          -0.2599   -1.9042   -5.6121 C.3     1  LIG1        0.0333
      8 O          -1.7188   -3.0189   -4.0495 O.2     1  LIG1       -0.2511
      9 C           0.8514   -1.8854   -0.9711 C.3     1  LIG1        0.1692
     10 H           1.4764   -2.7568   -1.2095 H       1  LIG1        0.0827
     11 O           1.7482   -0.7848   -1.2073 O.3     1  LIG1       -0.4791
     12 C           0.4132   -2.0752    0.4927 C.ar    1  LIG1       -0.0031
     13 C           0.2962   -3.3881    0.9825 C.ar    1  LIG1       -0.0515
     14 C          -0.2010   -3.6413    2.2637 C.ar    1  LIG1       -0.0189
     15 C          -0.5974   -2.5862    3.0799 C.ar    1  LIG1        0.1316
     16 C          -0.4684   -1.2765    2.6436 C.ar    1  LIG1       -0.0189
     17 C           0.0550   -1.0280    1.3652 C.ar    1  LIG1       -0.0515
     18 O          -1.2246   -2.9633    4.2850 O.3     1  LIG1       -0.4260
     19 C          -1.2197   -2.1946    5.4477 C.2     1  LIG1        0.3092
     20 C          -2.0824   -2.8907    6.4635 C.3     1  LIG1        0.0336
     21 O          -0.6452   -1.1324    5.6273 O.2     1  LIG1       -0.2507
     22 C          -0.2343    0.6100   -1.4635 C.ar    1  LIG1        0.1049
     23 C           1.1400    0.4374   -1.2967 C.ar    1  LIG1        0.1392
     24 C           1.9702    1.5295   -1.0946 C.ar    1  LIG1        0.0237
     25 C           1.4067    2.7886   -0.9279 C.ar    1  LIG1        0.1415
     26 O           2.2029    3.9229   -0.6299 O.3     1  LIG1       -0.4255
     27 C           3.5944    3.9754   -0.7707 C.2     1  LIG1        0.3092
     28 C           4.0985    5.0870    0.0981 C.3     1  LIG1        0.0336
     29 O           4.3002    3.2375   -1.4360 O.2     1  LIG1       -0.2507
     30 C           0.0060    2.9494   -0.8603 C.ar    1  LIG1        0.0344
     31 C          -0.5790    4.2861   -0.4823 C.3     1  LIG1       -0.0327
     32 C          -0.8256    1.8398   -1.1398 C.ar    1  LIG1        0.1406
     33 O          -2.1796    2.0494   -1.0311 O.3     1  LIG1       -0.4939
     34 C          -2.9300    1.0073   -0.3944 C.3     1  LIG1        0.0788
     35 H           0.7275   -1.4348   -5.5531 H       1  LIG1        0.0342
     36 H          -0.9724   -1.1480   -5.9565 H       1  LIG1        0.0342
     37 H          -0.2082   -2.7360   -6.3160 H       1  LIG1        0.0342
     38 H           0.5780   -4.2376    0.3632 H       1  LIG1        0.0623
     39 H          -0.2993   -4.6641    2.6163 H       1  LIG1        0.0654
     40 H          -0.7805   -0.4382    3.2614 H       1  LIG1        0.0654
     41 H           0.1508    0.0154    1.0854 H       1  LIG1        0.0623
     42 H          -1.8206   -3.9519    6.5115 H       1  LIG1        0.0342
     43 H          -3.1341   -2.7739    6.1896 H       1  LIG1        0.0342
     44 H          -1.9146   -2.4556    7.4520 H       1  LIG1        0.0342
     45 H           3.0393    1.3591   -1.0202 H       1  LIG1        0.0691
     46 H           3.7445    6.0486   -0.2764 H       1  LIG1        0.0342
     47 H           5.1914    5.0774    0.1045 H       1  LIG1        0.0342
     48 H           3.7506    4.9172    1.1215 H       1  LIG1        0.0342
     49 H           0.0654    4.8065    0.2356 H       1  LIG1        0.0280
     50 H          -1.5466    4.1776    0.0179 H       1  LIG1        0.0280
     51 H          -0.7009    4.9144   -1.3686 H       1  LIG1        0.0280
     52 H          -3.6613    1.4635    0.2769 H       1  LIG1        0.0660
     53 H          -2.3146    0.3283    0.2058 H       1  LIG1        0.0660
     54 H          -3.5019    0.4441   -1.1370 H       1  LIG1        0.0660
@<TRIPOS>BOND
     1     1     2    2
     2     2     3    1
     3     5     6    1
     4     6     7    1
     5     6     8    2
     6     3     9    1
     7     9    11    1
     8    12    13   ar
     9    13    14   ar
    10    14    15   ar
    11    15    16   ar
    12    16    17   ar
    13    12    17   ar
    14    15    18    1
    15    18    19    1
    16    19    20    1
    17    19    21    2
    18     2    22    1
    19    22    23   ar
    20    11    23    1
    21    23    24   ar
    22    24    25   ar
    23    25    26    1
    24    26    27    1
    25    27    28    1
    26    27    29    2
    27    25    30   ar
    28    30    31    1
    29    22    32   ar
    30    30    32   ar
    31    32    33    1
    32    33    34    1
    33     9    12    1
    34     9    10    1
    35     3     5    1
    36     3     4    1
    37     7    35    1
    38     7    36    1
    39     7    37    1
    40    13    38    1
    41    14    39    1
    42    16    40    1
    43    17    41    1
    44    20    42    1
    45    20    43    1
    46    20    44    1
    47    24    45    1
    48    28    46    1
    49    28    47    1
    50    28    48    1
    51    31    49    1
    52    31    50    1
    53    31    51    1
    54    34    52    1
    55    34    53    1
    56    34    54    1
