@<TRIPOS>MOLECULE
NuBBE_1362
 56 60 0 0 0
SMALL
GASTEIGER

@<TRIPOS>ATOM
      1 C           2.8865   -1.4843    0.0242 C.3     1  LIG1       -0.0190
      2 C           3.0712   -1.6444    1.5133 C.2     1  LIG1       -0.0896
      3 C           3.6998   -0.7530    2.2923 C.2     1  LIG1       -0.1026
      4 C           1.5483   -0.7945   -0.3562 C.3     1  LIG1        0.0198
      5 H           0.7718   -1.4377    0.0746 H       1  LIG1        0.0469
      6 C           1.4439    0.6542    0.2069 C.3     1  LIG1       -0.0052
      7 H           1.7063    0.7043    1.2665 H       1  LIG1        0.0334
      8 C          -0.0044    1.1185    0.0183 C.3     1  LIG1        0.0390
      9 H          -0.0496    2.1754    0.3259 H       1  LIG1        0.0513
     10 N          -0.3000    1.0701   -1.4176 N.3     1  LIG1       -0.2767
     11 C          -0.0766   -0.2216   -2.0867 C.3     1  LIG1        0.0646
     12 H           0.3363   -0.0997   -3.0883 H       1  LIG1        0.0632
     13 N           1.2789   -0.7775   -1.8183 N.3     1  LIG1       -0.2830
     14 C           2.2669    0.1513   -2.4845 C.3     1  LIG1        0.0049
     15 C           1.9915    1.6134   -2.0530 C.3     1  LIG1       -0.0121
     16 H           2.6296    2.3010   -2.6178 H       1  LIG1        0.0328
     17 C           2.3586    1.6478   -0.5545 C.3     1  LIG1       -0.0416
     18 C           0.4784    2.0233   -2.2112 C.3     1  LIG1        0.0164
     19 C          -0.1526    1.9762   -3.6531 C.3     1  LIG1       -0.0369
     20 C          -1.4400    1.0442   -3.7668 C.3     1  LIG1       -0.0490
     21 C          -1.3227   -0.3399   -2.9854 C.3     1  LIG1       -0.0237
     22 C          -1.0681    0.4567    0.9082 C.2     1  LIG1       -0.0381
     23 C          -0.7846   -0.4160    1.8992 C.2     1  LIG1       -0.0000
     24 N          -1.7387   -1.0451    2.6939 N.am    1  LIG1       -0.2782
     25 C          -1.3218   -2.0321    3.6018 C.2     1  LIG1        0.2162
     26 O          -0.1547   -2.3798    3.7560 O.2     1  LIG1       -0.2756
     27 C          -2.4129   -2.6653    4.4359 C.3     1  LIG1        0.0127
     28 C          -3.1476   -0.7998    2.3908 C.3     1  LIG1        0.0195
     29 C          -3.3931    0.6065    1.8744 C.3     1  LIG1       -0.0330
     30 C          -2.4929    0.9091    0.6806 C.3     1  LIG1       -0.0274
     31 H           2.9217   -2.4852   -0.4261 H       1  LIG1        0.0322
     32 H           3.7482   -0.9439   -0.3789 H       1  LIG1        0.0322
     33 H           2.6561   -2.5423    1.9694 H       1  LIG1        0.0567
     34 H           4.1012    0.1722    1.8901 H       1  LIG1        0.0532
     35 H           3.7840   -0.9122    3.3629 H       1  LIG1        0.0532
     36 H           2.2035    0.0562   -3.5776 H       1  LIG1        0.0430
     37 H           3.2970   -0.1454   -2.2620 H       1  LIG1        0.0430
     38 H           2.2309    2.6616   -0.1561 H       1  LIG1        0.0273
     39 H           3.4130    1.3857   -0.4096 H       1  LIG1        0.0273
     40 H           0.3399    3.0419   -1.8263 H       1  LIG1        0.0466
     41 H           0.5948    1.6400   -4.3829 H       1  LIG1        0.0280
     42 H          -0.4393    2.9903   -3.9571 H       1  LIG1        0.0280
     43 H          -2.2947    1.5964   -3.3560 H       1  LIG1        0.0267
     44 H          -1.6634    0.8576   -4.8236 H       1  LIG1        0.0267
     45 H          -1.2250   -1.1658   -3.7055 H       1  LIG1        0.0293
     46 H          -2.2352   -0.5387   -2.4133 H       1  LIG1        0.0293
     47 H           0.2383   -0.6987    2.1298 H       1  LIG1        0.0784
     48 H          -2.8783   -1.9063    5.0715 H       1  LIG1        0.0323
     49 H          -1.9796   -3.4305    5.0850 H       1  LIG1        0.0323
     50 H          -3.1579   -3.1439    3.7949 H       1  LIG1        0.0323
     51 H          -3.7599   -0.9491    3.2838 H       1  LIG1        0.0468
     52 H          -3.4542   -1.5519    1.6534 H       1  LIG1        0.0468
     53 H          -3.1891    1.3247    2.6799 H       1  LIG1        0.0284
     54 H          -4.4463    0.7249    1.5981 H       1  LIG1        0.0284
     55 H          -2.5255    1.9898    0.4976 H       1  LIG1        0.0311
     56 H          -2.8882    0.4111   -0.2111 H       1  LIG1        0.0311
@<TRIPOS>BOND
     1     1     2    1
     2     2     3    2
     3     4     6    1
     4     6     7    1
     5     6     8    1
     6     8     9    1
     7     8    10    1
     8    10    11    1
     9    11    12    1
    10    11    13    1
    11     4    13    1
    12    13    14    1
    13    14    15    1
    14    15    16    1
    15    15    17    1
    16     6    17    1
    17    15    18    1
    18    10    18    1
    19    18    19    1
    20    19    20    1
    21    20    21    1
    22    11    21    1
    23     8    22    1
    24    22    23    2
    25    23    24    1
    26    24    25   am
    27    25    26    2
    28    25    27    1
    29    24    28    1
    30    28    29    1
    31    29    30    1
    32    22    30    1
    33     4     5    1
    34     4     1    1
    35     1    31    1
    36     1    32    1
    37     2    33    1
    38     3    34    1
    39     3    35    1
    40    14    36    1
    41    14    37    1
    42    17    38    1
    43    17    39    1
    44    18    40    1
    45    19    41    1
    46    19    42    1
    47    20    43    1
    48    20    44    1
    49    21    45    1
    50    21    46    1
    51    23    47    1
    52    27    48    1
    53    27    49    1
    54    27    50    1
    55    28    51    1
    56    28    52    1
    57    29    53    1
    58    29    54    1
    59    30    55    1
    60    30    56    1
