REMARK  Name = NuBBE_1404
REMARK  7 active torsions:
REMARK  status: ('A' for Active; 'I' for Inactive)
REMARK    1  A    between atoms: C_1  and  C_3
REMARK    2  A    between atoms: C_1  and  C_4
REMARK    3  A    between atoms: C_6  and  C_7
REMARK    4  A    between atoms: C_6  and  C_9
REMARK    5  A    between atoms: C_12  and  C_14
REMARK    6  A    between atoms: C_14  and  C_15
REMARK    7  A    between atoms: C_14  and  C_16
REMARK                            x       y       z     vdW  Elec       q    Type
REMARK                         _______ _______ _______ _____ _____    ______ ____
ROOT
ATOM      1  C   LIG A   1      -0.673   0.365   0.970  0.00  0.00    +0.046 C 
ATOM      2  C   LIG A   1       0.195   1.625   0.576  0.00  0.00    -0.004 C 
ATOM      3  C   LIG A   1      -0.611   2.938   0.729  0.00  0.00    +0.016 C 
ATOM      4  C   LIG A   1       0.634   1.520  -0.905  0.00  0.00    +0.016 C 
ATOM      5  C   LIG A   1       1.293   0.190  -1.297  0.00  0.00    +0.031 C 
ATOM      6  C   LIG A   1       0.779  -1.039  -0.579  0.00  0.00    -0.070 C 
ATOM      7  C   LIG A   1      -0.088  -0.932   0.448  0.00  0.00    -0.019 C 
ENDROOT
BRANCH   1   8
ATOM      8  C   LIG A   1      -2.171   0.428   0.627  0.00  0.00    -0.072 C 
ATOM      9  C   LIG A   1      -3.066   0.868   1.531  0.00  0.00    +0.008 C 
ATOM     10  C   LIG A   1      -2.637  -0.052  -0.724  0.00  0.00    +0.039 C 
ENDBRANCH   1   8
BRANCH   6  11
ATOM     11  C   LIG A   1       1.338  -2.370  -1.079  0.00  0.00    +0.009 C 
ATOM     12  C   LIG A   1       1.427  -3.456   0.001  0.00  0.00    +0.012 C 
ATOM     13  C   LIG A   1       0.545  -2.899  -2.280  0.00  0.00    +0.012 C 
ENDBRANCH   6  11
BRANCH   2  14
ATOM     14  C   LIG A   1       1.448   1.660   1.478  0.00  0.00    -0.027 C 
ATOM     15  C   LIG A   1       1.823   2.628   2.337  0.00  0.00    +0.004 C 
ENDBRANCH   2  14
TORSDOF 3
