REMARK  Name = NuBBE_2237
REMARK  3 active torsions:
REMARK  status: ('A' for Active; 'I' for Inactive)
REMARK    1  A    between atoms: C_1  and  C_2
REMARK    2  A    between atoms: C_17  and  C_18
REMARK    3  A    between atoms: C_17  and  C_19
REMARK                            x       y       z     vdW  Elec       q    Type
REMARK                         _______ _______ _______ _____ _____    ______ ____
ROOT
ATOM      1  C   LIG A   1      -1.674   1.828   0.681  0.00  0.00    +0.016 C 
ATOM      2  C   LIG A   1      -0.235   1.282   0.436  0.00  0.00    -0.007 C 
ATOM      3  C   LIG A   1       0.240   0.459   1.708  0.00  0.00    +0.005 C 
ATOM      4  C   LIG A   1      -0.585  -0.831   1.892  0.00  0.00    +0.006 C 
ATOM      5  C   LIG A   1      -0.634  -1.731   0.675  0.00  0.00    +0.012 C 
ATOM      6  C   LIG A   1      -0.979  -1.025  -0.643  0.00  0.00    -0.004 C 
ATOM      7  C   LIG A   1      -2.482  -0.930  -0.940  0.00  0.00    +0.041 C 
ATOM      8  C   LIG A   1      -0.326   0.361  -0.813  0.00  0.00    -0.061 C 
ATOM      9  C   LIG A   1       0.101   0.678  -2.054  0.00  0.00    -0.026 C 
ATOM     10  C   LIG A   1      -0.111  -0.225  -3.245  0.00  0.00    +0.035 C 
ATOM     11  C   LIG A   1      -1.151  -1.428  -3.067  0.00  0.00    +0.019 C 
ATOM     12  C   LIG A   1      -0.530  -1.984  -1.788  0.00  0.00    +0.020 C 
ATOM     13  C   LIG A   1      -2.526  -1.586  -2.296  0.00  0.00    -0.072 C 
ATOM     14  C   LIG A   1      -3.498  -2.404  -2.689  0.00  0.00    +0.008 C 
ATOM     15  C   LIG A   1       1.813   0.311   1.805  0.00  0.00    -0.031 C 
ATOM     16  C   LIG A   1       2.338  -0.414   3.067  0.00  0.00    +0.011 C 
ATOM     17  C   LIG A   1       2.457  -0.432   0.615  0.00  0.00    +0.011 C 
ATOM     18  C   LIG A   1       2.337   1.764   1.902  0.00  0.00    +0.007 C 
ATOM     19  C   LIG A   1       2.105   2.526   0.613  0.00  0.00    +0.001 C 
ATOM     20  C   LIG A   1       0.623   2.592   0.263  0.00  0.00    +0.011 C 
ENDROOT
TORSDOF 0
