@<TRIPOS>MOLECULE
NuBBE_1504
 53 53 0 0 0
SMALL
GASTEIGER

@<TRIPOS>ATOM
      1 C           3.1546    1.1936   -3.6631 C.3     1  LIG1       -0.0209
      2 C           3.0641    1.9743   -2.3476 C.3     1  LIG1        0.0099
      3 C           3.0983    1.0887   -1.0974 C.2     1  LIG1        0.1361
      4 O           3.9951    0.2764   -0.9231 O.2     1  LIG1       -0.2973
      5 C           1.8914    1.1827   -0.1630 C.3     1  LIG1        0.0319
      6 C           2.2368    0.7752    1.2701 C.3     1  LIG1        0.0619
      7 H           2.6649   -0.2334    1.2943 H       1  LIG1        0.0597
      8 C           1.0416    0.8686    2.2398 C.3     1  LIG1       -0.0265
      9 C          -0.1491   -0.0353    1.9017 C.3     1  LIG1       -0.0507
     10 C          -1.2942    0.1338    2.9145 C.3     1  LIG1       -0.0530
     11 C          -2.4978   -0.7557    2.5756 C.3     1  LIG1       -0.0531
     12 C          -3.6657   -0.6403    3.5666 C.3     1  LIG1       -0.0533
     13 C          -4.2724    0.7615    3.6630 C.3     1  LIG1       -0.0559
     14 C          -5.4355    0.8011    4.6449 C.3     1  LIG1       -0.0653
     15 O           3.2243    1.6925    1.7541 O.3     1  LIG1       -0.3914
     16 C           1.9924    0.2639   -3.9388 C.ar    1  LIG1       -0.0433
     17 C           1.7787   -0.8617   -3.1243 C.ar    1  LIG1       -0.0131
     18 C           0.6950   -1.7152   -3.3250 C.ar    1  LIG1        0.1615
     19 O           0.3897   -2.8021   -2.5448 O.3     1  LIG1       -0.4915
     20 C           1.2379   -3.0262   -1.4175 C.3     1  LIG1        0.0790
     21 C          -0.1538   -1.4640   -4.4046 C.ar    1  LIG1        0.1585
     22 C           0.0668   -0.3911   -5.2620 C.ar    1  LIG1       -0.0163
     23 C           1.1349    0.4775   -5.0251 C.ar    1  LIG1       -0.0549
     24 O          -1.2301   -2.2713   -4.6527 O.3     1  LIG1       -0.5033
     25 H           4.0854    0.6162   -3.7122 H       1  LIG1        0.0317
     26 H           3.2177    1.9304   -4.4781 H       1  LIG1        0.0317
     27 H           2.1644    2.5950   -2.3369 H       1  LIG1        0.0345
     28 H           3.9231    2.6505   -2.2677 H       1  LIG1        0.0345
     29 H           1.1198    0.5254   -0.5785 H       1  LIG1        0.0367
     30 H           1.5244    2.2100   -0.1762 H       1  LIG1        0.0367
     31 H           0.7106    1.9141    2.2974 H       1  LIG1        0.0290
     32 H           1.4001    0.6284    3.2506 H       1  LIG1        0.0290
     33 H           0.1789   -1.0808    1.8833 H       1  LIG1        0.0266
     34 H          -0.5305    0.2083    0.9047 H       1  LIG1        0.0266
     35 H          -1.6005    1.1855    2.9189 H       1  LIG1        0.0265
     36 H          -0.9369   -0.1058    3.9232 H       1  LIG1        0.0265
     37 H          -2.1714   -1.8035    2.5607 H       1  LIG1        0.0265
     38 H          -2.8574   -0.5247    1.5657 H       1  LIG1        0.0265
     39 H          -3.3336   -0.9662    4.5596 H       1  LIG1        0.0265
     40 H          -4.4498   -1.3425    3.2538 H       1  LIG1        0.0265
     41 H          -4.6219    1.0866    2.6762 H       1  LIG1        0.0263
     42 H          -3.5193    1.4815    3.9980 H       1  LIG1        0.0263
     43 H          -5.8280    1.8200    4.7269 H       1  LIG1        0.0230
     44 H          -5.1172    0.4816    5.6426 H       1  LIG1        0.0230
     45 H          -6.2513    0.1485    4.3185 H       1  LIG1        0.0230
     46 H           3.6096    1.3043    2.5599 H       1  LIG1        0.2098
     47 H           2.4877   -1.0640   -2.3312 H       1  LIG1        0.0658
     48 H           0.9479   -3.9747   -0.9565 H       1  LIG1        0.0660
     49 H           1.1086   -2.2349   -0.6699 H       1  LIG1        0.0660
     50 H           2.2890   -3.1209   -1.7116 H       1  LIG1        0.0660
     51 H          -0.5935   -0.2318   -6.1096 H       1  LIG1        0.0655
     52 H           1.2943    1.3126   -5.7038 H       1  LIG1        0.0621
     53 H          -1.2181   -2.9422   -3.9437 H       1  LIG1        0.2923
@<TRIPOS>BOND
     1     1     2    1
     2     2     3    1
     3     3     4    2
     4     3     5    1
     5     6     8    1
     6     8     9    1
     7     9    10    1
     8    10    11    1
     9    11    12    1
    10    12    13    1
    11    13    14    1
    12     6    15    1
    13     1    16    1
    14    16    17   ar
    15    17    18   ar
    16    18    19    1
    17    19    20    1
    18    18    21   ar
    19    21    22   ar
    20    22    23   ar
    21    16    23   ar
    22    21    24    1
    23     6     7    1
    24     6     5    1
    25     1    25    1
    26     1    26    1
    27     2    27    1
    28     2    28    1
    29     5    29    1
    30     5    30    1
    31     8    31    1
    32     8    32    1
    33     9    33    1
    34     9    34    1
    35    10    35    1
    36    10    36    1
    37    11    37    1
    38    11    38    1
    39    12    39    1
    40    12    40    1
    41    13    41    1
    42    13    42    1
    43    14    43    1
    44    14    44    1
    45    14    45    1
    46    15    46    1
    47    17    47    1
    48    20    48    1
    49    20    49    1
    50    20    50    1
    51    22    51    1
    52    23    52    1
    53    24    53    1
