@<TRIPOS>MOLECULE
NuBBE_282
 73 77 0 0 0
SMALL
GASTEIGER

@<TRIPOS>ATOM
      1 O          -0.4943   -4.2605    2.9266 O.3     1  LIG1       -0.5058
      2 C          -0.0275   -3.4172    3.8977 C.ar    1  LIG1        0.1348
      3 C          -0.0371   -2.0245    3.7648 C.ar    1  LIG1        0.1092
      4 C          -0.4631   -1.3619    2.5232 C.ar    1  LIG1        0.2382
      5 C          -0.2429    0.1194    2.4131 C.ar    1  LIG1        0.2138
      6 O          -0.3855    0.6342    1.1332 O.3     1  LIG1       -0.4532
      7 C           0.5005    1.6590    0.6646 C.3     1  LIG1        0.2311
      8 H           0.2936    2.5785    1.2005 H       1  LIG1        0.1084
      9 O           0.1958    2.0561   -0.6919 O.3     1  LIG1       -0.3313
     10 C           0.6252    1.1667   -1.7318 C.3     1  LIG1        0.1144
     11 H           0.5467    1.7531   -2.6588 H       1  LIG1        0.0647
     12 C           2.1219    0.8024   -1.6175 C.3     1  LIG1        0.1120
     13 H           2.6903    1.7167   -1.8307 H       1  LIG1        0.0647
     14 C           2.4932    0.3565   -0.2023 C.3     1  LIG1        0.1152
     15 H           3.5834    0.2469   -0.1503 H       1  LIG1        0.0648
     16 O           1.9154   -0.9183    0.0881 O.3     1  LIG1       -0.3864
     17 O           2.5769   -0.1592   -2.5677 O.3     1  LIG1       -0.3865
     18 C          -0.3549   -0.0008   -1.9295 C.3     1  LIG1        0.0796
     19 O           0.0346   -0.7387   -3.0883 O.3     1  LIG1       -0.3461
     20 C          -0.7919   -1.8502   -3.4035 C.3     1  LIG1        0.1879
     21 H          -0.7510   -2.5742   -2.5822 H       1  LIG1        0.0937
     22 C          -2.2550   -1.4914   -3.7201 C.3     1  LIG1        0.1341
     23 H          -2.7600   -1.0331   -2.8655 H       1  LIG1        0.0671
     24 C          -2.2830   -0.5338   -4.9125 C.3     1  LIG1        0.1140
     25 H          -1.8197    0.4257   -4.6546 H       1  LIG1        0.0648
     26 C          -1.5695   -1.1472   -6.1222 C.3     1  LIG1        0.1095
     27 H          -2.1912   -1.9521   -6.5337 H       1  LIG1        0.0646
     28 C          -0.1876   -1.6984   -5.7275 C.3     1  LIG1        0.0873
     29 H           0.5136   -0.8739   -5.5460 H       1  LIG1        0.0621
     30 O          -0.2561   -2.5337   -4.5553 O.3     1  LIG1       -0.3431
     31 C           0.3902   -2.5472   -6.8587 C.3     1  LIG1       -0.0361
     32 O          -1.4536   -0.1575   -7.1502 O.3     1  LIG1       -0.3866
     33 O          -3.6406   -0.2401   -5.2839 O.3     1  LIG1       -0.3864
     34 O          -3.0209   -2.6668   -4.0575 O.3     1  LIG1       -0.3841
     35 C           2.0161    1.3985    0.8079 C.3     1  LIG1        0.1454
     36 H           2.2545    1.0550    1.8180 H       1  LIG1        0.0683
     37 O           2.7420    2.6279    0.6051 O.3     1  LIG1       -0.3829
     38 C          -0.0239    0.7738    3.5828 C.ar    1  LIG1        0.1810
     39 O           0.2906    0.1352    4.7830 O.2     1  LIG1       -0.4507
     40 C           0.3899   -1.2292    4.8169 C.ar    1  LIG1        0.1465
     41 C           0.9014   -1.8121    5.9819 C.ar    1  LIG1        0.0231
     42 C           0.9510   -3.2008    6.0835 C.ar    1  LIG1        0.1239
     43 O           1.4635   -3.8194    7.1856 O.3     1  LIG1       -0.5065
     44 C           0.4689   -4.0080    5.0583 C.ar    1  LIG1        0.0223
     45 H           0.4860   -5.0900    5.1583 H       1  LIG1        0.0691
     46 C          -0.1323    2.2436    3.7726 C.ar    1  LIG1        0.0247
     47 C           0.6714    2.9177    4.7133 C.ar    1  LIG1       -0.0473
     48 C           0.5784    4.3059    4.8865 C.ar    1  LIG1       -0.0159
     49 C          -0.2963    5.0303    4.0893 C.ar    1  LIG1        0.1583
     50 C          -1.1109    4.3743    3.1768 C.ar    1  LIG1        0.1589
     51 O          -1.9250    5.0849    2.3435 O.3     1  LIG1       -0.5033
     52 C          -1.0860    2.9922    3.0654 C.ar    1  LIG1       -0.0057
     53 O          -0.3950    6.3902    4.1630 O.3     1  LIG1       -0.5033
     54 O          -0.9737   -2.0233    1.6321 O.2     1  LIG1       -0.2830
     55 H          -0.8705   -3.7126    2.2009 H       1  LIG1        0.2922
     56 H           2.6299   -1.4944    0.4141 H       1  LIG1        0.2100
     57 H           1.9046   -0.8694   -2.6038 H       1  LIG1        0.2100
     58 H          -0.4054   -0.6604   -1.0611 H       1  LIG1        0.0587
     59 H          -1.3515    0.4301   -2.0790 H       1  LIG1        0.0587
     60 H           0.4669   -1.9808   -7.7919 H       1  LIG1        0.0255
     61 H          -0.2312   -3.4323   -7.0369 H       1  LIG1        0.0255
     62 H           1.3872   -2.9136   -6.5921 H       1  LIG1        0.0255
     63 H          -2.3214    0.2929   -7.1799 H       1  LIG1        0.2100
     64 H          -4.1474   -1.0574   -5.0975 H       1  LIG1        0.2100
     65 H          -2.3852   -3.3304   -4.3958 H       1  LIG1        0.2101
     66 H           2.2198    3.1842   -0.0080 H       1  LIG1        0.2102
     67 H           1.2499   -1.1806    6.7932 H       1  LIG1        0.0691
     68 H           1.8395   -3.1570    7.7882 H       1  LIG1        0.2921
     69 H           1.3831    2.3677    5.3273 H       1  LIG1        0.0626
     70 H           1.2048    4.7945    5.6261 H       1  LIG1        0.0655
     71 H          -1.7163    6.0219    2.5291 H       1  LIG1        0.2923
     72 H          -1.7692    2.5198    2.3625 H       1  LIG1        0.0662
     73 H           0.1454    6.6962    4.9113 H       1  LIG1        0.2923
@<TRIPOS>BOND
     1     1     2    1
     2     2     3   ar
     3     3     4   ar
     4     4     5   ar
     5     5     6    1
     6     7     9    1
     7     9    10    1
     8    10    12    1
     9    12    14    1
    10    18    19    1
    11    19    20    1
    12    20    21    1
    13    20    22    1
    14    22    24    1
    15    24    25    1
    16    24    26    1
    17    26    28    1
    18    28    29    1
    19    28    30    1
    20    20    30    1
    21    28    31    1
    22    24    33    1
    23     7    35    1
    24    14    35    1
    25     5    38   ar
    26    38    39   ar
    27    39    40   ar
    28     3    40   ar
    29    40    41   ar
    30    41    42   ar
    31    42    43    1
    32    42    44   ar
    33     2    44   ar
    34    44    45    1
    35    38    46    1
    36    46    47   ar
    37    47    48   ar
    38    48    49   ar
    39    49    50   ar
    40    50    51    1
    41    50    52   ar
    42    46    52   ar
    43    49    53    1
    44     4    54    2
    45     7     8    1
    46     7     6    1
    47    10    18    1
    48    10    11    1
    49    12    17    1
    50    12    13    1
    51    14    16    1
    52    14    15    1
    53    22    34    1
    54    22    23    1
    55    26    32    1
    56    26    27    1
    57    35    37    1
    58    35    36    1
    59     1    55    1
    60    16    56    1
    61    17    57    1
    62    18    58    1
    63    18    59    1
    64    31    60    1
    65    31    61    1
    66    31    62    1
    67    32    63    1
    68    33    64    1
    69    34    65    1
    70    37    66    1
    71    41    67    1
    72    43    68    1
    73    47    69    1
    74    48    70    1
    75    51    71    1
    76    52    72    1
    77    53    73    1
