@<TRIPOS>MOLECULE
NuBBE_259
 42 45 0 0 0
SMALL
GASTEIGER

@<TRIPOS>ATOM
      1 O          -3.9310    5.0682   -0.1083 O.3     1  LIG1       -0.3950
      2 C          -2.5243    4.8548   -0.0554 C.3     1  LIG1        0.0445
      3 C          -2.0150    4.6703   -1.4783 C.3     1  LIG1       -0.0257
      4 C          -0.5050    4.4307   -1.5652 C.3     1  LIG1       -0.0255
      5 C          -0.0340    3.1363   -0.9405 C.ar    1  LIG1       -0.0430
      6 C           0.9039    3.1394    0.1060 C.ar    1  LIG1       -0.0131
      7 C           1.3593    1.9501    0.7013 C.ar    1  LIG1        0.1630
      8 O           2.2786    2.0893    1.7265 O.3     1  LIG1       -0.4914
      9 C           2.3251    0.9892    2.6319 C.3     1  LIG1        0.0790
     10 C           0.8660    0.7569    0.1612 C.ar    1  LIG1        0.1771
     11 O           1.1803   -0.5135    0.5485 O.2     1  LIG1       -0.4511
     12 C           0.4728   -1.3791   -0.2294 C.ar    1  LIG1        0.1365
     13 C           0.6341   -2.7993    0.0527 C.ar    1  LIG1        0.0210
     14 C          -0.0789   -3.7416   -0.7041 C.ar    1  LIG1       -0.0055
     15 C           0.0648   -5.0744   -0.3994 C.ar    1  LIG1        0.1669
     16 C           0.8846   -5.5056    0.6169 C.ar    1  LIG1        0.1663
     17 O           0.8735   -6.8572    0.7507 O.3     1  LIG1       -0.4526
     18 C          -0.0480   -7.2279   -0.2967 C.3     1  LIG1        0.2332
     19 O          -0.5642   -6.1016   -1.0323 O.3     1  LIG1       -0.4526
     20 C           1.6088   -4.6200    1.3818 C.ar    1  LIG1       -0.0155
     21 C           1.4811   -3.2554    1.0943 C.ar    1  LIG1       -0.0474
     22 C          -0.2870   -0.6644   -1.1380 C.ar    1  LIG1       -0.0080
     23 C          -0.0457    0.7087   -0.8846 C.ar    1  LIG1        0.0247
     24 C          -0.5117    1.9120   -1.4410 C.ar    1  LIG1       -0.0475
     25 H          -4.2919    4.8197    0.7602 H       1  LIG1        0.2094
     26 H          -2.3355    3.9657    0.5531 H       1  LIG1        0.0557
     27 H          -2.0592    5.7221    0.4238 H       1  LIG1        0.0557
     28 H          -2.2661    5.5649   -2.0630 H       1  LIG1        0.0290
     29 H          -2.5714    3.8531   -1.9540 H       1  LIG1        0.0290
     30 H           0.0272    5.2827   -1.1254 H       1  LIG1        0.0314
     31 H          -0.2152    4.4067   -2.6239 H       1  LIG1        0.0314
     32 H           1.2947    4.0835    0.4833 H       1  LIG1        0.0658
     33 H           2.9358    1.2851    3.4901 H       1  LIG1        0.0660
     34 H           2.8115    0.1199    2.1792 H       1  LIG1        0.0660
     35 H           1.3257    0.7393    3.0059 H       1  LIG1        0.0660
     36 H          -0.7408   -3.4483   -1.5119 H       1  LIG1        0.0662
     37 H          -0.8909   -7.7665    0.1508 H       1  LIG1        0.1166
     38 H           0.4662   -7.8945   -0.9979 H       1  LIG1        0.1166
     39 H           2.2527   -4.9670    2.1827 H       1  LIG1        0.0655
     40 H           2.0427   -2.5414    1.6918 H       1  LIG1        0.0626
     41 H          -0.9458   -1.0766   -1.8854 H       1  LIG1        0.0661
     42 H          -1.2278    1.8857   -2.2578 H       1  LIG1        0.0627
@<TRIPOS>BOND
     1     1     2    1
     2     2     3    1
     3     3     4    1
     4     4     5    1
     5     5     6   ar
     6     6     7   ar
     7     7     8    1
     8     8     9    1
     9     7    10   ar
    10    10    11   ar
    11    11    12   ar
    12    12    13    1
    13    13    14   ar
    14    14    15   ar
    15    15    16   ar
    16    16    17    1
    17    17    18    1
    18    18    19    1
    19    15    19    1
    20    16    20   ar
    21    20    21   ar
    22    13    21   ar
    23    12    22   ar
    24    10    23   ar
    25    22    23   ar
    26    23    24   ar
    27     5    24   ar
    28     1    25    1
    29     2    26    1
    30     2    27    1
    31     3    28    1
    32     3    29    1
    33     4    30    1
    34     4    31    1
    35     6    32    1
    36     9    33    1
    37     9    34    1
    38     9    35    1
    39    14    36    1
    40    18    37    1
    41    18    38    1
    42    20    39    1
    43    21    40    1
    44    22    41    1
    45    24    42    1
