@<TRIPOS>MOLECULE
NuBBE_212
 50 51 0 0 0
SMALL
GASTEIGER

@<TRIPOS>ATOM
      1 C          -1.8538   -1.4357   -2.1139 C.3     1  LIG1        0.0790
      2 O          -0.7043   -2.1833   -1.7339 O.3     1  LIG1       -0.4913
      3 C          -0.0223   -1.7596   -0.6193 C.ar    1  LIG1        0.1658
      4 C           0.2349   -0.4267   -0.2390 C.ar    1  LIG1        0.2067
      5 C           0.9276   -0.1923    0.9692 C.ar    1  LIG1        0.1658
      6 O           0.9908    1.0930    1.4394 O.3     1  LIG1       -0.4913
      7 C           1.7073    1.3292    2.6457 C.3     1  LIG1        0.0790
      8 C           1.4675   -1.2632    1.6857 C.ar    1  LIG1       -0.0089
      9 C           1.2833   -2.5784    1.2645 C.ar    1  LIG1       -0.0181
     10 C           1.9930   -3.6140    2.0093 C.2     1  LIG1       -0.0562
     11 C           1.5349   -4.8731    2.2141 C.2     1  LIG1       -0.0584
     12 C           2.3441   -5.9151    2.9025 C.3     1  LIG1        0.0627
     13 O           2.0568   -5.8981    4.2902 O.3     1  LIG1       -0.3910
     14 C           0.5164   -2.8183    0.1264 C.ar    1  LIG1       -0.0089
     15 O          -0.2746    0.5663   -1.0398 O.3     1  LIG1       -0.4535
     16 C           0.4500    1.8037   -1.1659 C.3     1  LIG1        0.2311
     17 H           1.5169    1.6475   -0.9627 H       1  LIG1        0.1084
     18 O          -0.0391    2.8031   -0.2536 O.3     1  LIG1       -0.3313
     19 C          -1.4087    3.1977   -0.4153 C.3     1  LIG1        0.1140
     20 H          -1.4090    4.2852   -0.2651 H       1  LIG1        0.0647
     21 C          -1.9728    2.9220   -1.8189 C.3     1  LIG1        0.1120
     22 H          -2.2978    1.8853   -1.9530 H       1  LIG1        0.0647
     23 C          -0.8614    3.2473   -2.8171 C.3     1  LIG1        0.1152
     24 H          -0.5512    4.2950   -2.6942 H       1  LIG1        0.0648
     25 O          -1.3184    3.1373   -4.1747 O.3     1  LIG1       -0.3864
     26 O          -3.1071    3.7490   -2.1102 O.3     1  LIG1       -0.3865
     27 C          -2.2801    2.6451    0.7231 C.3     1  LIG1        0.0731
     28 O          -2.3255    1.2275    0.7446 O.3     1  LIG1       -0.3924
     29 C           0.3294    2.3003   -2.6327 C.3     1  LIG1        0.1454
     30 H           0.2359    1.4398   -3.3064 H       1  LIG1        0.0683
     31 O           1.5152    3.0006   -3.0589 O.3     1  LIG1       -0.3829
     32 H          -2.4498   -2.0667   -2.7825 H       1  LIG1        0.0660
     33 H          -1.5699   -0.5522   -2.6908 H       1  LIG1        0.0660
     34 H          -2.4834   -1.1745   -1.2567 H       1  LIG1        0.0660
     35 H           1.6458    2.3959    2.8774 H       1  LIG1        0.0660
     36 H           2.7651    1.0715    2.5257 H       1  LIG1        0.0660
     37 H           1.2587    0.7844    3.4837 H       1  LIG1        0.0660
     38 H           2.0338   -1.1008    2.5947 H       1  LIG1        0.0661
     39 H           2.9519   -3.3388    2.4194 H       1  LIG1        0.0621
     40 H           0.5616   -5.1774    1.8519 H       1  LIG1        0.0595
     41 H           3.4187   -5.7649    2.7587 H       1  LIG1        0.0601
     42 H           2.0927   -6.9079    2.5061 H       1  LIG1        0.0601
     43 H           2.2028   -4.9859    4.5940 H       1  LIG1        0.2098
     44 H           0.3413   -3.8381   -0.2115 H       1  LIG1        0.0661
     45 H          -2.2858    3.2806   -4.1427 H       1  LIG1        0.2100
     46 H          -3.8390    3.4527   -1.5387 H       1  LIG1        0.2100
     47 H          -1.8917    2.9724    1.6932 H       1  LIG1        0.0584
     48 H          -3.3101    2.9996    0.6315 H       1  LIG1        0.0584
     49 H          -1.4178    0.9486    0.9774 H       1  LIG1        0.2095
     50 H           1.2970    3.3844   -3.9308 H       1  LIG1        0.2102
@<TRIPOS>BOND
     1     1     2    1
     2     2     3    1
     3     3     4   ar
     4     4     5   ar
     5     5     6    1
     6     6     7    1
     7     5     8   ar
     8     8     9   ar
     9     9    10    1
    10    10    11    2
    11    11    12    1
    12    12    13    1
    13     9    14   ar
    14     3    14   ar
    15     4    15    1
    16    15    16    1
    17    16    17    1
    18    16    18    1
    19    18    19    1
    20    19    21    1
    21    21    22    1
    22    21    23    1
    23    21    26    1
    24    27    28    1
    25    16    29    1
    26    23    29    1
    27    19    27    1
    28    19    20    1
    29    23    25    1
    30    23    24    1
    31    29    31    1
    32    29    30    1
    33     1    32    1
    34     1    33    1
    35     1    34    1
    36     7    35    1
    37     7    36    1
    38     7    37    1
    39     8    38    1
    40    10    39    1
    41    11    40    1
    42    12    41    1
    43    12    42    1
    44    13    43    1
    45    14    44    1
    46    25    45    1
    47    26    46    1
    48    27    47    1
    49    27    48    1
    50    28    49    1
    51    31    50    1
