@<TRIPOS>MOLECULE
NuBBE_1053
 62 67 0 0 0
SMALL
GASTEIGER

@<TRIPOS>ATOM
      1 O          -3.7225    1.1740    4.6891 O.2     1  LIG1       -0.2921
      2 C          -2.8151    0.9692    3.8838 C.2     1  LIG1        0.1617
      3 C          -2.5596   -0.4291    3.4740 C.2     1  LIG1       -0.0221
      4 C          -1.5397   -0.7705    2.6768 C.2     1  LIG1       -0.0742
      5 C          -0.5340    0.1972    2.0623 C.3     1  LIG1       -0.0058
      6 C           0.7250    0.1015    2.9469 C.3     1  LIG1       -0.0555
      7 C          -1.2141    1.6120    2.0247 C.3     1  LIG1       -0.0131
      8 C          -0.2807    2.6528    1.4102 C.3     1  LIG1        0.0110
      9 C           0.1519    2.2779    0.0054 C.2     1  LIG1        0.1427
     10 C           0.6864    0.8414   -0.2453 C.3     1  LIG1        0.0623
     11 C           2.1600    0.9226    0.2173 C.3     1  LIG1       -0.0497
     12 C          -0.2207   -0.1778    0.5533 C.3     1  LIG1       -0.0170
     13 H          -1.2053   -0.1435    0.0556 H       1  LIG1        0.0319
     14 C           0.2780   -1.6258    0.3281 C.3     1  LIG1       -0.0477
     15 C           0.1640   -2.0151   -1.1449 C.3     1  LIG1       -0.0408
     16 C           0.9397   -1.0910   -2.1046 C.3     1  LIG1        0.0422
     17 C           2.4568   -1.3810   -2.0175 C.3     1  LIG1       -0.0531
     18 C           0.6537    0.3883   -1.7488 C.3     1  LIG1        0.1283
     19 O          -0.4856    0.9302   -2.4462 O.3     1  LIG1       -0.3512
     20 C           0.8104    1.3545   -2.9109 C.3     1  LIG1        0.1861
     21 H           1.1222    2.3708   -2.7168 H       1  LIG1        0.0743
     22 C           1.1940    0.8819   -4.2637 C.2     1  LIG1        0.3398
     23 O           1.1449   -0.4575   -4.5024 O.3     1  LIG1       -0.4539
     24 C           0.4484   -1.3308   -3.5867 C.3     1  LIG1        0.1391
     25 H          -0.6193   -1.0834   -3.6746 H       1  LIG1        0.0793
     26 C           0.5678   -2.7535   -4.0743 C.ar    1  LIG1        0.0310
     27 C           1.6231   -3.3259   -4.7597 C.ar    1  LIG1        0.0984
     28 O           1.3722   -4.6282   -5.0425 O.2     1  LIG1       -0.4706
     29 C           0.1330   -4.9035   -4.5668 C.ar    1  LIG1        0.0921
     30 C          -0.4099   -3.7888   -3.9736 C.ar    1  LIG1       -0.0172
     31 O           1.6223    1.6695   -5.0963 O.2     1  LIG1       -0.2478
     32 O           0.2491    3.1843   -0.8246 O.2     1  LIG1       -0.2967
     33 H          -2.0448    1.5106    1.3037 H       1  LIG1        0.0322
     34 C          -1.9095    2.0845    3.3479 C.3     1  LIG1        0.0314
     35 C          -2.8256    3.2990    3.0538 C.3     1  LIG1       -0.0525
     36 C          -0.9478    2.4929    4.4737 C.3     1  LIG1       -0.0525
     37 H          -3.2244   -1.1722    3.9023 H       1  LIG1        0.0649
     38 H          -1.4028   -1.8367    2.5174 H       1  LIG1        0.0579
     39 H           0.4795   -0.0065    4.0083 H       1  LIG1        0.0238
     40 H           1.3748    0.9733    2.8645 H       1  LIG1        0.0238
     41 H           1.3252   -0.7810    2.7029 H       1  LIG1        0.0238
     42 H           0.6120    2.8277    2.0155 H       1  LIG1        0.0345
     43 H          -0.7951    3.6152    1.3217 H       1  LIG1        0.0345
     44 H           2.3212    1.6632    1.0066 H       1  LIG1        0.0240
     45 H           2.8108    1.2306   -0.6100 H       1  LIG1        0.0240
     46 H           2.5426   -0.0227    0.6033 H       1  LIG1        0.0240
     47 H          -0.3263   -2.3481    0.8814 H       1  LIG1        0.0269
     48 H           1.3032   -1.7656    0.6800 H       1  LIG1        0.0269
     49 H          -0.9020   -2.0066   -1.4102 H       1  LIG1        0.0273
     50 H           0.5025   -3.0528   -1.2534 H       1  LIG1        0.0273
     51 H           2.8378   -1.3264   -0.9978 H       1  LIG1        0.0237
     52 H           3.0404   -0.6745   -2.6170 H       1  LIG1        0.0237
     53 H           2.6967   -2.3918   -2.3607 H       1  LIG1        0.0237
     54 H           2.5779   -2.9508   -5.1037 H       1  LIG1        0.1033
     55 H          -0.2175   -5.9129   -4.7319 H       1  LIG1        0.1029
     56 H          -1.3915   -3.7286   -3.5240 H       1  LIG1        0.0653
     57 H          -3.5251    3.0793    2.2392 H       1  LIG1        0.0239
     58 H          -2.2516    4.1906    2.7835 H       1  LIG1        0.0239
     59 H          -3.4301    3.5707    3.9276 H       1  LIG1        0.0239
     60 H          -0.2086    3.2253    4.1364 H       1  LIG1        0.0239
     61 H          -0.4211    1.6408    4.9059 H       1  LIG1        0.0239
     62 H          -1.4974    2.9508    5.3059 H       1  LIG1        0.0239
@<TRIPOS>BOND
     1     1     2    2
     2     2     3    1
     3     3     4    2
     4     4     5    1
     5     5     6    1
     6     5     7    1
     7     7     8    1
     8     8     9    1
     9     9    10    1
    10    10    11    1
    11    10    12    1
    12    12    13    1
    13     5    12    1
    14    12    14    1
    15    14    15    1
    16    15    16    1
    17    16    17    1
    18    16    18    1
    19    18    19    1
    20    10    18    1
    21    18    20    1
    22    20    21    1
    23    19    20    1
    24    20    22    1
    25    22    23    1
    26    23    24    1
    27    24    25    1
    28    16    24    1
    29    24    26    1
    30    26    27   ar
    31    27    28   ar
    32    28    29   ar
    33    29    30   ar
    34    26    30   ar
    35    22    31    2
    36     9    32    2
    37     7    33    1
    38     7    34    1
    39    34    35    1
    40     2    34    1
    41    34    36    1
    42     3    37    1
    43     4    38    1
    44     6    39    1
    45     6    40    1
    46     6    41    1
    47     8    42    1
    48     8    43    1
    49    11    44    1
    50    11    45    1
    51    11    46    1
    52    14    47    1
    53    14    48    1
    54    15    49    1
    55    15    50    1
    56    17    51    1
    57    17    52    1
    58    17    53    1
    59    27    54    1
    60    29    55    1
    61    30    56    1
    62    35    57    1
    63    35    58    1
    64    35    59    1
    65    36    60    1
    66    36    61    1
    67    36    62    1
