REMARK  Name = NuBBE_863
REMARK  10 active torsions:
REMARK  status: ('A' for Active; 'I' for Inactive)
REMARK    1  A    between atoms: C_1  and  C_2
REMARK    2  A    between atoms: C_3  and  C_10
REMARK    3  A    between atoms: C_5  and  O_8
REMARK    4  A    between atoms: C_6  and  C_7
REMARK    5  A    between atoms: O_8  and  C_9
REMARK    6  A    between atoms: C_12  and  O_13
REMARK    7  A    between atoms: O_13  and  C_14
REMARK    8  A    between atoms: C_15  and  O_20
REMARK    9  A    between atoms: C_16  and  O_18
REMARK   10  A    between atoms: O_18  and  C_19
REMARK                            x       y       z     vdW  Elec       q    Type
REMARK                         _______ _______ _______ _____ _____    ______ ____
ROOT
ATOM      1  C   LIG A   1       0.052   0.510   0.580  0.00  0.00    -0.011 A 
ATOM      2  C   LIG A   1       0.320  -0.777   1.088  0.00  0.00    +0.056 A 
ATOM      3  C   LIG A   1      -0.280  -1.272   2.257  0.00  0.00    +0.165 A 
ATOM      4  C   LIG A   1      -1.164  -0.432   2.948  0.00  0.00    +0.201 A 
ATOM      5  C   LIG A   1      -1.478   0.836   2.446  0.00  0.00    +0.165 A 
ATOM      6  C   LIG A   1      -0.878   1.310   1.280  0.00  0.00    +0.056 A 
ENDROOT
BRANCH   1   9
ATOM      7  C   LIG A   1      -1.400   1.045  -2.134  0.00  0.00    +0.011 C 
ATOM      8  C   LIG A   1       0.104   0.858  -2.021  0.00  0.00    +0.027 C 
ATOM      9  C   LIG A   1       0.755   1.085  -0.649  0.00  0.00    +0.155 C 
ATOM     10  O   LIG A   1       2.079   0.506  -0.772  0.00  0.00    -0.343 OA
ATOM     11  C   LIG A   1       2.098  -0.395  -1.897  0.00  0.00    +0.254 C 
ATOM     12  C   LIG A   1       0.637  -0.531  -2.353  0.00  0.00    +0.048 C 
ATOM     13  C   LIG A   1       0.406  -1.012  -3.774  0.00  0.00    +0.013 C 
BRANCH  11  14
ATOM     14  O   LIG A   1       2.926   0.101  -2.948  0.00  0.00    -0.354 OA
ATOM     15  C   LIG A   1       4.303   0.153  -2.580  0.00  0.00    +0.197 C 
ENDBRANCH  11  14
ENDBRANCH   1   9
BRANCH   3  16
ATOM     16  O   LIG A   1       0.100  -2.542   2.592  0.00  0.00    -0.491 OA
ATOM     17  C   LIG A   1      -0.492  -3.118   3.753  0.00  0.00    +0.277 C 
ENDBRANCH   3  16
BRANCH   5  18
ATOM     18  O   LIG A   1      -2.349   1.559   3.232  0.00  0.00    -0.491 OA
ATOM     19  C   LIG A   1      -3.214   2.435   2.522  0.00  0.00    +0.277 C 
ENDBRANCH   5  18
BRANCH   4  20
ATOM     20  O   LIG A   1      -1.746  -0.803   4.131  0.00  0.00    -0.501 OA
ATOM     21  H   LIG A   1      -2.221  -0.003   4.442  0.00  0.00    +0.292 HD
ENDBRANCH   4  20
TORSDOF 5
