@<TRIPOS>MOLECULE
NuBBE_1675
 47 51 0 0 0
SMALL
GASTEIGER

@<TRIPOS>ATOM
      1 C          -3.2292   -0.8614   -2.2051 C.3     1  LIG1        0.0122
      2 N          -2.2271   -1.4902   -1.3785 N.ar    1  LIG1       -0.3452
      3 C          -1.2074   -0.8715   -0.7325 C.ar    1  LIG1        0.0400
      4 C          -0.8029    0.5475   -0.5709 C.3     1  LIG1        0.0522
      5 H          -1.4460    1.2435   -1.1254 H       1  LIG1        0.0527
      6 N           0.7693    0.6585   -1.0895 N.3     1  LIG1       -0.2865
      7 C           1.0457    0.3078    0.2262 C.3     1  LIG1        0.0208
      8 H           2.1250    0.1733    0.4738 H       1  LIG1        0.0470
      9 C           0.7296   -1.2547    0.6364 C.3     1  LIG1       -0.0093
     10 C          -0.4490   -1.7986   -0.0828 C.ar    1  LIG1       -0.0159
     11 C          -1.0258   -3.0651   -0.3000 C.ar    1  LIG1        0.0034
     12 C          -2.1533   -2.8530   -1.1139 C.ar    1  LIG1        0.0493
     13 C          -2.9758   -3.9159   -1.5220 C.ar    1  LIG1       -0.0376
     14 C          -2.6429   -5.2071   -1.0997 C.ar    1  LIG1       -0.0598
     15 C          -1.5278   -5.4360   -0.2981 C.ar    1  LIG1       -0.0611
     16 C          -0.7117   -4.3750    0.1079 C.ar    1  LIG1       -0.0523
     17 C           0.2612    2.0927    0.6055 C.3     1  LIG1        0.0047
     18 H          -0.7881    2.3018    0.2971 H       1  LIG1        0.0344
     19 C           0.4692    1.7729    1.9458 C.3     1  LIG1       -0.0106
     20 C          -0.9288    0.7704    1.3215 C.3     1  LIG1       -0.0248
     21 C           2.0314    2.0844    1.0632 C.2     1  LIG1       -0.0562
     22 C           3.1574    2.4319    1.7144 C.2     1  LIG1       -0.0864
     23 C           4.4865    2.6845    1.0853 C.3     1  LIG1       -0.0465
     24 C           1.9071    1.7648   -0.7735 C.3     1  LIG1        0.0212
     25 C           0.4523    3.6950    0.2382 C.3     1  LIG1        0.0490
     26 O          -0.4351    4.4498    1.0802 O.3     1  LIG1       -0.3947
     27 H          -2.9081    0.1452   -2.4799 H       1  LIG1        0.0456
     28 H          -4.1616   -0.8172   -1.6370 H       1  LIG1        0.0456
     29 H          -3.3607   -1.4524   -3.1151 H       1  LIG1        0.0456
     30 H           0.6644   -1.3763    1.7223 H       1  LIG1        0.0329
     31 H           1.5944   -1.8520    0.3111 H       1  LIG1        0.0329
     32 H          -3.8456   -3.7509   -2.1489 H       1  LIG1        0.0638
     33 H          -3.2647   -6.0453   -1.4055 H       1  LIG1        0.0618
     34 H          -1.2863   -6.4481    0.0161 H       1  LIG1        0.0618
     35 H           0.1565   -4.5609    0.7323 H       1  LIG1        0.0624
     36 H           0.8933    0.9451    2.5309 H       1  LIG1        0.0350
     37 H          -1.8779    1.2973    1.5320 H       1  LIG1        0.0290
     38 H          -0.9998   -0.1673    1.8814 H       1  LIG1        0.0290
     39 H           3.1111    2.5549    2.7948 H       1  LIG1        0.0569
     40 H           4.4564    2.6331   -0.0058 H       1  LIG1        0.0272
     41 H           5.2142    1.9505    1.4445 H       1  LIG1        0.0272
     42 H           4.8414    3.6823    1.3618 H       1  LIG1        0.0272
     43 H           2.8785    1.3447   -1.0805 H       1  LIG1        0.0473
     44 H           1.7525    2.6667   -1.3720 H       1  LIG1        0.0473
     45 H           0.1247    3.8716   -0.7951 H       1  LIG1        0.0560
     46 H           1.4440    4.1423    0.3608 H       1  LIG1        0.0560
     47 H          -0.3106    5.3864    0.8481 H       1  LIG1        0.2094
@<TRIPOS>BOND
     1     1     2    1
     2     2     3   ar
     3     3     4    1
     4     4     5    1
     5     4     6    1
     6     6     7    1
     7     7     8    1
     8     7     9    1
     9     9    10    1
    10     3    10   ar
    11    10    11   ar
    12    11    12   ar
    13     2    12   ar
    14    12    13   ar
    15    13    14   ar
    16    14    15   ar
    17    15    16   ar
    18    11    16   ar
    19     7    17    1
    20    17    18    1
    21    17    19    1
    22    19    20    1
    23     4    20    1
    24    19    21    1
    25    21    22    2
    26    22    23    1
    27    21    24    1
    28     6    24    1
    29    17    25    1
    30    25    26    1
    31     1    27    1
    32     1    28    1
    33     1    29    1
    34     9    30    1
    35     9    31    1
    36    13    32    1
    37    14    33    1
    38    15    34    1
    39    16    35    1
    40    19    36    1
    41    20    37    1
    42    20    38    1
    43    22    39    1
    44    23    40    1
    45    23    41    1
    46    23    42    1
    47    24    43    1
    48    24    44    1
    49    25    45    1
    50    25    46    1
    51    26    47    1
