REMARK  Name = NuBBE_2141
REMARK  5 active torsions:
REMARK  status: ('A' for Active; 'I' for Inactive)
REMARK    1  A    between atoms: C_1  and  C_2
REMARK    2  A    between atoms: C_2  and  C_3
REMARK    3  A    between atoms: C_3  and  C_4
REMARK    4  A    between atoms: C_4  and  C_5
REMARK    5  A    between atoms: C_5  and  C_6
REMARK                            x       y       z     vdW  Elec       q    Type
REMARK                         _______ _______ _______ _____ _____    ______ ____
ROOT
ATOM      1  C   LIG A   1       1.126   0.796  -0.145  0.00  0.00    -0.073 C 
ATOM      2  C   LIG A   1       1.763   1.146   0.986  0.00  0.00    -0.028 C 
ATOM      3  C   LIG A   1       3.249   1.037   1.183  0.00  0.00    +0.027 C 
ATOM      4  C   LIG A   1       4.019   0.749  -0.106  0.00  0.00    +0.004 C 
ATOM      5  C   LIG A   1       3.280  -0.250  -0.988  0.00  0.00    +0.005 C 
ATOM      6  C   LIG A   1       1.877   0.253  -1.339  0.00  0.00    +0.030 C 
ENDROOT
BRANCH   1   7
ATOM      7  C   LIG A   1      -0.373   0.939  -0.290  0.00  0.00    +0.030 C 
BRANCH   7   8
ATOM      8  C   LIG A   1      -1.109  -0.340   0.126  0.00  0.00    +0.004 C 
BRANCH   8   9
ATOM      9  C   LIG A   1      -2.628  -0.191  -0.015  0.00  0.00    +0.000 C 
BRANCH   9  11
ATOM     10  C   LIG A   1      -4.871  -1.320   0.295  0.00  0.00    +0.004 C 
ATOM     11  C   LIG A   1      -3.361  -1.462   0.424  0.00  0.00    -0.003 C 
ENDBRANCH   9  11
ENDBRANCH   8   9
ENDBRANCH   7   8
ENDBRANCH   1   7
TORSDOF 4
