@<TRIPOS>MOLECULE
NuBBE_1448
 52 56 0 0 0
SMALL
GASTEIGER

@<TRIPOS>ATOM
      1 H          -1.9588    1.5757   -0.0722 H       1  LIG1        0.0469
      2 C          -1.3957    0.7146    0.3110 C.3     1  LIG1        0.0909
      3 C          -1.5540   -0.3903   -0.7163 C.2     1  LIG1        0.1813
      4 C          -0.4465   -0.6063   -1.6667 C.ar    1  LIG1        0.1015
      5 C          -0.4727   -1.6622   -2.6003 C.ar    1  LIG1        0.1344
      6 C           0.5838   -1.8565   -3.4899 C.ar    1  LIG1        0.0228
      7 C           1.6453   -0.9767   -3.4298 C.ar    1  LIG1        0.1317
      8 C           1.6702    0.0812   -2.5370 C.ar    1  LIG1        0.0406
      9 C           2.8948    0.8840   -2.7550 C.3     1  LIG1        0.0204
     10 C           3.6752   -0.0753   -3.6720 C.3     1  LIG1        0.1249
     11 O           2.7513   -1.0482   -4.2341 O.3     1  LIG1       -0.4837
     12 C           4.4172    0.6433   -4.7821 C.2     1  LIG1       -0.0395
     13 C           3.6795    0.8619   -6.0745 C.3     1  LIG1       -0.0406
     14 C           5.6812    1.0727   -4.6205 C.2     1  LIG1       -0.0962
     15 C           0.6360    0.2745   -1.6390 C.ar    1  LIG1        0.1419
     16 O           0.7389    1.3288   -0.7806 O.3     1  LIG1       -0.4832
     17 C           0.0713    1.1074    0.4680 C.3     1  LIG1        0.1479
     18 C           0.8861    0.1628    1.3811 C.3     1  LIG1        0.1273
     19 O           0.1492   -0.9150    1.9716 O.3     1  LIG1       -0.4879
     20 C          -1.0669   -0.5094    2.4473 C.ar    1  LIG1        0.1283
     21 C          -1.8899    0.3064    1.6739 C.ar    1  LIG1        0.0122
     22 C          -3.1325    0.6842    2.1841 C.ar    1  LIG1       -0.0088
     23 C          -3.5337    0.2737    3.4666 C.ar    1  LIG1        0.1620
     24 C          -2.7031   -0.5733    4.2248 C.ar    1  LIG1        0.1650
     25 O          -3.1573   -1.0370    5.4324 O.3     1  LIG1       -0.4913
     26 C          -2.1586   -1.2972    6.4145 C.3     1  LIG1        0.0790
     27 C          -1.4756   -0.9806    3.6894 C.ar    1  LIG1        0.0257
     28 O          -4.7671    0.7561    3.8253 O.3     1  LIG1       -0.4914
     29 C          -4.9834    0.9819    5.2131 C.3     1  LIG1        0.0790
     30 O          -1.5161   -2.5456   -2.6904 O.3     1  LIG1       -0.5058
     31 O          -2.5725   -1.0749   -0.8307 O.2     1  LIG1       -0.2910
     32 H           0.5712   -2.6719   -4.2047 H       1  LIG1        0.0691
     33 H           3.4450    1.0782   -1.8288 H       1  LIG1        0.0355
     34 H           2.6485    1.8338   -3.2410 H       1  LIG1        0.0355
     35 H           4.3912   -0.6532   -3.0692 H       1  LIG1        0.0784
     36 H           2.7418    1.3974   -5.8959 H       1  LIG1        0.0275
     37 H           3.4514   -0.0966   -6.5523 H       1  LIG1        0.0275
     38 H           4.2670    1.4502   -6.7874 H       1  LIG1        0.0275
     39 H           6.2206    0.9247   -3.6896 H       1  LIG1        0.0535
     40 H           6.2108    1.5901   -5.4156 H       1  LIG1        0.0535
     41 H           0.0918    2.0897    0.9615 H       1  LIG1        0.0778
     42 H           1.3338    0.7432    2.1988 H       1  LIG1        0.0734
     43 H           1.7288   -0.2832    0.8413 H       1  LIG1        0.0734
     44 H          -3.8031    1.3073    1.5961 H       1  LIG1        0.0659
     45 H          -2.6662   -1.4616    7.3698 H       1  LIG1        0.0660
     46 H          -1.4872   -0.4397    6.5348 H       1  LIG1        0.0660
     47 H          -1.5978   -2.2075    6.1817 H       1  LIG1        0.0660
     48 H          -0.8238   -1.6719    4.2114 H       1  LIG1        0.0692
     49 H          -4.1057    1.4162    5.7048 H       1  LIG1        0.0660
     50 H          -5.3080    0.0623    5.7083 H       1  LIG1        0.0660
     51 H          -5.7996    1.7051    5.3069 H       1  LIG1        0.0660
     52 H          -2.2061   -2.2734   -2.0429 H       1  LIG1        0.2922
@<TRIPOS>BOND
     1     1     2    1
     2     2     3    1
     3     3     4    1
     4     4     5   ar
     5     5     6   ar
     6     6     7   ar
     7     7     8   ar
     8     8     9    1
     9     9    10    1
    10    10    11    1
    11     7    11    1
    12    10    12    1
    13    12    13    1
    14    12    14    2
    15     8    15   ar
    16     4    15   ar
    17    15    16    1
    18    16    17    1
    19     2    17    1
    20    17    18    1
    21    18    19    1
    22    19    20    1
    23    20    21   ar
    24     2    21    1
    25    21    22   ar
    26    22    23   ar
    27    23    24   ar
    28    24    25    1
    29    25    26    1
    30    24    27   ar
    31    20    27   ar
    32    23    28    1
    33    28    29    1
    34     5    30    1
    35     3    31    2
    36     6    32    1
    37     9    33    1
    38     9    34    1
    39    10    35    1
    40    13    36    1
    41    13    37    1
    42    13    38    1
    43    14    39    1
    44    14    40    1
    45    17    41    1
    46    18    42    1
    47    18    43    1
    48    22    44    1
    49    26    45    1
    50    26    46    1
    51    26    47    1
    52    27    48    1
    53    29    49    1
    54    29    50    1
    55    29    51    1
    56    30    52    1
