@<TRIPOS>MOLECULE
NuBBE_1876
 63 65 0 0 0
SMALL
GASTEIGER

@<TRIPOS>ATOM
      1 O          -3.0028   -0.8440    0.0229 O.2     1  LIG1       -0.2830
      2 C          -1.8118   -0.6331    0.2054 C.ar    1  LIG1        0.2382
      3 C          -0.8446   -1.7459    0.2216 C.ar    1  LIG1        0.1138
      4 C          -1.2306   -3.0589    0.4886 C.ar    1  LIG1        0.1918
      5 C          -0.3058   -4.1042    0.3923 C.ar    1  LIG1        0.2159
      6 O          -0.8024   -5.4192    0.5201 O.3     1  LIG1       -0.4185
      7 C          -0.1251   -6.4604    1.1607 C.2     1  LIG1        0.3094
      8 C          -0.7676   -7.7494    0.7239 C.3     1  LIG1        0.0336
      9 O           0.7792   -6.3600    1.9727 O.2     1  LIG1       -0.2507
     10 C           1.0250   -3.8296    0.0315 C.ar    1  LIG1        0.1694
     11 C           1.4221   -2.4984   -0.1474 C.ar    1  LIG1        0.0270
     12 C           0.4915   -1.4662   -0.0134 C.ar    1  LIG1        0.1468
     13 O           0.9715   -0.1852   -0.0495 O.2     1  LIG1       -0.4505
     14 C           0.0940    0.8435    0.2652 C.ar    1  LIG1        0.1845
     15 C           0.7663    2.1263    0.3792 C.ar    1  LIG1        0.0673
     16 C           1.2795    2.4153    1.6525 C.ar    1  LIG1       -0.0437
     17 C           1.9376    3.6119    1.9186 C.ar    1  LIG1       -0.0154
     18 C           2.0916    4.5668    0.9114 C.ar    1  LIG1        0.1660
     19 C           1.5325    4.3108   -0.3620 C.ar    1  LIG1        0.2157
     20 O           1.7362    5.2797   -1.3747 O.3     1  LIG1       -0.4185
     21 C           0.6816    5.6189   -2.2207 C.2     1  LIG1        0.3094
     22 C           1.2422    6.2396   -3.4714 C.3     1  LIG1        0.0336
     23 O          -0.5076    5.3773   -2.0610 O.2     1  LIG1       -0.2507
     24 C           0.9211    3.0652   -0.6493 C.ar    1  LIG1        0.1881
     25 O           0.4741    2.8463   -1.9945 O.3     1  LIG1       -0.4214
     26 C          -0.2162    1.8062   -2.6355 C.2     1  LIG1        0.3093
     27 C          -0.7006    2.2588   -3.9665 C.3     1  LIG1        0.0336
     28 O          -0.3888    0.6534   -2.2670 O.2     1  LIG1       -0.2507
     29 O           2.7557    5.7509    1.1261 O.3     1  LIG1       -0.4913
     30 C           3.8093    5.6840    2.0952 C.3     1  LIG1        0.0790
     31 C          -1.2406    0.7281    0.4059 C.ar    1  LIG1        0.2108
     32 O          -2.0365    1.8579    0.5727 O.3     1  LIG1       -0.4883
     33 C          -3.2239    1.6652    1.3293 C.3     1  LIG1        0.0791
     34 O           1.8693   -4.8825   -0.1983 O.3     1  LIG1       -0.4912
     35 C           3.2172   -4.6872    0.2283 C.3     1  LIG1        0.0790
     36 O          -2.4514   -3.2056    1.1955 O.3     1  LIG1       -0.4213
     37 C          -3.5589   -3.9449    0.7969 C.2     1  LIG1        0.3093
     38 C          -4.6643   -3.6025    1.7531 C.3     1  LIG1        0.0336
     39 O          -3.6158   -4.7365   -0.1414 O.2     1  LIG1       -0.2507
     40 H          -0.9043   -7.7360   -0.3652 H       1  LIG1        0.0342
     41 H          -1.7343   -7.8746    1.2168 H       1  LIG1        0.0342
     42 H          -0.1198   -8.5957    0.9624 H       1  LIG1        0.0342
     43 H           2.4415   -2.2360   -0.4133 H       1  LIG1        0.0692
     44 H           1.1669    1.6868    2.4550 H       1  LIG1        0.0627
     45 H           2.3137    3.7615    2.9236 H       1  LIG1        0.0655
     46 H           2.2365    6.6538   -3.2859 H       1  LIG1        0.0342
     47 H           0.5922    7.0488   -3.8137 H       1  LIG1        0.0342
     48 H           1.3142    5.4662   -4.2417 H       1  LIG1        0.0342
     49 H          -0.7453    3.3468   -4.0515 H       1  LIG1        0.0342
     50 H          -1.7140    1.8683   -4.0915 H       1  LIG1        0.0342
     51 H          -0.0388    1.8380   -4.7252 H       1  LIG1        0.0342
     52 H           3.4198    5.6114    3.1175 H       1  LIG1        0.0660
     53 H           4.3914    6.6087    2.0386 H       1  LIG1        0.0660
     54 H           4.4878    4.8495    1.8818 H       1  LIG1        0.0660
     55 H          -3.6604    2.6503    1.5194 H       1  LIG1        0.0660
     56 H          -2.9969    1.1992    2.2928 H       1  LIG1        0.0660
     57 H          -3.9748    1.0932    0.7791 H       1  LIG1        0.0660
     58 H           3.7247   -5.6552    0.1776 H       1  LIG1        0.0660
     59 H           3.2658   -4.3342    1.2647 H       1  LIG1        0.0660
     60 H           3.7519   -4.0047   -0.4402 H       1  LIG1        0.0660
     61 H          -4.8619   -2.5242    1.7222 H       1  LIG1        0.0342
     62 H          -4.3727   -3.8882    2.7686 H       1  LIG1        0.0342
     63 H          -5.5857   -4.1255    1.4912 H       1  LIG1        0.0342
@<TRIPOS>BOND
     1     1     2    2
     2     2     3   ar
     3     3     4   ar
     4     4     5   ar
     5     5     6    1
     6     6     7    1
     7     7     8    1
     8     7     9    2
     9     5    10   ar
    10    10    11   ar
    11    11    12   ar
    12     3    12   ar
    13    12    13   ar
    14    13    14   ar
    15    14    15    1
    16    15    16   ar
    17    16    17   ar
    18    17    18   ar
    19    18    19   ar
    20    19    20    1
    21    20    21    1
    22    21    22    1
    23    21    23    2
    24    19    24   ar
    25    15    24   ar
    26    24    25    1
    27    25    26    1
    28    26    27    1
    29    26    28    2
    30    18    29    1
    31    29    30    1
    32    14    31   ar
    33     2    31   ar
    34    31    32    1
    35    32    33    1
    36    10    34    1
    37    34    35    1
    38     4    36    1
    39    36    37    1
    40    37    38    1
    41    37    39    2
    42     8    40    1
    43     8    41    1
    44     8    42    1
    45    11    43    1
    46    16    44    1
    47    17    45    1
    48    22    46    1
    49    22    47    1
    50    22    48    1
    51    27    49    1
    52    27    50    1
    53    27    51    1
    54    30    52    1
    55    30    53    1
    56    30    54    1
    57    33    55    1
    58    33    56    1
    59    33    57    1
    60    35    58    1
    61    35    59    1
    62    35    60    1
    63    38    61    1
    64    38    62    1
    65    38    63    1
