@<TRIPOS>MOLECULE
NuBBE_568
 51 53 0 0 0
SMALL
GASTEIGER

@<TRIPOS>ATOM
      1 O          -2.9371    1.4023    3.0938 O.2     1  LIG1       -0.2883
      2 C          -2.0018    0.6364    2.9236 C.2     1  LIG1        0.2023
      3 C          -0.7177    0.9262    2.1780 C.3     1  LIG1        0.1720
      4 C          -0.0371    2.1827    2.6944 C.3     1  LIG1       -0.0174
      5 C          -0.9462    0.9201    0.6530 C.3     1  LIG1        0.0321
      6 C           0.1606    0.2285   -0.1867 C.3     1  LIG1        0.1176
      7 H           1.1341    0.2412    0.3156 H       1  LIG1        0.0742
      8 O           0.2478    1.0102   -1.4234 O.3     1  LIG1       -0.4584
      9 C           1.0457    2.1133   -1.4343 C.2     1  LIG1        0.3415
     10 C           0.8865    2.9022   -2.7508 C.3     1  LIG1        0.1823
     11 C          -0.5517    3.4179   -2.8423 C.3     1  LIG1       -0.0233
     12 O           1.7592    4.0415   -2.7981 O.3     1  LIG1       -0.3758
     13 C           1.2075    2.0138   -3.9609 C.3     1  LIG1        0.0832
     14 O           2.5636    1.5675   -3.9402 O.3     1  LIG1       -0.3916
     15 O           1.7174    2.4920   -0.4819 O.2     1  LIG1       -0.2475
     16 C          -0.1989   -1.1979   -0.6803 C.3     1  LIG1        0.0645
     17 H          -1.0313   -1.0619   -1.3920 H       1  LIG1        0.0423
     18 C           0.8318   -1.9657   -1.4528 C.2     1  LIG1        0.0396
     19 C           2.0548   -1.6369   -1.8921 C.2     1  LIG1       -0.0882
     20 C          -0.6130   -2.3264    0.2659 C.3     1  LIG1        0.1144
     21 H          -1.6386   -2.1630    0.6107 H       1  LIG1        0.0741
     22 O          -0.6648   -3.4723   -0.6223 O.3     1  LIG1       -0.4573
     23 C           0.2973   -3.3382   -1.5778 C.2     1  LIG1        0.3354
     24 O           0.6312   -4.1921   -2.3882 O.2     1  LIG1       -0.2453
     25 C           0.3432   -2.7128    1.4252 C.3     1  LIG1       -0.0055
     26 C          -0.3017   -2.5848    2.8297 C.3     1  LIG1        0.0173
     27 H           0.4881   -2.7338    3.5776 H       1  LIG1        0.0377
     28 C          -1.3498   -3.6825    3.0429 C.3     1  LIG1       -0.0554
     29 C          -0.8214   -1.1816    2.9762 C.2     1  LIG1        0.1055
     30 O           0.0768   -0.2107    2.5453 O.2     1  LIG1       -0.4819
     31 C          -2.0385   -0.7666    3.3241 C.2     1  LIG1        0.0226
     32 H          -0.6324    3.0783    2.4896 H       1  LIG1        0.0272
     33 H           0.9530    2.3052    2.2436 H       1  LIG1        0.0272
     34 H           0.1175    2.1236    3.7784 H       1  LIG1        0.0272
     35 H          -1.0862    1.9603    0.3261 H       1  LIG1        0.0344
     36 H          -1.9079    0.4459    0.4132 H       1  LIG1        0.0344
     37 H          -0.7979    4.0449   -1.9776 H       1  LIG1        0.0263
     38 H          -1.2748    2.5959   -2.8766 H       1  LIG1        0.0263
     39 H          -0.6908    4.0383   -3.7345 H       1  LIG1        0.0263
     40 H           1.6316    4.5308   -1.9625 H       1  LIG1        0.2110
     41 H           1.0735    2.5755   -4.8929 H       1  LIG1        0.0591
     42 H           0.5615    1.1315   -4.0013 H       1  LIG1        0.0591
     43 H           3.1137    2.3750   -3.9310 H       1  LIG1        0.2095
     44 H           2.4793   -0.6504   -1.7510 H       1  LIG1        0.0540
     45 H           2.6752   -2.3702   -2.4019 H       1  LIG1        0.0540
     46 H           1.2467   -2.0897    1.3906 H       1  LIG1        0.0308
     47 H           0.6998   -3.7454    1.3079 H       1  LIG1        0.0308
     48 H          -0.9082   -4.6723    2.8828 H       1  LIG1        0.0237
     49 H          -2.1975   -3.5843    2.3565 H       1  LIG1        0.0237
     50 H          -1.7410   -3.6574    4.0655 H       1  LIG1        0.0237
     51 H          -2.9109   -1.3038    3.6432 H       1  LIG1        0.0687
@<TRIPOS>BOND
     1     1     2    2
     2     2     3    1
     3     3     4    1
     4     3     5    1
     5     5     6    1
     6     6     7    1
     7     6     8    1
     8     8     9    1
     9     9    10    1
    10    10    11    1
    11    10    12    1
    12    10    13    1
    13    13    14    1
    14     9    15    2
    15     6    16    1
    16    16    17    1
    17    16    18    1
    18    18    19    2
    19    16    20    1
    20    20    21    1
    21    20    22    1
    22    22    23    1
    23    18    23    1
    24    23    24    2
    25    20    25    1
    26    25    26    1
    27    26    27    1
    28    26    28    1
    29    26    29    1
    30    29    30    1
    31     3    30    1
    32    29    31    2
    33     2    31    1
    34     4    32    1
    35     4    33    1
    36     4    34    1
    37     5    35    1
    38     5    36    1
    39    11    37    1
    40    11    38    1
    41    11    39    1
    42    12    40    1
    43    13    41    1
    44    13    42    1
    45    14    43    1
    46    19    44    1
    47    19    45    1
    48    25    46    1
    49    25    47    1
    50    28    48    1
    51    28    49    1
    52    28    50    1
    53    31    51    1
