@<TRIPOS>MOLECULE
NuBBE_1097
 77 81 0 0 0
SMALL
GASTEIGER

@<TRIPOS>ATOM
      1 C          -1.2617    3.0374   -0.8036 C.3     1  LIG1       -0.0520
      2 C          -1.1584    1.7831    0.1040 C.3     1  LIG1        0.0398
      3 C          -0.9535    0.4423   -0.7713 C.3     1  LIG1        0.0177
      4 H          -1.8874    0.2855   -1.3309 H       1  LIG1        0.0353
      5 C          -0.7154   -0.8398    0.1235 C.3     1  LIG1        0.0162
      6 C          -2.0195   -1.1804    0.9175 C.3     1  LIG1       -0.0555
      7 C           0.4417   -0.5910    1.0958 C.3     1  LIG1        0.1094
      8 O           0.6577   -1.7106    1.9756 O.3     1  LIG1       -0.4608
      9 C           0.6654   -2.9835    1.5278 C.2     1  LIG1        0.3077
     10 C          -0.0729   -3.3014    0.2495 C.3     1  LIG1        0.0493
     11 C          -0.3598   -2.1279   -0.6987 C.3     1  LIG1       -0.0096
     12 H          -1.2967   -2.3933   -1.2159 H       1  LIG1        0.0322
     13 C           0.6850   -2.0052   -1.8564 C.3     1  LIG1        0.0339
     14 C           2.1906   -1.9786   -1.4413 C.2     1  LIG1        0.1464
     15 C           3.0113   -3.2674   -1.3627 C.3     1  LIG1        0.0622
     16 H           2.3962   -4.1032   -1.0237 H       1  LIG1        0.0416
     17 C           3.6635   -3.5818   -2.6796 C.3     1  LIG1        0.1025
     18 O           4.8890   -4.2640   -2.3717 O.3     1  LIG1       -0.4639
     19 C           5.2505   -4.0173   -1.0698 C.2     1  LIG1        0.3079
     20 C           4.2119   -3.1651   -0.4320 C.3     1  LIG1        0.0576
     21 O           6.2631   -4.4270   -0.5598 O.2     1  LIG1       -0.2508
     22 O           2.7384   -0.9014   -1.1897 O.2     1  LIG1       -0.2964
     23 C           0.4624   -3.1548   -2.8778 C.3     1  LIG1       -0.0524
     24 C           0.3815   -0.7235   -2.6476 C.3     1  LIG1       -0.0030
     25 C           0.1700    0.5751   -1.8530 C.3     1  LIG1        0.1083
     26 H           1.0951    0.9166   -1.3805 H       1  LIG1        0.0737
     27 O          -0.2321    1.5050   -2.8896 O.3     1  LIG1       -0.4612
     28 C           0.7870    2.0441   -3.6202 C.2     1  LIG1        0.3042
     29 C           0.3480    2.2796   -5.0340 C.3     1  LIG1        0.0332
     30 O           1.9392    2.1763   -3.2345 O.2     1  LIG1       -0.2512
     31 O           1.1734   -3.8847    2.1905 O.2     1  LIG1       -0.2508
     32 H           1.3799   -0.4359    0.5683 H       1  LIG1        0.0739
     33 C           0.2461    0.6567    1.9564 C.3     1  LIG1       -0.0112
     34 C           0.0025    1.9429    1.1314 C.3     1  LIG1       -0.0224
     35 H           0.9233    2.1293    0.5614 H       1  LIG1        0.0314
     36 C          -0.2159    3.1832    2.0350 C.3     1  LIG1       -0.0363
     37 H          -0.3615    4.0687    1.4061 H       1  LIG1        0.0302
     38 C          -1.4595    2.9994    2.8930 C.3     1  LIG1       -0.0057
     39 C          -2.7184    2.6049    2.1188 C.3     1  LIG1        0.1613
     40 H          -3.2734    3.5062    1.8265 H       1  LIG1        0.0815
     41 O          -3.5032    1.7779    3.0052 O.3     1  LIG1       -0.4538
     42 C          -4.2178    2.4372    3.9540 C.2     1  LIG1        0.3046
     43 C          -4.6495    1.4852    5.0292 C.3     1  LIG1        0.0333
     44 O          -4.4347    3.6410    3.9670 O.2     1  LIG1       -0.2511
     45 C          -2.5313    1.8009    0.8187 C.2     1  LIG1        0.1800
     46 O          -3.5135    1.2768    0.2769 O.2     1  LIG1       -0.2929
     47 C           0.9951    3.5060    2.9163 C.3     1  LIG1       -0.0620
     48 H          -0.2837    3.3520   -1.1790 H       1  LIG1        0.0239
     49 H          -1.6942    3.8994   -0.2811 H       1  LIG1        0.0239
     50 H          -1.9314    2.8532   -1.6519 H       1  LIG1        0.0239
     51 H          -2.2684   -0.4402    1.6760 H       1  LIG1        0.0236
     52 H          -1.9578   -2.1154    1.4793 H       1  LIG1        0.0236
     53 H          -2.8712   -1.2794    0.2351 H       1  LIG1        0.0236
     54 H          -1.0249   -3.7589    0.5479 H       1  LIG1        0.0381
     55 H           0.4650   -4.1020   -0.2599 H       1  LIG1        0.0381
     56 H           3.8958   -2.7064   -3.2876 H       1  LIG1        0.0704
     57 H           3.0492   -4.2642   -3.2864 H       1  LIG1        0.0704
     58 H           4.6096   -2.1461   -0.3332 H       1  LIG1        0.0385
     59 H           3.9585   -3.5518    0.5685 H       1  LIG1        0.0385
     60 H          -0.5662   -3.1578   -3.2584 H       1  LIG1        0.0239
     61 H           0.6455   -4.1449   -2.4535 H       1  LIG1        0.0239
     62 H           1.1192   -3.0378   -3.7477 H       1  LIG1        0.0239
     63 H          -0.5228   -0.8771   -3.2564 H       1  LIG1        0.0310
     64 H           1.1796   -0.5629   -3.3874 H       1  LIG1        0.0310
     65 H          -0.7423    2.2636   -5.1143 H       1  LIG1        0.0342
     66 H           0.7546    1.4758   -5.6570 H       1  LIG1        0.0342
     67 H           0.7119    3.2482   -5.3816 H       1  LIG1        0.0342
     68 H           1.1450    0.7773    2.5738 H       1  LIG1        0.0304
     69 H          -0.5580    0.4749    2.6762 H       1  LIG1        0.0304
     70 H          -1.6654    3.9311    3.4379 H       1  LIG1        0.0308
     71 H          -1.2621    2.2679    3.6883 H       1  LIG1        0.0308
     72 H          -3.8491    0.7647    5.2288 H       1  LIG1        0.0342
     73 H          -5.5641    0.9663    4.7376 H       1  LIG1        0.0342
     74 H          -4.8166    2.0450    5.9547 H       1  LIG1        0.0342
     75 H           1.1852    2.7293    3.6629 H       1  LIG1        0.0233
     76 H           0.8315    4.4445    3.4583 H       1  LIG1        0.0233
     77 H           1.8959    3.6281    2.3064 H       1  LIG1        0.0233
@<TRIPOS>BOND
     1     2     3    1
     2     3     5    1
     3     5     7    1
     4     7     8    1
     5     8     9    1
     6     9    10    1
     7    10    11    1
     8     5    11    1
     9    11    13    1
    10    14    15    1
    11    15    16    1
    12    15    17    1
    13    17    18    1
    14    18    19    1
    15    19    20    1
    16    15    20    1
    17    19    21    2
    18    14    22    2
    19    13    24    1
    20    24    25    1
    21     3    25    1
    22    27    28    1
    23    28    29    1
    24    28    30    2
    25     7    33    1
    26    33    34    1
    27     2    34    1
    28    34    36    1
    29    36    38    1
    30    38    39    1
    31    41    42    1
    32    42    43    1
    33    42    44    2
    34    39    45    1
    35     2    45    1
    36     1     2    1
    37     3     4    1
    38     5     6    1
    39     7    32    1
    40     9    31    2
    41    11    12    1
    42    25    26    1
    43    25    27    1
    44    34    35    1
    45    45    46    2
    46    13    23    1
    47    13    14    1
    48    36    47    1
    49    36    37    1
    50    39    41    1
    51    39    40    1
    52     1    48    1
    53     1    49    1
    54     1    50    1
    55     6    51    1
    56     6    52    1
    57     6    53    1
    58    10    54    1
    59    10    55    1
    60    17    56    1
    61    17    57    1
    62    20    58    1
    63    20    59    1
    64    23    60    1
    65    23    61    1
    66    23    62    1
    67    24    63    1
    68    24    64    1
    69    29    65    1
    70    29    66    1
    71    29    67    1
    72    33    68    1
    73    33    69    1
    74    38    70    1
    75    38    71    1
    76    43    72    1
    77    43    73    1
    78    43    74    1
    79    47    75    1
    80    47    76    1
    81    47    77    1
