@<TRIPOS>MOLECULE
NuBBE_1241
 32 34 0 0 0
SMALL
GASTEIGER

@<TRIPOS>ATOM
      1 O          -6.3254    0.8148    0.2291 O.2     1  LIG1       -0.2452
      2 C          -5.1264    1.0448    0.1213 C.ar    1  LIG1        0.3372
      3 O          -4.1725    0.0370    0.1201 O.2     1  LIG1       -0.4220
      4 C          -2.7986    0.3284   -0.0103 C.ar    1  LIG1        0.1425
      5 C          -1.9179   -0.7518    0.0003 C.ar    1  LIG1        0.0234
      6 C          -0.5776   -0.4639   -0.1366 C.ar    1  LIG1        0.1279
      7 C          -0.1135    0.8375   -0.2661 C.ar    1  LIG1       -0.0013
      8 C           1.3677    0.8282   -0.3220 C.3     1  LIG1        0.0157
      9 C           1.5941   -0.6754   -0.5743 C.3     1  LIG1        0.1322
     10 H           1.6648   -0.8197   -1.6638 H       1  LIG1        0.0765
     11 C           2.8762   -1.2539    0.0729 C.3     1  LIG1        0.0974
     12 C           3.0936   -2.7053   -0.3791 C.3     1  LIG1       -0.0328
     13 O           4.0091   -0.4789   -0.3438 O.3     1  LIG1       -0.3855
     14 C           2.8375   -1.2193    1.6049 C.3     1  LIG1       -0.0328
     15 O           0.4155   -1.4068   -0.1391 O.3     1  LIG1       -0.4853
     16 C          -0.9867    1.9151   -0.2649 C.ar    1  LIG1       -0.0443
     17 C          -2.3558    1.6544   -0.1416 C.ar    1  LIG1        0.0181
     18 C          -3.3401    2.7247   -0.1376 C.ar    1  LIG1       -0.0443
     19 C          -4.6373    2.4280   -0.0142 C.ar    1  LIG1        0.0236
     20 H          -2.2692   -1.7707    0.1074 H       1  LIG1        0.0691
     21 H           1.7756    1.1777    0.6294 H       1  LIG1        0.0351
     22 H           1.7695    1.4352   -1.1384 H       1  LIG1        0.0351
     23 H           3.1518   -2.7696   -1.4717 H       1  LIG1        0.0258
     24 H           2.2892   -3.3645   -0.0373 H       1  LIG1        0.0258
     25 H           4.0453   -3.0933    0.0021 H       1  LIG1        0.0258
     26 H           4.2110   -0.7066   -1.2683 H       1  LIG1        0.2103
     27 H           1.9824   -1.7728    2.0055 H       1  LIG1        0.0258
     28 H           2.8007   -0.1946    1.9873 H       1  LIG1        0.0258
     29 H           3.7522   -1.6572    2.0223 H       1  LIG1        0.0258
     30 H          -0.6089    2.9292   -0.3507 H       1  LIG1        0.0628
     31 H          -3.0065    3.7519   -0.2354 H       1  LIG1        0.0627
     32 H          -5.4000    3.1973   -0.0075 H       1  LIG1        0.0689
@<TRIPOS>BOND
     1     1     2    2
     2     2     3   ar
     3     3     4   ar
     4     4     5   ar
     5     5     6   ar
     6     6     7   ar
     7     7     8    1
     8     8     9    1
     9     9    10    1
    10     9    11    1
    11    11    12    1
    12    11    13    1
    13    11    14    1
    14     9    15    1
    15     6    15    1
    16     7    16   ar
    17    16    17   ar
    18     4    17   ar
    19    17    18   ar
    20    18    19   ar
    21     2    19   ar
    22     5    20    1
    23     8    21    1
    24     8    22    1
    25    12    23    1
    26    12    24    1
    27    12    25    1
    28    13    26    1
    29    14    27    1
    30    14    28    1
    31    14    29    1
    32    16    30    1
    33    18    31    1
    34    19    32    1
