@<TRIPOS>MOLECULE
NuBBE_1376
 21 20 0 0 0
SMALL
GASTEIGER

@<TRIPOS>ATOM
      1 C          -2.8853   -1.1314   -0.6435 C.3     1  LIG1       -0.0629
      2 C          -1.6375   -0.9892    0.2184 C.3     1  LIG1       -0.0297
      3 C          -0.5641   -0.1223   -0.4498 C.3     1  LIG1        0.0550
      4 O          -1.0862    1.1836   -0.6869 O.3     1  LIG1       -0.3918
      5 C           0.6936   -0.0235    0.4235 C.3     1  LIG1       -0.0271
      6 C           1.7909    0.8168   -0.2363 C.3     1  LIG1       -0.0536
      7 C           3.0321    0.8998    0.6384 C.3     1  LIG1       -0.0652
      8 H          -3.6111   -1.7863   -0.1512 H       1  LIG1        0.0231
      9 H          -2.6412   -1.5664   -1.6178 H       1  LIG1        0.0231
     10 H          -3.3672   -0.1627   -0.8095 H       1  LIG1        0.0231
     11 H          -1.2327   -1.9859    0.4286 H       1  LIG1        0.0287
     12 H          -1.9337   -0.5443    1.1762 H       1  LIG1        0.0287
     13 H          -0.3010   -0.5509   -1.4232 H       1  LIG1        0.0593
     14 H          -1.3099    1.5752    0.1740 H       1  LIG1        0.2098
     15 H           1.0777   -1.0302    0.6295 H       1  LIG1        0.0290
     16 H           0.4361    0.4332    1.3875 H       1  LIG1        0.0290
     17 H           1.4262    1.8322   -0.4282 H       1  LIG1        0.0263
     18 H           2.0612    0.3802   -1.2047 H       1  LIG1        0.0263
     19 H           2.7984    1.3470    1.6099 H       1  LIG1        0.0230
     20 H           3.7948    1.5186    0.1551 H       1  LIG1        0.0230
     21 H           3.4589   -0.0934    0.8101 H       1  LIG1        0.0230
@<TRIPOS>BOND
     1     1     2    1
     2     2     3    1
     3     3     4    1
     4     3     5    1
     5     5     6    1
     6     6     7    1
     7     1     8    1
     8     1     9    1
     9     1    10    1
    10     2    11    1
    11     2    12    1
    12     3    13    1
    13     4    14    1
    14     5    15    1
    15     5    16    1
    16     6    17    1
    17     6    18    1
    18     7    19    1
    19     7    20    1
    20     7    21    1
