REMARK  Name = NuBBE_2317
REMARK  5 active torsions:
REMARK  status: ('A' for Active; 'I' for Inactive)
REMARK    1  A    between atoms: C_3  and  O_26
REMARK    2  A    between atoms: C_4  and  C_23
REMARK    3  A    between atoms: C_8  and  C_22
REMARK    4  A    between atoms: C_10  and  C_13
REMARK    5  A    between atoms: C_23  and  C_24
REMARK                            x       y       z     vdW  Elec       q    Type
REMARK                         _______ _______ _______ _____ _____    ______ ____
ROOT
ATOM      1  C   LIG A   1       1.526  -2.737   1.390  0.00  0.00    +0.215 C 
ATOM      2  O   LIG A   1       1.709  -3.847   0.893  0.00  0.00    -0.287 OA
ATOM      3  C   LIG A   1       0.771  -1.601   0.639  0.00  0.00    +0.239 C 
ATOM      4  C   LIG A   1       0.542  -0.302   1.456  0.00  0.00    +0.044 C 
ATOM      5  C   LIG A   1       0.495  -0.623   2.971  0.00  0.00    +0.040 C 
ATOM      6  C   LIG A   1       1.669  -1.427   3.431  0.00  0.00    -0.022 C 
ATOM      7  C   LIG A   1       2.147  -2.438   2.703  0.00  0.00    +0.048 C 
ATOM      8  C   LIG A   1      -0.824   0.216   0.919  0.00  0.00    +0.032 C 
ATOM      9  C   LIG A   1      -1.317  -0.858  -0.073  0.00  0.00    +0.156 C 
ATOM     10  O   LIG A   1      -0.510  -2.019   0.179  0.00  0.00    -0.334 OA
ATOM     11  C   LIG A   1      -1.921   0.503   1.953  0.00  0.00    +0.011 C 
ENDROOT
BRANCH   9  12
ATOM     12  C   LIG A   1      -1.308  -0.448  -1.546  0.00  0.00    -0.015 A 
ATOM     13  C   LIG A   1      -1.110  -1.415  -2.563  0.00  0.00    +0.010 A 
ATOM     14  C   LIG A   1      -1.102  -1.062  -3.921  0.00  0.00    +0.050 A 
ATOM     15  C   LIG A   1      -1.304   0.261  -4.245  0.00  0.00    +0.166 A 
ATOM     16  C   LIG A   1      -1.536   1.204  -3.277  0.00  0.00    +0.167 A 
ATOM     17  C   LIG A   1      -1.568   0.880  -1.937  0.00  0.00    +0.055 A 
ATOM     18  O   LIG A   1      -1.726   2.449  -3.791  0.00  0.00    -0.453 OA
ATOM     19  C   LIG A   1      -1.578   2.180  -5.200  0.00  0.00    +0.466 C 
ATOM     20  O   LIG A   1      -1.318   0.792  -5.496  0.00  0.00    -0.453 OA
ENDBRANCH   9  12
BRANCH   3  21
ATOM     21  O   LIG A   1       1.555  -1.360  -0.530  0.00  0.00    -0.358 OA
ATOM     22  H   LIG A   1       1.679  -2.246  -0.921  0.00  0.00    +0.213 HD
ENDBRANCH   3  21
BRANCH   4  23
ATOM     23  C   LIG A   1       1.675   0.737   1.153  0.00  0.00    +0.040 C 
BRANCH  23  24
ATOM     24  C   LIG A   1       1.565   2.050   1.885  0.00  0.00    -0.034 C 
ATOM     25  C   LIG A   1       2.491   2.510   2.736  0.00  0.00    +0.004 C 
ENDBRANCH  23  24
ENDBRANCH   4  23
TORSDOF 4
