REMARK  Name = NuBBE_1377
REMARK  7 active torsions:
REMARK  status: ('A' for Active; 'I' for Inactive)
REMARK    1  A    between atoms: C_1  and  C_2
REMARK    2  A    between atoms: C_2  and  O_3
REMARK    3  A    between atoms: C_2  and  O_6
REMARK    4  A    between atoms: O_3  and  C_4
REMARK    5  A    between atoms: C_4  and  C_5
REMARK    6  A    between atoms: O_6  and  C_7
REMARK    7  A    between atoms: C_7  and  C_8
REMARK                            x       y       z     vdW  Elec       q    Type
REMARK                         _______ _______ _______ _____ _____    ______ ____
ROOT
ATOM      1  C   LIG A   1       0.910   1.548   1.634  0.00  0.00    +0.070 C 
ATOM      2  C   LIG A   1       0.931   0.275   0.790  0.00  0.00    +0.247 C 
ENDROOT
BRANCH   2   3
ATOM      3  O   LIG A   1      -0.177  -0.556   1.143  0.00  0.00    -0.352 OA
BRANCH   3   4
ATOM      4  C   LIG A   1      -0.115  -1.825   0.487  0.00  0.00    +0.159 C 
ATOM      5  C   LIG A   1      -1.310  -2.657   0.905  0.00  0.00    +0.034 C 
ENDBRANCH   3   4
ENDBRANCH   2   3
BRANCH   2   6
ATOM      6  O   LIG A   1       0.976   0.583  -0.606  0.00  0.00    -0.352 OA
BRANCH   6   7
ATOM      7  C   LIG A   1      -0.205   1.208  -1.104  0.00  0.00    +0.159 C 
ATOM      8  C   LIG A   1      -0.025   1.444  -2.589  0.00  0.00    +0.034 C 
ENDBRANCH   6   7
ENDBRANCH   2   6
TORSDOF 4
