@<TRIPOS>MOLECULE
NuBBE_1624
 101 106 0 0 0
SMALL
GASTEIGER

@<TRIPOS>ATOM
      1 C          -3.3788   -1.9904   -0.5653 C.2     1  LIG1        0.3159
      2 O          -4.3319   -2.7199   -0.7205 O.2     1  LIG1       -0.2501
      3 O          -3.1568   -0.8424   -1.2494 O.3     1  LIG1       -0.4318
      4 C          -4.1142   -0.5069   -2.2602 C.3     1  LIG1        0.2337
      5 H          -5.1184   -0.8118   -1.9473 H       1  LIG1        0.1085
      6 O          -3.7345   -1.1934   -3.4562 O.3     1  LIG1       -0.3312
      7 C          -4.5624   -0.8610   -4.5704 C.3     1  LIG1        0.1140
      8 H          -5.6135   -1.0638   -4.3230 H       1  LIG1        0.0647
      9 C          -4.1830   -1.7654   -5.7481 C.3     1  LIG1        0.0731
     10 O          -4.9717   -1.4654   -6.8977 O.3     1  LIG1       -0.3924
     11 C          -4.3884    0.6284   -4.9089 C.3     1  LIG1        0.1120
     12 H          -3.3379    0.8545   -5.1299 H       1  LIG1        0.0647
     13 C          -4.8325    1.4521   -3.6986 C.3     1  LIG1        0.1152
     14 H          -5.9155    1.3578   -3.5449 H       1  LIG1        0.0648
     15 C          -4.0709    1.0289   -2.4419 C.3     1  LIG1        0.1455
     16 H          -3.0327    1.3778   -2.5079 H       1  LIG1        0.0683
     17 O          -4.6422    1.6949   -1.3027 O.3     1  LIG1       -0.3829
     18 O          -4.5979    2.8489   -3.9450 O.3     1  LIG1       -0.3864
     19 O          -5.1605    1.0530   -6.0346 O.3     1  LIG1       -0.3865
     20 C          -2.2274   -2.2609    0.4272 C.3     1  LIG1        0.0716
     21 C          -0.8697   -2.2756   -0.3463 C.3     1  LIG1       -0.0124
     22 H          -0.9492   -1.7713   -1.3141 H       1  LIG1        0.0321
     23 C           0.2034   -1.5313    0.4961 C.3     1  LIG1       -0.0306
     24 H           0.1994   -2.0384    1.4696 H       1  LIG1        0.0309
     25 C          -0.1656   -0.0057    0.7279 C.3     1  LIG1       -0.0232
     26 C          -1.6676    0.1151    1.1634 C.3     1  LIG1       -0.0458
     27 C          -2.3042   -1.2195    1.5612 C.3     1  LIG1       -0.0364
     28 C          -0.0658    0.7895   -0.6156 C.3     1  LIG1       -0.0588
     29 C           0.8492    0.6106    1.8347 C.3     1  LIG1       -0.0231
     30 C           0.5204   -0.0292    3.2147 C.3     1  LIG1       -0.0588
     31 C           2.3493    0.3474    1.3860 C.3     1  LIG1       -0.0294
     32 H           2.4634    0.8726    0.4271 H       1  LIG1        0.0312
     33 C           2.6193   -1.1286    1.0263 C.3     1  LIG1       -0.0489
     34 C           1.6379   -1.6724   -0.0132 C.3     1  LIG1       -0.0491
     35 C           3.4693    1.0143    2.3008 C.3     1  LIG1       -0.0252
     36 C           3.5249    0.3746    3.7097 C.3     1  LIG1       -0.0590
     37 C           3.1690    2.5612    2.3100 C.3     1  LIG1       -0.0278
     38 H           3.1383    2.8505    1.2457 H       1  LIG1        0.0312
     39 C           1.7443    2.8498    2.8324 C.3     1  LIG1       -0.0486
     40 C           0.6708    2.1521    1.9845 C.3     1  LIG1       -0.0466
     41 C           4.2966    3.4832    2.9088 C.3     1  LIG1       -0.0056
     42 C           3.9877    4.9674    2.5655 C.3     1  LIG1       -0.0572
     43 C           4.4001    3.4108    4.4448 C.3     1  LIG1       -0.0572
     44 C           5.6521    3.1238    2.2277 C.3     1  LIG1        0.0606
     45 H           5.6244    3.4351    1.1748 H       1  LIG1        0.0599
     46 C           5.9779    1.6374    2.2576 C.3     1  LIG1       -0.0258
     47 C           4.8650    0.7941    1.6465 C.3     1  LIG1       -0.0447
     48 O           6.7487    3.8047    2.8358 O.3     1  LIG1       -0.3912
     49 C          -0.5772   -3.7790   -0.6264 C.3     1  LIG1        0.0239
     50 H           0.3047   -4.1149   -0.0683 H       1  LIG1        0.0381
     51 C          -1.7739   -4.5622   -0.0888 C.3     1  LIG1       -0.0421
     52 C          -2.3274   -3.6833    1.0127 C.3     1  LIG1       -0.0363
     53 C          -0.3005   -4.0599   -2.1063 C.2     1  LIG1        0.1618
     54 O           0.8464   -3.9829   -2.5591 O.2     1  LIG1       -0.2947
     55 C          -1.4696   -4.4163   -3.0301 C.3     1  LIG1        0.1025
     56 O          -1.0714   -4.5998   -4.3794 O.3     1  LIG1       -0.3875
     57 H          -4.3161   -2.8216   -5.4872 H       1  LIG1        0.0584
     58 H          -3.1277   -1.6348   -6.0098 H       1  LIG1        0.0584
     59 H          -5.8724   -1.7983   -6.7239 H       1  LIG1        0.2095
     60 H          -4.6613    2.6436   -1.5414 H       1  LIG1        0.2102
     61 H          -4.8699    2.9909   -4.8763 H       1  LIG1        0.2100
     62 H          -4.9423    0.4374   -6.7698 H       1  LIG1        0.2100
     63 H          -2.2615    0.5467    0.3519 H       1  LIG1        0.0271
     64 H          -1.8050    0.8395    1.9710 H       1  LIG1        0.0271
     65 H          -3.3469   -1.0510    1.8582 H       1  LIG1        0.0276
     66 H          -1.8031   -1.5965    2.4618 H       1  LIG1        0.0276
     67 H          -0.6304    0.3087   -1.4194 H       1  LIG1        0.0235
     68 H           0.9560    0.9067   -0.9801 H       1  LIG1        0.0235
     69 H          -0.4923    1.7943   -0.5188 H       1  LIG1        0.0235
     70 H           0.8042   -1.0822    3.2706 H       1  LIG1        0.0235
     71 H          -0.5428    0.0356    3.4581 H       1  LIG1        0.0235
     72 H           0.9964    0.4815    4.0485 H       1  LIG1        0.0235
     73 H           2.5827   -1.7610    1.9190 H       1  LIG1        0.0268
     74 H           3.6212   -1.2467    0.6030 H       1  LIG1        0.0268
     75 H           1.8978   -2.7198   -0.1900 H       1  LIG1        0.0268
     76 H           1.7724   -1.1636   -0.9736 H       1  LIG1        0.0268
     77 H           2.9257    0.9111    4.4465 H       1  LIG1        0.0235
     78 H           4.5352    0.3446    4.1248 H       1  LIG1        0.0235
     79 H           3.1960   -0.6678    3.7014 H       1  LIG1        0.0235
     80 H           1.5300    3.9221    2.7833 H       1  LIG1        0.0268
     81 H           1.6371    2.5757    3.8848 H       1  LIG1        0.0268
     82 H           0.7012    2.6343    1.0019 H       1  LIG1        0.0271
     83 H          -0.3117    2.3892    2.4085 H       1  LIG1        0.0271
     84 H           3.0913    5.3301    3.0773 H       1  LIG1        0.0236
     85 H           3.8395    5.1010    1.4879 H       1  LIG1        0.0236
     86 H           4.8035    5.6319    2.8696 H       1  LIG1        0.0236
     87 H           5.0997    4.1627    4.8288 H       1  LIG1        0.0236
     88 H           4.7608    2.4448    4.7996 H       1  LIG1        0.0236
     89 H           3.4351    3.6083    4.9226 H       1  LIG1        0.0236
     90 H           6.2105    1.3185    3.2795 H       1  LIG1        0.0290
     91 H           6.9070    1.4606    1.7001 H       1  LIG1        0.0290
     92 H           5.1634   -0.2581    1.7293 H       1  LIG1        0.0271
     93 H           4.8097    1.0210    0.5738 H       1  LIG1        0.0271
     94 H           6.7088    4.7362    2.5633 H       1  LIG1        0.2098
     95 H          -1.4779   -5.5552    0.2645 H       1  LIG1        0.0272
     96 H          -2.5616   -4.7129   -0.8296 H       1  LIG1        0.0272
     97 H          -1.7000   -3.7989    1.9066 H       1  LIG1        0.0276
     98 H          -3.3454   -3.9833    1.2792 H       1  LIG1        0.0276
     99 H          -2.2120   -3.6152   -2.9996 H       1  LIG1        0.0636
    100 H          -1.9148   -5.3580   -2.7003 H       1  LIG1        0.0636
    101 H          -0.1388   -4.8910   -4.3467 H       1  LIG1        0.2100
@<TRIPOS>BOND
     1     1     2    2
     2     1     3    1
     3     4     6    1
     4     6     7    1
     5     7     8    1
     6     7     9    1
     7     9    10    1
     8     7    11    1
     9    11    13    1
    10    13    14    1
    11    13    15    1
    12     4    15    1
    13    13    18    1
    14     1    20    1
    15    20    21    1
    16    21    22    1
    17    21    23    1
    18    23    24    1
    19    23    25    1
    20    25    26    1
    21    26    27    1
    22    20    27    1
    23    25    28    1
    24    25    29    1
    25    29    30    1
    26    29    31    1
    27    31    32    1
    28    31    33    1
    29    33    34    1
    30    23    34    1
    31    31    35    1
    32    35    36    1
    33    35    37    1
    34    37    38    1
    35    37    39    1
    36    39    40    1
    37    29    40    1
    38    37    41    1
    39    41    42    1
    40    41    43    1
    41    41    44    1
    42    44    45    1
    43    44    46    1
    44    46    47    1
    45    35    47    1
    46    44    48    1
    47    21    49    1
    48    49    50    1
    49    49    51    1
    50    51    52    1
    51    20    52    1
    52    49    53    1
    53    53    54    2
    54    53    55    1
    55    55    56    1
    56     4     5    1
    57     4     3    1
    58    11    19    1
    59    11    12    1
    60    15    17    1
    61    15    16    1
    62     9    57    1
    63     9    58    1
    64    10    59    1
    65    17    60    1
    66    18    61    1
    67    19    62    1
    68    26    63    1
    69    26    64    1
    70    27    65    1
    71    27    66    1
    72    28    67    1
    73    28    68    1
    74    28    69    1
    75    30    70    1
    76    30    71    1
    77    30    72    1
    78    33    73    1
    79    33    74    1
    80    34    75    1
    81    34    76    1
    82    36    77    1
    83    36    78    1
    84    36    79    1
    85    39    80    1
    86    39    81    1
    87    40    82    1
    88    40    83    1
    89    42    84    1
    90    42    85    1
    91    42    86    1
    92    43    87    1
    93    43    88    1
    94    43    89    1
    95    46    90    1
    96    46    91    1
    97    47    92    1
    98    47    93    1
    99    48    94    1
   100    51    95    1
   101    51    96    1
   102    52    97    1
   103    52    98    1
   104    55    99    1
   105    55   100    1
   106    56   101    1
