@<TRIPOS>MOLECULE
NuBBE_2033
 41 44 0 0 0
SMALL
GASTEIGER

@<TRIPOS>ATOM
      1 O          -0.4189   -2.4897   -1.5256 O.3     1  LIG1       -0.5062
      2 C           0.7865   -2.6510   -0.8947 C.ar    1  LIG1        0.1272
      3 C           1.4905   -1.5462   -0.3470 C.ar    1  LIG1        0.0377
      4 C           2.6990   -1.8077    0.3255 C.ar    1  LIG1       -0.0060
      5 C           3.1433   -3.1137    0.4101 C.ar    1  LIG1        0.1668
      6 C           2.4488   -4.1594   -0.1465 C.ar    1  LIG1        0.1697
      7 C           1.2633   -3.9603   -0.8125 C.ar    1  LIG1        0.0257
      8 O           3.0634   -5.3558    0.0512 O.3     1  LIG1       -0.4525
      9 C           4.2192   -4.9450    0.8092 C.3     1  LIG1        0.2332
     10 O           4.2854   -3.5200    1.0281 O.3     1  LIG1       -0.4526
     11 C           0.9514   -0.1338   -0.5362 C.3     1  LIG1        0.1289
     12 O          -0.4008   -0.1505   -0.0419 O.3     1  LIG1       -0.4834
     13 C          -1.0479    1.0571    0.0092 C.ar    1  LIG1        0.1309
     14 C          -0.3691    2.2766   -0.0837 C.ar    1  LIG1       -0.0048
     15 C           1.1215    2.3231   -0.2511 C.3     1  LIG1       -0.0205
     16 C           1.7508    0.9898    0.1237 C.3     1  LIG1       -0.0073
     17 C          -1.0971    3.4735   -0.0471 C.ar    1  LIG1       -0.0487
     18 C          -2.4909    3.4711    0.1027 C.ar    1  LIG1       -0.0083
     19 C          -3.1473    2.2373    0.2232 C.ar    1  LIG1        0.1261
     20 C          -2.4398    1.0237    0.1989 C.ar    1  LIG1        0.0331
     21 C          -3.1686   -0.2901    0.3049 C.3     1  LIG1       -0.0327
     22 O          -4.5083    2.1658    0.3638 O.3     1  LIG1       -0.5061
     23 C          -3.2240    4.7818    0.1328 C.3     1  LIG1       -0.0362
     24 H          -0.8308   -1.6795   -1.1670 H       1  LIG1        0.2921
     25 H           3.2959   -1.0265    0.7816 H       1  LIG1        0.0660
     26 H           0.7114   -4.7872   -1.2426 H       1  LIG1        0.0692
     27 H           5.1213   -5.2588    0.2716 H       1  LIG1        0.1166
     28 H           4.1974   -5.4483    1.7829 H       1  LIG1        0.1166
     29 H           0.9174    0.0425   -1.6215 H       1  LIG1        0.0785
     30 H           1.5527    3.1133    0.3745 H       1  LIG1        0.0316
     31 H           1.3483    2.5609   -1.2976 H       1  LIG1        0.0316
     32 H           1.7293    0.8758    1.2158 H       1  LIG1        0.0307
     33 H           2.7989    0.9875   -0.1956 H       1  LIG1        0.0307
     34 H          -0.5657    4.4198   -0.1361 H       1  LIG1        0.0625
     35 H          -4.0796   -0.2005    0.9053 H       1  LIG1        0.0280
     36 H          -2.5541   -1.0492    0.8001 H       1  LIG1        0.0280
     37 H          -3.4367   -0.6478   -0.6940 H       1  LIG1        0.0280
     38 H          -4.8830    3.0580    0.4051 H       1  LIG1        0.2922
     39 H          -2.5432    5.6301    0.0043 H       1  LIG1        0.0279
     40 H          -3.7319    4.9089    1.0942 H       1  LIG1        0.0279
     41 H          -3.9583    4.8247   -0.6780 H       1  LIG1        0.0279
@<TRIPOS>BOND
     1     1     2    1
     2     2     3   ar
     3     3     4   ar
     4     4     5   ar
     5     5     6   ar
     6     6     7   ar
     7     2     7   ar
     8     6     8    1
     9     8     9    1
    10     9    10    1
    11     5    10    1
    12     3    11    1
    13    11    12    1
    14    12    13    1
    15    13    14   ar
    16    14    15    1
    17    15    16    1
    18    11    16    1
    19    14    17   ar
    20    17    18   ar
    21    18    19   ar
    22    19    20   ar
    23    13    20   ar
    24    20    21    1
    25    19    22    1
    26    18    23    1
    27     1    24    1
    28     4    25    1
    29     7    26    1
    30     9    27    1
    31     9    28    1
    32    11    29    1
    33    15    30    1
    34    15    31    1
    35    16    32    1
    36    16    33    1
    37    17    34    1
    38    21    35    1
    39    21    36    1
    40    21    37    1
    41    22    38    1
    42    23    39    1
    43    23    40    1
    44    23    41    1
