@<TRIPOS>MOLECULE
NuBBE_1395
 21 21 0 0 0
SMALL
GASTEIGER

@<TRIPOS>ATOM
      1 C          -0.3886    0.4006   -1.8258 C.2     1  LIG1        0.3222
      2 O           0.7493    0.3557   -2.2739 O.2     1  LIG1       -0.2492
      3 O          -1.4621    0.5624   -2.6368 O.3     1  LIG1       -0.4795
      4 C          -0.7532    0.3205   -0.3327 C.3     1  LIG1        0.1104
      5 H          -1.8424    0.2869   -0.2228 H       1  LIG1        0.0579
      6 C          -0.1814    1.5429    0.3935 C.3     1  LIG1        0.0004
      7 C           0.9658    1.0005    1.2458 C.3     1  LIG1        0.0699
      8 H           1.8630    1.6223    1.1802 H       1  LIG1        0.0607
      9 C           1.2014   -0.4233    0.7445 C.3     1  LIG1        0.0255
     10 N          -0.1641   -0.8342    0.3843 N.3     1  LIG1       -0.2905
     11 C          -0.1969   -2.0981   -0.3364 C.3     1  LIG1       -0.0119
     12 O           0.5464    0.9732    2.6135 O.3     1  LIG1       -0.3905
     13 H          -2.3230    0.5863   -2.1785 H       1  LIG1        0.2951
     14 H          -0.9487    2.0158    1.0176 H       1  LIG1        0.0311
     15 H           0.1931    2.2934   -0.3118 H       1  LIG1        0.0311
     16 H           1.6116   -1.0707    1.5264 H       1  LIG1        0.0452
     17 H           1.8753   -0.4258   -0.1191 H       1  LIG1        0.0452
     18 H           0.1560   -2.9068    0.3133 H       1  LIG1        0.0391
     19 H           0.4257   -2.1004   -1.2369 H       1  LIG1        0.0391
     20 H          -1.2239   -2.3486   -0.6231 H       1  LIG1        0.0391
     21 H          -0.1033    0.2474    2.6787 H       1  LIG1        0.2098
@<TRIPOS>BOND
     1     1     2    2
     2     1     3    1
     3     4     6    1
     4     6     7    1
     5     7     9    1
     6     9    10    1
     7     4    10    1
     8    10    11    1
     9     4     5    1
    10     4     1    1
    11     7    12    1
    12     7     8    1
    13     3    13    1
    14     6    14    1
    15     6    15    1
    16     9    16    1
    17     9    17    1
    18    11    18    1
    19    11    19    1
    20    11    20    1
    21    12    21    1
