REMARK  Name = NuBBE_283
REMARK  18 active torsions:
REMARK  status: ('A' for Active; 'I' for Inactive)
REMARK    1  A    between atoms: O_1  and  C_2
REMARK    2  A    between atoms: C_5  and  O_6
REMARK    3  A    between atoms: O_6  and  C_7
REMARK    4  A    between atoms: C_10  and  C_21
REMARK    5  A    between atoms: C_12  and  O_20
REMARK    6  A    between atoms: C_14  and  O_19
REMARK    7  A    between atoms: C_16  and  O_18
REMARK    8  A    between atoms: C_21  and  O_22
REMARK    9  A    between atoms: O_22  and  C_23
REMARK   10  A    between atoms: C_26  and  C_37
REMARK   11  A    between atoms: C_28  and  O_36
REMARK   12  A    between atoms: C_30  and  O_35
REMARK   13  A    between atoms: C_32  and  O_34
REMARK   14  A    between atoms: C_38  and  C_46
REMARK   15  A    between atoms: C_42  and  O_43
REMARK   16  A    between atoms: C_44  and  O_45
REMARK   17  A    between atoms: C_49  and  O_53
REMARK   18  A    between atoms: C_50  and  O_51
REMARK                            x       y       z     vdW  Elec       q    Type
REMARK                         _______ _______ _______ _____ _____    ______ ____
ROOT
ATOM      1  O   LIG A   1       0.158   1.358   2.373  0.00  0.00    -0.453 OA
ENDROOT
BRANCH   1   5
ATOM      2  C   LIG A   1      -1.593   3.971  -1.490  0.00  0.00    +0.177 A 
ATOM      3  C   LIG A   1      -0.653   3.739  -0.479  0.00  0.00    +0.113 A 
ATOM      4  C   LIG A   1      -0.600   2.472   0.264  0.00  0.00    +0.238 A 
ATOM      5  C   LIG A   1       0.269   2.410   1.482  0.00  0.00    +0.214 A 
ATOM      6  C   LIG A   1       1.065   3.472   1.725  0.00  0.00    +0.181 A 
ATOM      7  O   LIG A   1       1.162   4.572   0.862  0.00  0.00    -0.451 OA
ATOM      8  C   LIG A   1       0.244   4.733  -0.132  0.00  0.00    +0.147 A 
ATOM      9  C   LIG A   1       0.249   5.972  -0.787  0.00  0.00    +0.096 A 
ATOM     10  C   LIG A   1      -0.690   6.203  -1.782  0.00  0.00    +0.166 A 
ATOM     11  C   LIG A   1      -1.608   5.211  -2.131  0.00  0.00    +0.202 A 
ATOM     12  O   LIG A   1      -1.312   1.546  -0.104  0.00  0.00    -0.283 OA
BRANCH   6  13
ATOM     13  C   LIG A   1       1.957   3.674   2.912  0.00  0.00    +0.025 A 
ATOM     14  C   LIG A   1       2.001   2.779   3.994  0.00  0.00    +0.015 A 
ATOM     15  C   LIG A   1       2.872   2.945   5.073  0.00  0.00    +0.050 A 
ATOM     16  C   LIG A   1       3.709   4.042   5.097  0.00  0.00    +0.158 A 
ATOM     17  C   LIG A   1       3.660   4.975   4.071  0.00  0.00    +0.159 A 
ATOM     18  C   LIG A   1       2.802   4.802   2.990  0.00  0.00    +0.060 A 
BRANCH  17  19
ATOM     19  O   LIG A   1       4.473   6.072   4.114  0.00  0.00    -0.503 OA
ATOM     20  H   LIG A   1       4.954   5.979   4.961  0.00  0.00    +0.292 HD
ENDBRANCH  17  19
BRANCH  16  21
ATOM     21  O   LIG A   1       4.606   4.234   6.107  0.00  0.00    -0.503 OA
ATOM     22  H   LIG A   1       4.617   3.420   6.640  0.00  0.00    +0.292 HD
ENDBRANCH  16  21
ENDBRANCH   6  13
BRANCH   2  23
ATOM     23  O   LIG A   1      -2.514   3.027  -1.861  0.00  0.00    -0.503 OA
ATOM     24  H   LIG A   1      -2.341   2.210  -1.345  0.00  0.00    +0.292 HD
ENDBRANCH   2  23
BRANCH  10  25
ATOM     25  O   LIG A   1      -0.757   7.398  -2.445  0.00  0.00    -0.503 OA
ATOM     26  H   LIG A   1      -0.073   7.993  -2.091  0.00  0.00    +0.292 HD
ENDBRANCH  10  25
BRANCH  11  27
ATOM     27  O   LIG A   1      -2.525   5.481  -3.110  0.00  0.00    -0.501 OA
ATOM     28  H   LIG A   1      -2.337   6.397  -3.389  0.00  0.00    +0.292 HD
ENDBRANCH  11  27
ENDBRANCH   1   5
BRANCH   1  29
ATOM     29  C   LIG A   1      -0.192   0.020   1.989  0.00  0.00    +0.340 C 
ATOM     30  O   LIG A   1       0.680  -0.509   0.980  0.00  0.00    -0.331 OA
ATOM     31  C   LIG A   1       0.479  -1.892   0.636  0.00  0.00    +0.179 C 
ATOM     32  C   LIG A   1      -0.471  -2.666   1.575  0.00  0.00    +0.177 C 
ATOM     33  C   LIG A   1      -0.022  -2.345   2.984  0.00  0.00    +0.180 C 
ATOM     34  C   LIG A   1      -0.232  -0.864   3.289  0.00  0.00    +0.214 C 
BRANCH  34  35
ATOM     35  O   LIG A   1       0.742  -0.508   4.290  0.00  0.00    -0.383 OA
ATOM     36  H   LIG A   1       0.650  -1.185   4.991  0.00  0.00    +0.210 HD
ENDBRANCH  34  35
BRANCH  33  37
ATOM     37  O   LIG A   1      -0.719  -3.159   3.937  0.00  0.00    -0.386 OA
ATOM     38  H   LIG A   1      -0.719  -4.053   3.531  0.00  0.00    +0.210 HD
ENDBRANCH  33  37
BRANCH  32  39
ATOM     39  O   LIG A   1      -0.402  -4.090   1.415  0.00  0.00    -0.387 OA
ATOM     40  H   LIG A   1      -0.466  -4.250   0.448  0.00  0.00    +0.210 HD
ENDBRANCH  32  39
BRANCH  31  41
ATOM     41  C   LIG A   1       0.083  -2.072  -0.838  0.00  0.00    +0.197 C 
BRANCH  41  42
ATOM     42  O   LIG A   1      -0.076  -3.476  -1.093  0.00  0.00    -0.346 OA
BRANCH  42  43
ATOM     43  C   LIG A   1      -0.441  -3.769  -2.451  0.00  0.00    +0.282 C 
ATOM     44  O   LIG A   1      -1.688  -3.135  -2.720  0.00  0.00    -0.343 OA
ATOM     45  C   LIG A   1      -2.249  -3.438  -4.000  0.00  0.00    +0.149 C 
ATOM     46  C   LIG A   1      -2.471  -4.956  -4.141  0.00  0.00    +0.174 C 
ATOM     47  C   LIG A   1      -1.181  -5.738  -3.897  0.00  0.00    +0.179 C 
ATOM     48  C   LIG A   1      -0.531  -5.313  -2.575  0.00  0.00    +0.201 C 
ATOM     49  C   LIG A   1      -1.454  -2.792  -5.131  0.00  0.00    +0.040 C 
BRANCH  48  50
ATOM     50  O   LIG A   1       0.779  -5.915  -2.510  0.00  0.00    -0.384 OA
ATOM     51  H   LIG A   1       0.662  -6.800  -2.118  0.00  0.00    +0.210 HD
ENDBRANCH  48  50
BRANCH  47  52
ATOM     52  O   LIG A   1      -0.258  -5.561  -4.977  0.00  0.00    -0.386 OA
ATOM     53  H   LIG A   1       0.610  -5.856  -4.631  0.00  0.00    +0.210 HD
ENDBRANCH  47  52
BRANCH  46  54
ATOM     54  O   LIG A   1      -3.428  -5.404  -3.163  0.00  0.00    -0.387 OA
ATOM     55  H   LIG A   1      -4.061  -4.683  -3.001  0.00  0.00    +0.210 HD
ENDBRANCH  46  54
ENDBRANCH  42  43
ENDBRANCH  41  42
ENDBRANCH  31  41
ENDBRANCH   1  29
TORSDOF 17
