@<TRIPOS>MOLECULE
NuBBE_1605
 69 70 0 0 0
SMALL
GASTEIGER

@<TRIPOS>ATOM
      1 O          -1.1389    1.7913    8.8528 O.3     1  LIG1       -0.5067
      2 C          -1.6118    1.1947    7.7216 C.ar    1  LIG1        0.1176
      3 C          -0.9358    0.1384    7.1218 C.ar    1  LIG1       -0.0135
      4 C          -1.4503   -0.4487    5.9542 C.ar    1  LIG1       -0.0018
      5 C          -2.6111    0.0718    5.3723 C.ar    1  LIG1        0.1276
      6 O          -3.1445   -0.3872    4.1998 O.3     1  LIG1       -0.4854
      7 C          -2.5308   -1.4953    3.5201 C.3     1  LIG1        0.1085
      8 C          -1.6925   -0.9741    2.3127 C.3     1  LIG1       -0.0097
      9 C          -2.5077   -0.2038    1.2477 C.3     1  LIG1       -0.0309
     10 C          -1.6682    0.2317    0.0704 C.2     1  LIG1       -0.0849
     11 C          -1.8644   -0.0436   -1.2400 C.2     1  LIG1       -0.0762
     12 C          -3.0137   -0.8417   -1.7979 C.3     1  LIG1       -0.0438
     13 C          -0.8927    0.4804   -2.2857 C.3     1  LIG1       -0.0286
     14 C           0.2166   -0.5324   -2.5959 C.3     1  LIG1       -0.0308
     15 C           1.1758   -0.0342   -3.6441 C.2     1  LIG1       -0.0847
     16 C           2.3066    0.6692   -3.4330 C.2     1  LIG1       -0.0762
     17 C           2.7244    1.1397   -2.0596 C.3     1  LIG1       -0.0438
     18 C           3.2825    1.0511   -4.5416 C.3     1  LIG1       -0.0286
     19 C           2.9576    0.5351   -5.9557 C.3     1  LIG1       -0.0308
     20 C           3.9370    0.9432   -7.0283 C.2     1  LIG1       -0.0850
     21 C           5.2262    0.6032   -7.1363 C.2     1  LIG1       -0.0796
     22 C           6.0010   -0.2354   -6.1515 C.3     1  LIG1       -0.0440
     23 C           6.0517    1.0394   -8.3230 C.3     1  LIG1       -0.0440
     24 C          -3.7120   -2.3449    3.0133 C.3     1  LIG1       -0.0249
     25 C          -1.7065   -2.3991    4.4618 C.3     1  LIG1       -0.0091
     26 C          -0.7503   -1.6255    5.3506 C.3     1  LIG1       -0.0205
     27 C          -3.3094    1.1180    6.0029 C.ar    1  LIG1       -0.0050
     28 C          -4.5903    1.6483    5.4227 C.3     1  LIG1       -0.0361
     29 C          -2.7996    1.6726    7.1852 C.ar    1  LIG1       -0.0138
     30 H          -0.2624    1.4244    9.0528 H       1  LIG1        0.2921
     31 H          -0.0192   -0.2470    7.5590 H       1  LIG1        0.0658
     32 H          -1.2010   -1.8266    1.8247 H       1  LIG1        0.0306
     33 H          -0.8965   -0.3124    2.6775 H       1  LIG1        0.0306
     34 H          -2.9660    0.6843    1.6973 H       1  LIG1        0.0309
     35 H          -3.3242   -0.8331    0.8971 H       1  LIG1        0.0309
     36 H          -0.8194    0.8619    0.3390 H       1  LIG1        0.0572
     37 H          -3.6639   -1.2743   -1.0362 H       1  LIG1        0.0274
     38 H          -2.6428   -1.6715   -2.4075 H       1  LIG1        0.0274
     39 H          -3.6421   -0.2039   -2.4299 H       1  LIG1        0.0274
     40 H          -0.4458    1.4214   -1.9398 H       1  LIG1        0.0313
     41 H          -1.4376    0.7370   -3.2045 H       1  LIG1        0.0313
     42 H          -0.2167   -1.4712   -2.9636 H       1  LIG1        0.0310
     43 H           0.7599   -0.8019   -1.6823 H       1  LIG1        0.0310
     44 H           0.9085   -0.3381   -4.6534 H       1  LIG1        0.0572
     45 H           1.9167    1.0742   -1.3254 H       1  LIG1        0.0274
     46 H           3.0295    2.1910   -2.0886 H       1  LIG1        0.0274
     47 H           3.5632    0.5421   -1.6892 H       1  LIG1        0.0274
     48 H           4.2626    0.6767   -4.2321 H       1  LIG1        0.0313
     49 H           3.3728    2.1441   -4.5762 H       1  LIG1        0.0313
     50 H           1.9753    0.9215   -6.2550 H       1  LIG1        0.0310
     51 H           2.8715   -0.5587   -5.9650 H       1  LIG1        0.0310
     52 H           3.4906    1.5480   -7.8245 H       1  LIG1        0.0572
     53 H           5.3917   -0.6216   -5.3332 H       1  LIG1        0.0274
     54 H           6.8093    0.3629   -5.7135 H       1  LIG1        0.0274
     55 H           6.4404   -1.1034   -6.6467 H       1  LIG1        0.0274
     56 H           5.4945    1.6996   -8.9957 H       1  LIG1        0.0274
     57 H           6.3680    0.1632   -8.8992 H       1  LIG1        0.0274
     58 H           6.9451    1.5767   -7.9902 H       1  LIG1        0.0274
     59 H          -4.4029   -1.7588    2.4001 H       1  LIG1        0.0268
     60 H          -4.3197   -2.6995    3.8539 H       1  LIG1        0.0268
     61 H          -3.3679   -3.2101    2.4384 H       1  LIG1        0.0268
     62 H          -1.1608   -3.1669    3.9003 H       1  LIG1        0.0307
     63 H          -2.3975   -2.9378    5.1269 H       1  LIG1        0.0307
     64 H           0.1340   -1.2929    4.7984 H       1  LIG1        0.0316
     65 H          -0.4098   -2.2973    6.1508 H       1  LIG1        0.0316
     66 H          -5.3084    0.8343    5.2766 H       1  LIG1        0.0279
     67 H          -4.3959    2.1392    4.4644 H       1  LIG1        0.0279
     68 H          -5.0601    2.3797    6.0890 H       1  LIG1        0.0279
     69 H          -3.3215    2.4826    7.6882 H       1  LIG1        0.0658
@<TRIPOS>BOND
     1     1     2    1
     2     2     3   ar
     3     3     4   ar
     4     4     5   ar
     5     5     6    1
     6     6     7    1
     7     7     8    1
     8     8     9    1
     9     9    10    1
    10    10    11    2
    11    11    12    1
    12    11    13    1
    13    13    14    1
    14    14    15    1
    15    15    16    2
    16    16    17    1
    17    16    18    1
    18    18    19    1
    19    19    20    1
    20    20    21    2
    21    21    22    1
    22    21    23    1
    23     7    24    1
    24     7    25    1
    25    25    26    1
    26     4    26    1
    27     5    27   ar
    28    27    28    1
    29    27    29   ar
    30     2    29   ar
    31     1    30    1
    32     3    31    1
    33     8    32    1
    34     8    33    1
    35     9    34    1
    36     9    35    1
    37    10    36    1
    38    12    37    1
    39    12    38    1
    40    12    39    1
    41    13    40    1
    42    13    41    1
    43    14    42    1
    44    14    43    1
    45    15    44    1
    46    17    45    1
    47    17    46    1
    48    17    47    1
    49    18    48    1
    50    18    49    1
    51    19    50    1
    52    19    51    1
    53    20    52    1
    54    22    53    1
    55    22    54    1
    56    22    55    1
    57    23    56    1
    58    23    57    1
    59    23    58    1
    60    24    59    1
    61    24    60    1
    62    24    61    1
    63    25    62    1
    64    25    63    1
    65    26    64    1
    66    26    65    1
    67    28    66    1
    68    28    67    1
    69    28    68    1
    70    29    69    1
