@<TRIPOS>MOLECULE
NuBBE_2216
 34 35 0 0 0
SMALL
GASTEIGER

@<TRIPOS>ATOM
      1 C          -2.7525   -0.2652   -0.7729 C.3     1  LIG1       -0.0358
      2 C          -1.2587   -0.2330   -0.5468 C.ar    1  LIG1       -0.0008
      3 C          -0.5770    0.9861   -0.3534 C.ar    1  LIG1       -0.0198
      4 C           0.8234    0.9841   -0.2301 C.ar    1  LIG1        0.1077
      5 C           1.5396   -0.2293   -0.2043 C.ar    1  LIG1        0.1767
      6 C           0.8639   -1.4582   -0.3032 C.ar    1  LIG1        0.2044
      7 C          -0.5401   -1.4514   -0.4663 C.ar    1  LIG1        0.1683
      8 O          -1.3135   -2.5765   -0.6543 O.3     1  LIG1       -0.4910
      9 C          -0.9944   -3.7223    0.1265 C.3     1  LIG1        0.0790
     10 O           1.4614   -2.6898   -0.2274 O.3     1  LIG1       -0.4885
     11 C           2.8067   -2.8240   -0.6627 C.3     1  LIG1        0.0791
     12 O           2.9062   -0.2250   -0.0486 O.3     1  LIG1       -0.5027
     13 C           1.5575    2.2769   -0.1499 C.2     1  LIG1        0.3434
     14 O           2.7757    2.3058   -0.3133 O.2     1  LIG1       -0.2448
     15 O           0.8455    3.4021    0.0926 O.3     1  LIG1       -0.4577
     16 C          -0.5158    3.3104    0.5439 C.3     1  LIG1        0.1046
     17 H          -0.9585    4.3020    0.3924 H       1  LIG1        0.0734
     18 C          -1.2934    2.3113   -0.3074 C.3     1  LIG1        0.0106
     19 C          -0.5452    3.0164    2.0434 C.3     1  LIG1       -0.0274
     20 H          -3.1074    0.6457   -1.2645 H       1  LIG1        0.0279
     21 H          -3.2726   -0.3823    0.1826 H       1  LIG1        0.0279
     22 H          -3.0407   -1.0840   -1.4405 H       1  LIG1        0.0279
     23 H          -0.6954   -3.4609    1.1469 H       1  LIG1        0.0660
     24 H          -0.2375   -4.3330   -0.3740 H       1  LIG1        0.0660
     25 H          -1.8992   -4.3350    0.1931 H       1  LIG1        0.0660
     26 H           2.9910   -3.8911   -0.8235 H       1  LIG1        0.0660
     27 H           3.5056   -2.4994    0.1135 H       1  LIG1        0.0660
     28 H           2.9811   -2.3131   -1.6149 H       1  LIG1        0.0660
     29 H           3.2465    0.6929   -0.1453 H       1  LIG1        0.2923
     30 H          -1.3743    2.6823   -1.3364 H       1  LIG1        0.0349
     31 H          -2.3020    2.2118    0.1069 H       1  LIG1        0.0349
     32 H          -0.0703    2.0609    2.2880 H       1  LIG1        0.0265
     33 H          -1.5712    3.0002    2.4227 H       1  LIG1        0.0265
     34 H           0.0155    3.7850    2.5870 H       1  LIG1        0.0265
@<TRIPOS>BOND
     1     1     2    1
     2     2     3   ar
     3     3     4   ar
     4     4     5   ar
     5     5     6   ar
     6     6     7   ar
     7     2     7   ar
     8     7     8    1
     9     8     9    1
    10     6    10    1
    11    10    11    1
    12     5    12    1
    13     4    13    1
    14    13    14    2
    15    13    15    1
    16    15    16    1
    17    16    18    1
    18     3    18    1
    19    16    19    1
    20    16    17    1
    21     1    20    1
    22     1    21    1
    23     1    22    1
    24     9    23    1
    25     9    24    1
    26     9    25    1
    27    11    26    1
    28    11    27    1
    29    11    28    1
    30    12    29    1
    31    18    30    1
    32    18    31    1
    33    19    32    1
    34    19    33    1
    35    19    34    1
