@<TRIPOS>MOLECULE
NuBBE_1972
 14 13 0 0 0
SMALL
GASTEIGER

@<TRIPOS>ATOM
      1 C           0.3133   -0.3903   -0.4093 C.3     1  LIG1        0.0218
      2 S          -0.1139   -0.4212    1.3594 S.3     1  LIG1       -0.0893
      3 S          -2.1678   -0.2892    1.3185 S.3     1  LIG1       -0.0962
      4 C          -2.4292    1.4909    1.1153 C.3     1  LIG1       -0.0078
      5 C           1.8054   -0.4702   -0.5594 C.2     1  LIG1       -0.0805
      6 C           2.4532   -1.4464   -1.2070 C.2     1  LIG1       -0.1018
      7 H          -0.0357    0.5473   -0.8518 H       1  LIG1        0.0427
      8 H          -0.1794   -1.2257   -0.9171 H       1  LIG1        0.0427
      9 H          -3.4879    1.7158    1.2717 H       1  LIG1        0.0349
     10 H          -2.1596    1.8007    0.1022 H       1  LIG1        0.0349
     11 H          -1.8472    2.0588    1.8460 H       1  LIG1        0.0349
     12 H           2.3846    0.3405   -0.1170 H       1  LIG1        0.0575
     13 H           1.9268   -2.2759   -1.6681 H       1  LIG1        0.0532
     14 H           3.5375   -1.4352   -1.2834 H       1  LIG1        0.0532
@<TRIPOS>BOND
     1     1     2    1
     2     2     3    1
     3     3     4    1
     4     1     5    1
     5     5     6    2
     6     1     7    1
     7     1     8    1
     8     4     9    1
     9     4    10    1
    10     4    11    1
    11     5    12    1
    12     6    13    1
    13     6    14    1
