REMARK  Name = NuBBE_1499
REMARK  3 active torsions:
REMARK  status: ('A' for Active; 'I' for Inactive)
REMARK    1  A    between atoms: C_1  and  C_2
REMARK    2  A    between atoms: C_2  and  C_3
REMARK    3  A    between atoms: C_14  and  C_17
REMARK                            x       y       z     vdW  Elec       q    Type
REMARK                         _______ _______ _______ _____ _____    ______ ____
ROOT
ATOM      1  C   LIG A   1      -2.276   0.367  -2.618  0.00  0.00    +0.011 C 
ATOM      2  C   LIG A   1      -0.948   0.884  -2.072  0.00  0.00    -0.031 C 
ATOM      3  C   LIG A   1      -0.899   2.416  -2.257  0.00  0.00    +0.011 C 
ATOM      4  C   LIG A   1      -0.654   0.165  -0.670  0.00  0.00    +0.002 C 
ATOM      5  C   LIG A   1       0.819   0.606  -0.922  0.00  0.00    +0.019 C 
ATOM      6  C   LIG A   1       0.486   0.252  -2.419  0.00  0.00    +0.014 C 
ATOM      7  C   LIG A   1       1.901  -0.040  -0.137  0.00  0.00    -0.073 C 
ATOM      8  C   LIG A   1       2.587   0.762   0.707  0.00  0.00    +0.008 C 
ATOM      9  C   LIG A   1       2.142  -1.527  -0.137  0.00  0.00    +0.034 C 
ATOM     10  C   LIG A   1       1.207  -2.318   0.801  0.00  0.00    +0.031 C 
ATOM     11  C   LIG A   1       0.935  -1.607   2.103  0.00  0.00    -0.027 C 
ATOM     12  C   LIG A   1      -0.159  -0.865   2.414  0.00  0.00    -0.076 C 
ATOM     13  C   LIG A   1      -1.397  -0.732   1.558  0.00  0.00    +0.030 C 
ATOM     14  C   LIG A   1      -1.406   0.490   0.611  0.00  0.00    +0.009 C 
ATOM     15  C   LIG A   1      -0.200  -0.063   3.686  0.00  0.00    +0.038 C 
ENDROOT
TORSDOF 0
