@<TRIPOS>MOLECULE
NuBBE_1450
 53 57 0 0 0
SMALL
GASTEIGER

@<TRIPOS>ATOM
      1 H          -1.9337    1.6079    0.0424 H       1  LIG1        0.0469
      2 C          -1.4392    0.6857    0.3762 C.3     1  LIG1        0.0909
      3 C          -1.6135   -0.3235   -0.7443 C.2     1  LIG1        0.1813
      4 C          -0.4672   -0.5540   -1.6443 C.ar    1  LIG1        0.1015
      5 C          -0.4926   -1.5473   -2.6407 C.ar    1  LIG1        0.1344
      6 O          -1.5909   -2.3388   -2.8659 O.3     1  LIG1       -0.5058
      7 C           0.6136   -1.7724   -3.4615 C.ar    1  LIG1        0.0228
      8 C           1.7291   -0.9788   -3.2740 C.ar    1  LIG1        0.1317
      9 C           1.7627    0.0140   -2.3119 C.ar    1  LIG1        0.0406
     10 C           3.0970    0.6579   -2.3010 C.3     1  LIG1        0.0205
     11 C           3.7220    0.0240   -3.5609 C.3     1  LIG1        0.1273
     12 C           3.9095    1.0039   -4.7122 C.2     1  LIG1       -0.0113
     13 C           5.3144    1.1738   -5.2127 C.3     1  LIG1        0.0684
     14 O           6.1204    1.6742   -4.1561 O.3     1  LIG1       -0.3906
     15 C           2.8864    1.6766   -5.2719 C.2     1  LIG1       -0.0938
     16 O           2.8815   -1.0806   -4.0074 O.3     1  LIG1       -0.4836
     17 C           0.6748    0.2406   -1.4902 C.ar    1  LIG1        0.1419
     18 O           0.7807    1.2409   -0.5716 O.3     1  LIG1       -0.4832
     19 C           0.0440    0.9750    0.6254 C.3     1  LIG1        0.1479
     20 C           0.7630   -0.0882    1.4878 C.3     1  LIG1        0.1273
     21 O          -0.0651   -1.1693    1.9285 O.3     1  LIG1       -0.4879
     22 C          -1.2571   -0.7107    2.4156 C.ar    1  LIG1        0.1283
     23 C          -2.0073    0.2089    1.6894 C.ar    1  LIG1        0.0122
     24 C          -3.2212    0.6467    2.2218 C.ar    1  LIG1       -0.0088
     25 C          -3.6637    0.1955    3.4826 C.ar    1  LIG1        0.1620
     26 O          -4.8587    0.7637    3.8452 O.3     1  LIG1       -0.4914
     27 C          -5.4401    0.3987    5.0884 C.3     1  LIG1        0.0790
     28 C          -2.8736   -0.7169    4.2104 C.ar    1  LIG1        0.1650
     29 O          -3.2868   -1.1361    5.4487 O.3     1  LIG1       -0.4913
     30 C          -2.2597   -1.5352    6.3530 C.3     1  LIG1        0.0790
     31 C          -1.6897   -1.1976    3.6395 C.ar    1  LIG1        0.0257
     32 O          -2.6733   -0.9218   -0.9686 O.2     1  LIG1       -0.2910
     33 H          -2.3060   -2.0535   -2.2529 H       1  LIG1        0.2922
     34 H           0.5972   -2.5425   -4.2252 H       1  LIG1        0.0691
     35 H           3.6490    0.3592   -1.4028 H       1  LIG1        0.0355
     36 H           3.0440    1.7499   -2.3411 H       1  LIG1        0.0355
     37 H           4.6926   -0.4125   -3.2903 H       1  LIG1        0.0785
     38 H           5.3740    1.8778   -6.0505 H       1  LIG1        0.0605
     39 H           5.7274    0.2189   -5.5524 H       1  LIG1        0.0605
     40 H           5.7589    2.5453   -3.9184 H       1  LIG1        0.2098
     41 H           1.8649    1.5415   -4.9282 H       1  LIG1        0.0536
     42 H           3.0343    2.3626   -6.0997 H       1  LIG1        0.0536
     43 H           0.1016    1.9137    1.1949 H       1  LIG1        0.0778
     44 H           1.1942    0.3897    2.3776 H       1  LIG1        0.0734
     45 H           1.6094   -0.5330    0.9531 H       1  LIG1        0.0734
     46 H          -3.8370    1.3572    1.6725 H       1  LIG1        0.0659
     47 H          -4.8317    0.7565    5.9255 H       1  LIG1        0.0660
     48 H          -5.6299   -0.6776    5.1461 H       1  LIG1        0.0660
     49 H          -6.4123    0.8967    5.1597 H       1  LIG1        0.0660
     50 H          -2.7085   -1.6443    7.3444 H       1  LIG1        0.0660
     51 H          -1.4724   -0.7756    6.4216 H       1  LIG1        0.0660
     52 H          -1.8448   -2.5090    6.0740 H       1  LIG1        0.0660
     53 H          -1.0705   -1.9378    4.1327 H       1  LIG1        0.0692
@<TRIPOS>BOND
     1     1     2    1
     2     2     3    1
     3     3     4    1
     4     4     5   ar
     5     5     6    1
     6     5     7   ar
     7     7     8   ar
     8     8     9   ar
     9     9    10    1
    10    10    11    1
    11    11    12    1
    12    12    13    1
    13    13    14    1
    14    12    15    2
    15    11    16    1
    16     8    16    1
    17     9    17   ar
    18     4    17   ar
    19    17    18    1
    20    18    19    1
    21     2    19    1
    22    19    20    1
    23    20    21    1
    24    21    22    1
    25    22    23   ar
    26     2    23    1
    27    23    24   ar
    28    24    25   ar
    29    25    26    1
    30    26    27    1
    31    25    28   ar
    32    28    29    1
    33    29    30    1
    34    28    31   ar
    35    22    31   ar
    36     3    32    2
    37     6    33    1
    38     7    34    1
    39    10    35    1
    40    10    36    1
    41    11    37    1
    42    13    38    1
    43    13    39    1
    44    14    40    1
    45    15    41    1
    46    15    42    1
    47    19    43    1
    48    20    44    1
    49    20    45    1
    50    24    46    1
    51    27    47    1
    52    27    48    1
    53    27    49    1
    54    30    50    1
    55    30    51    1
    56    30    52    1
    57    31    53    1
