REMARK  Name = NuBBE_665
REMARK  1 active torsions:
REMARK  status: ('A' for Active; 'I' for Inactive)
REMARK    1  A    between atoms: O_1  and  C_2
REMARK                            x       y       z     vdW  Elec       q    Type
REMARK                         _______ _______ _______ _____ _____    ______ ____
ROOT
ATOM      1  C   LIG A   1      -2.209  -0.421   0.139  0.00  0.00    +0.120 A 
ATOM      2  C   LIG A   1      -1.493   0.769   0.106  0.00  0.00    +0.092 A 
ATOM      3  C   LIG A   1      -0.103   0.703   0.043  0.00  0.00    +0.142 A 
ATOM      4  C   LIG A   1       0.577  -0.515   0.024  0.00  0.00    +0.018 A 
ATOM      5  C   LIG A   1      -0.159  -1.700   0.081  0.00  0.00    +0.015 A 
ATOM      6  C   LIG A   1      -1.555  -1.651   0.133  0.00  0.00    +0.046 A 
ATOM      7  C   LIG A   1       2.026  -0.511  -0.086  0.00  0.00    +0.018 A 
ATOM      8  C   LIG A   1       2.674   0.653  -0.192  0.00  0.00    +0.092 A 
ATOM      9  C   LIG A   1       1.978   1.953  -0.172  0.00  0.00    +0.337 A 
ATOM     10  O   LIG A   1       2.604   2.999  -0.277  0.00  0.00    -0.245 OA
ATOM     11  O   LIG A   1       0.598   1.924  -0.026  0.00  0.00    -0.422 OA
ENDROOT
BRANCH   1  12
ATOM     12  O   LIG A   1      -3.572  -0.430   0.167  0.00  0.00    -0.507 OA
ATOM     13  H   LIG A   1      -3.893   0.486   0.119  0.00  0.00    +0.292 HD
ENDBRANCH   1  12
TORSDOF 1
