@<TRIPOS>MOLECULE
NuBBE_676
 54 56 0 0 0
SMALL
GASTEIGER

@<TRIPOS>ATOM
      1 CL          0.9682   -3.7110   -3.3697 Cl      1  LIG1       -0.0791
      2 C           0.2657   -3.1970   -1.8707 C.2     1  LIG1        0.0956
      3 C          -0.7239   -4.1558   -1.2548 C.2     1  LIG1        0.2224
      4 C          -1.2403   -3.8463    0.1670 C.3     1  LIG1        0.2000
      5 O          -2.5793   -4.2752    0.3434 O.3     1  LIG1       -0.4418
      6 C          -0.3871   -4.5681    1.2102 C.3     1  LIG1       -0.0130
      7 C          -1.3098   -2.3791    0.3720 C.2     1  LIG1        0.0312
      8 C          -2.5527   -1.9717    0.6615 C.2     1  LIG1        0.1096
      9 C          -3.0582   -0.5852    0.8363 C.2     1  LIG1        0.1732
     10 C          -4.5340   -0.3359    1.1593 C.3     1  LIG1        0.0193
     11 H          -5.0382   -1.2560    1.4459 H       1  LIG1        0.0378
     12 C          -5.2167    0.2215   -0.0897 C.3     1  LIG1       -0.0554
     13 C          -4.7064    0.6235    2.3478 C.3     1  LIG1       -0.0463
     14 H          -4.2984    1.6120    2.1105 H       1  LIG1        0.0269
     15 H          -5.7795    0.7576    2.5367 H       1  LIG1        0.0269
     16 C          -4.0622    0.1089    3.6296 C.3     1  LIG1       -0.0646
     17 O          -2.2878    0.3692    0.7212 O.2     1  LIG1       -0.2915
     18 C          -3.3648   -3.2000    0.6185 C.2     1  LIG1        0.3443
     19 O          -4.5732   -3.2791    0.7597 O.2     1  LIG1       -0.2448
     20 O          -1.0856   -5.1661   -1.8601 O.2     1  LIG1       -0.2864
     21 C           0.5742   -2.0286   -1.2648 C.2     1  LIG1        0.0108
     22 C          -0.1188   -1.6572   -0.0129 C.2     1  LIG1        0.0269
     23 C           0.4496   -0.6762    0.7114 C.2     1  LIG1        0.1006
     24 O           1.5421    0.0708    0.2922 O.2     1  LIG1       -0.4629
     25 C           1.9556   -0.0583   -1.0356 C.2     1  LIG1        0.1279
     26 C           2.8115    0.9949   -1.5461 C.2     1  LIG1       -0.0230
     27 C           3.3216    2.0142   -0.8353 C.2     1  LIG1       -0.0777
     28 C           4.1241    3.1387   -1.4559 C.3     1  LIG1       -0.0256
     29 H           4.3309    2.9008   -2.5081 H       1  LIG1        0.0340
     30 C           3.2880    4.4208   -1.4269 C.3     1  LIG1       -0.0590
     31 C           5.4727    3.2947   -0.7307 C.3     1  LIG1       -0.0499
     32 C           6.3475    4.4023   -1.3048 C.3     1  LIG1       -0.0648
     33 C           1.5217   -1.0644   -1.8163 C.2     1  LIG1       -0.0100
     34 H          -0.4628   -5.6541    1.0803 H       1  LIG1        0.0276
     35 H          -0.7409   -4.3527    2.2263 H       1  LIG1        0.0276
     36 H           0.6708   -4.2950    1.1467 H       1  LIG1        0.0276
     37 H          -6.2553    0.4977    0.1196 H       1  LIG1        0.0237
     38 H          -5.2215   -0.5228   -0.8938 H       1  LIG1        0.0237
     39 H          -4.7000    1.1104   -0.4701 H       1  LIG1        0.0237
     40 H          -2.9790    0.0026    3.5189 H       1  LIG1        0.0230
     41 H          -4.4756   -0.8620    3.9218 H       1  LIG1        0.0230
     42 H          -4.2451    0.8132    4.4474 H       1  LIG1        0.0230
     43 H           0.1072   -0.3179    1.6733 H       1  LIG1        0.1036
     44 H           3.0046    0.9664   -2.6175 H       1  LIG1        0.0651
     45 H           3.1330    2.0809    0.2349 H       1  LIG1        0.0576
     46 H           2.3141    4.2646   -1.9053 H       1  LIG1        0.0235
     47 H           3.7837    5.2301   -1.9721 H       1  LIG1        0.0235
     48 H           3.1093    4.7605   -0.4008 H       1  LIG1        0.0235
     49 H           6.0274    2.3498   -0.7967 H       1  LIG1        0.0268
     50 H           5.3117    3.4901    0.3369 H       1  LIG1        0.0268
     51 H           6.5013    4.2671   -2.3799 H       1  LIG1        0.0230
     52 H           7.3278    4.3987   -0.8177 H       1  LIG1        0.0230
     53 H           5.9048    5.3891   -1.1387 H       1  LIG1        0.0230
     54 H           1.8283   -1.1352   -2.8544 H       1  LIG1        0.0661
@<TRIPOS>BOND
     1     2     3    1
     2     3     4    1
     3     4     5    1
     4     4     7    1
     5     7     8    2
     6    10    12    1
     7    10    13    1
     8    13    14    1
     9    13    15    1
    10    13    16    1
    11     9    17    2
    12     8    18    1
    13     5    18    1
    14     2    21    2
    15    21    22    1
    16     7    22    1
    17    22    23    2
    18    23    24    1
    19    24    25    1
    20    26    27    2
    21    27    28    1
    22    28    29    1
    23    28    30    1
    24    28    31    1
    25    31    32    1
    26    25    33    2
    27    21    33    1
    28     1     2    1
    29     3    20    2
    30     4     6    1
    31     8     9    1
    32    18    19    2
    33    25    26    1
    34    10    11    1
    35    10     9    1
    36     6    34    1
    37     6    35    1
    38     6    36    1
    39    12    37    1
    40    12    38    1
    41    12    39    1
    42    16    40    1
    43    16    41    1
    44    16    42    1
    45    23    43    1
    46    26    44    1
    47    27    45    1
    48    30    46    1
    49    30    47    1
    50    30    48    1
    51    31    49    1
    52    31    50    1
    53    32    51    1
    54    32    52    1
    55    32    53    1
    56    33    54    1
