REMARK  Name = NuBBE_1786
REMARK  2 active torsions:
REMARK  status: ('A' for Active; 'I' for Inactive)
REMARK    1  A    between atoms: C_1  and  C_3
REMARK    2  A    between atoms: C_24  and  O_31
REMARK                            x       y       z     vdW  Elec       q    Type
REMARK                         _______ _______ _______ _____ _____    ______ ____
ROOT
ATOM      1  C   LIG A   1      -3.055  -0.885   0.994  0.00  0.00    +0.217 C 
ATOM      2  O   LIG A   1      -3.678  -1.179   2.018  0.00  0.00    -0.276 OA
ATOM      3  C   LIG A   1      -3.821  -0.461  -0.235  0.00  0.00    +0.110 C 
ATOM      4  N   LIG A   1      -1.679  -0.992   0.883  0.00  0.00    -0.267 N 
ATOM      5  C   LIG A   1      -0.785  -0.474  -0.173  0.00  0.00    +0.102 C 
ATOM      6  C   LIG A   1       0.676  -0.908   0.304  0.00  0.00    +0.034 C 
ATOM      7  C   LIG A   1       0.324  -2.232   0.880  0.00  0.00    -0.017 A 
ATOM      8  C   LIG A   1      -1.007  -2.179   1.357  0.00  0.00    +0.040 A 
ATOM      9  C   LIG A   1      -1.530  -3.240   2.075  0.00  0.00    +0.024 A 
ATOM     10  C   LIG A   1      -0.715  -4.356   2.302  0.00  0.00    +0.002 A 
ATOM     11  C   LIG A   1       0.600  -4.405   1.811  0.00  0.00    +0.000 A 
ATOM     12  C   LIG A   1       1.135  -3.333   1.097  0.00  0.00    +0.006 A 
ATOM     13  C   LIG A   1       1.554  -0.549  -0.875  0.00  0.00    +0.070 C 
ATOM     14  N   LIG A   1       2.867   0.065  -0.597  0.00  0.00    -0.295 NA
ATOM     15  C   LIG A   1       2.854   0.177   0.893  0.00  0.00    +0.086 C 
ATOM     16  C   LIG A   1       1.409  -0.095   1.439  0.00  0.00    +0.030 C 
ATOM     17  C   LIG A   1       2.898   1.395  -1.339  0.00  0.00    +0.115 C 
ATOM     18  C   LIG A   1       1.492   2.076  -1.597  0.00  0.00    -0.054 C 
ATOM     19  C   LIG A   1       1.301   3.357  -1.224  0.00  0.00    +0.002 C 
ATOM     20  C   LIG A   1       0.003   4.098  -1.071  0.00  0.00    +0.190 C 
ATOM     21  O   LIG A   1      -1.157   3.276  -1.041  0.00  0.00    -0.347 OA
ATOM     22  C   LIG A   1      -1.077   2.188  -0.125  0.00  0.00    +0.253 C 
ATOM     23  C   LIG A   1      -0.895   0.923  -0.962  0.00  0.00    +0.074 C 
ATOM     24  C   LIG A   1       0.306   1.123  -2.069  0.00  0.00    +0.027 C 
ATOM     25  C   LIG A   1       0.955  -0.283  -2.272  0.00  0.00    +0.028 C 
ENDROOT
BRANCH  22  26
ATOM     26  O   LIG A   1      -2.301   2.127   0.577  0.00  0.00    -0.367 OA
ATOM     27  H   LIG A   1      -2.333   2.929   1.123  0.00  0.00    +0.212 HD
ENDBRANCH  22  26
TORSDOF 1
