@<TRIPOS>MOLECULE
NuBBE_2064
 46 49 0 0 0
SMALL
GASTEIGER

@<TRIPOS>ATOM
      1 C           2.4843   -2.2640   -3.5628 C.3     1  LIG1        0.0372
      2 O           2.9977   -1.3577   -2.6003 O.3     1  LIG1       -0.3757
      3 C           2.5361   -1.5819   -1.2664 C.3     1  LIG1        0.0790
      4 H           2.8574   -2.5862   -0.9602 H       1  LIG1        0.0641
      5 C           3.2625   -0.5783   -0.4014 C.2     1  LIG1       -0.0553
      6 C           2.7837    0.6636   -0.2059 C.2     1  LIG1       -0.0583
      7 C           1.5410    0.9966   -0.8328 C.2     1  LIG1       -0.0256
      8 C           1.2850    2.1107   -1.5357 C.2     1  LIG1       -0.0648
      9 C           0.0590    1.8922   -2.3562 C.3     1  LIG1        0.0188
     10 N          -0.1122    0.4248   -2.3327 N.3     1  LIG1       -0.2850
     11 C          -1.4661   -0.0349   -2.6030 C.3     1  LIG1        0.0043
     12 C          -2.4923    0.3167   -1.5264 C.3     1  LIG1       -0.0144
     13 C          -1.9601    0.1596   -0.1281 C.ar    1  LIG1       -0.0372
     14 C          -2.8556    0.2104    0.9503 C.ar    1  LIG1       -0.0128
     15 C          -2.4174    0.1595    2.2807 C.ar    1  LIG1        0.1618
     16 O          -3.4513    0.2090    3.1774 O.3     1  LIG1       -0.4914
     17 C          -3.1997    0.8053    4.4412 C.3     1  LIG1        0.0790
     18 C          -1.0499    0.0295    2.5445 C.ar    1  LIG1        0.1618
     19 O          -0.6135   -0.0752    3.8400 O.3     1  LIG1       -0.4914
     20 C           0.6933    0.4434    4.0873 C.3     1  LIG1        0.0790
     21 C          -0.1603   -0.0620    1.4631 C.ar    1  LIG1       -0.0108
     22 C          -0.5873    0.0325    0.1211 C.ar    1  LIG1       -0.0158
     23 C           0.4462   -0.0406   -1.0286 C.3     1  LIG1        0.0755
     24 C           1.0090   -1.4878   -1.0958 C.3     1  LIG1        0.0039
     25 H           3.0028   -2.0865   -4.5086 H       1  LIG1        0.0524
     26 H           1.4199   -2.0891   -3.7392 H       1  LIG1        0.0524
     27 H           2.6561   -3.2998   -3.2564 H       1  LIG1        0.0524
     28 H           4.2369   -0.8542   -0.0132 H       1  LIG1        0.0598
     29 H           3.3578    1.4237    0.3098 H       1  LIG1        0.0619
     30 H           1.9323    2.9658   -1.6317 H       1  LIG1        0.0588
     31 H           0.2134    2.2302   -3.3855 H       1  LIG1        0.0470
     32 H          -0.7769    2.4483   -1.9184 H       1  LIG1        0.0470
     33 H          -1.4434   -1.1253   -2.7252 H       1  LIG1        0.0430
     34 H          -1.8067    0.3516   -3.5718 H       1  LIG1        0.0430
     35 H          -3.3725   -0.3239   -1.6601 H       1  LIG1        0.0326
     36 H          -2.8188    1.3559   -1.6525 H       1  LIG1        0.0326
     37 H          -3.9220    0.3142    0.7584 H       1  LIG1        0.0658
     38 H          -2.6218    0.1422    5.0886 H       1  LIG1        0.0660
     39 H          -4.1712    0.9508    4.9264 H       1  LIG1        0.0660
     40 H          -2.7313    1.7904    4.3428 H       1  LIG1        0.0660
     41 H           0.8017    0.5824    5.1667 H       1  LIG1        0.0660
     42 H           0.8369    1.4193    3.6090 H       1  LIG1        0.0660
     43 H           1.4658   -0.2646    3.7679 H       1  LIG1        0.0660
     44 H           0.8962   -0.2284    1.6498 H       1  LIG1        0.0659
     45 H           0.4827   -2.0661   -1.8616 H       1  LIG1        0.0318
     46 H           0.7724   -2.0224   -0.1643 H       1  LIG1        0.0318
@<TRIPOS>BOND
     1     1     2    1
     2     3     5    1
     3     5     6    2
     4     6     7    1
     5     7     8    2
     6     8     9    1
     7     9    10    1
     8    10    11    1
     9    11    12    1
    10    12    13    1
    11    13    14   ar
    12    14    15   ar
    13    16    17    1
    14    15    18   ar
    15    19    20    1
    16    18    21   ar
    17    21    22   ar
    18    13    22   ar
    19    22    23    1
    20    10    23    1
    21     7    23    1
    22    23    24    1
    23     3    24    1
    24    15    16    1
    25    18    19    1
    26     3     4    1
    27     3     2    1
    28     1    25    1
    29     1    26    1
    30     1    27    1
    31     5    28    1
    32     6    29    1
    33     8    30    1
    34     9    31    1
    35     9    32    1
    36    11    33    1
    37    11    34    1
    38    12    35    1
    39    12    36    1
    40    14    37    1
    41    17    38    1
    42    17    39    1
    43    17    40    1
    44    20    41    1
    45    20    42    1
    46    20    43    1
    47    21    44    1
    48    24    45    1
    49    24    46    1
