@<TRIPOS>MOLECULE
NuBBE_555
 45 46 0 0 0
SMALL
GASTEIGER

@<TRIPOS>ATOM
      1 O          -2.1021   -1.6379    0.2122 O.3     1  LIG1       -0.3877
      2 C          -0.7739   -1.4213    0.6757 C.3     1  LIG1        0.0760
      3 H          -0.8123   -0.7070    1.5062 H       1  LIG1        0.0638
      4 C           0.1251   -0.8724   -0.4462 C.3     1  LIG1        0.0032
      5 C          -0.3268    0.5021   -0.9646 C.3     1  LIG1        0.0613
      6 H          -0.3549    1.2205   -0.1362 H       1  LIG1        0.0597
      7 O          -1.6566    0.3770   -1.4828 O.3     1  LIG1       -0.3914
      8 C           0.6266    0.9908   -2.0698 C.3     1  LIG1       -0.0084
      9 C           0.2347    2.3283   -2.6381 C.2     1  LIG1       -0.0821
     10 C           0.6850    3.5049   -2.1711 C.2     1  LIG1       -0.0475
     11 C           0.3178    4.8554   -2.7463 C.3     1  LIG1        0.1250
     12 H           0.7583    4.9129   -3.7494 H       1  LIG1        0.0782
     13 O           0.9834    5.8729   -1.9697 O.3     1  LIG1       -0.4538
     14 C           0.4428    6.3052   -0.8060 C.2     1  LIG1        0.3322
     15 C          -0.9803    6.0201   -0.5710 C.2     1  LIG1        0.0187
     16 C          -1.7598    5.5035   -1.5311 C.2     1  LIG1       -0.0735
     17 C          -1.1873    5.1348   -2.8601 C.3     1  LIG1        0.0067
     18 O           1.0933    6.9401    0.0264 O.2     1  LIG1       -0.2456
     19 C          -0.2879   -2.7644    1.1323 C.2     1  LIG1       -0.0553
     20 C           0.0948   -3.0802    2.3814 C.2     1  LIG1       -0.0561
     21 C           0.5590   -4.4245    2.7674 C.ar    1  LIG1       -0.0252
     22 C           0.3464   -4.8882    4.0726 C.ar    1  LIG1       -0.0546
     23 C           0.7968   -6.1552    4.4613 C.ar    1  LIG1       -0.0612
     24 C           1.4716   -6.9684    3.5526 C.ar    1  LIG1       -0.0617
     25 C           1.7051   -6.5132    2.2586 C.ar    1  LIG1       -0.0612
     26 C           1.2598   -5.2472    1.8732 C.ar    1  LIG1       -0.0546
     27 H          -2.2283   -1.0647   -0.5732 H       1  LIG1        0.2102
     28 H           0.1019   -1.5770   -1.2890 H       1  LIG1        0.0318
     29 H           1.1617   -0.8068   -0.0931 H       1  LIG1        0.0318
     30 H          -1.9604    1.2796   -1.6948 H       1  LIG1        0.2098
     31 H           0.6311    0.2741   -2.9010 H       1  LIG1        0.0332
     32 H           1.6524    1.0350   -1.6841 H       1  LIG1        0.0332
     33 H          -0.4286    2.3003   -3.5008 H       1  LIG1        0.0571
     34 H           1.3766    3.5099   -1.3297 H       1  LIG1        0.0605
     35 H          -1.3736    6.3133    0.3956 H       1  LIG1        0.0686
     36 H          -2.8211    5.3597   -1.3579 H       1  LIG1        0.0575
     37 H          -1.3606    5.9722   -3.5462 H       1  LIG1        0.0346
     38 H          -1.7222    4.2698   -3.2686 H       1  LIG1        0.0346
     39 H          -0.2976   -3.5299    0.3597 H       1  LIG1        0.0598
     40 H           0.0481   -2.3380    3.1742 H       1  LIG1        0.0621
     41 H          -0.1831   -4.2747    4.7980 H       1  LIG1        0.0623
     42 H           0.6188   -6.5088    5.4737 H       1  LIG1        0.0618
     43 H           1.8183   -7.9539    3.8520 H       1  LIG1        0.0618
     44 H           2.2357   -7.1383    1.5456 H       1  LIG1        0.0618
     45 H           1.4727   -4.9103    0.8623 H       1  LIG1        0.0623
@<TRIPOS>BOND
     1     2     4    1
     2     5     7    1
     3     5     8    1
     4     8     9    1
     5     9    10    2
     6    10    11    1
     7    11    12    1
     8    11    13    1
     9    13    14    1
    10    14    15    1
    11    15    16    2
    12    16    17    1
    13    11    17    1
    14    14    18    2
    15     2    19    1
    16    19    20    2
    17    20    21    1
    18    21    22   ar
    19    22    23   ar
    20    23    24   ar
    21    24    25   ar
    22    25    26   ar
    23    21    26   ar
    24     2     3    1
    25     2     1    1
    26     5     6    1
    27     5     4    1
    28     1    27    1
    29     4    28    1
    30     4    29    1
    31     7    30    1
    32     8    31    1
    33     8    32    1
    34     9    33    1
    35    10    34    1
    36    15    35    1
    37    16    36    1
    38    17    37    1
    39    17    38    1
    40    19    39    1
    41    20    40    1
    42    22    41    1
    43    23    42    1
    44    24    43    1
    45    25    44    1
    46    26    45    1
