REMARK  Name = NuBBE_50
REMARK  20 active torsions:
REMARK  status: ('A' for Active; 'I' for Inactive)
REMARK    1  A    between atoms: C_1  and  C_2
REMARK    2  A    between atoms: C_4  and  O_6
REMARK    3  A    between atoms: C_7  and  O_9
REMARK    4  A    between atoms: O_9  and  C_10
REMARK    5  A    between atoms: C_10  and  C_11
REMARK    6  A    between atoms: C_15  and  O_17
REMARK    7  A    between atoms: O_17  and  C_18
REMARK    8  A    between atoms: C_18  and  C_19
REMARK    9  A    between atoms: C_19  and  C_20
REMARK   10  A    between atoms: C_20  and  C_21
REMARK   11  A    between atoms: C_24  and  O_26
REMARK   12  A    between atoms: O_26  and  C_27
REMARK   13  A    between atoms: C_27  and  C_28
REMARK   14  A    between atoms: C_31  and  O_33
REMARK   15  A    between atoms: O_33  and  C_34
REMARK   16  A    between atoms: C_38  and  C_39
REMARK   17  A    between atoms: C_38  and  C_40
REMARK   18  A    between atoms: C_40  and  C_41
REMARK   19  A    between atoms: C_42  and  C_43
REMARK   20  A    between atoms: C_42  and  C_45
REMARK                            x       y       z     vdW  Elec       q    Type
REMARK                         _______ _______ _______ _____ _____    ______ ____
ROOT
ATOM      1  C   LIG A   1      -1.812   0.793   4.215  0.00  0.00    +0.011 C 
ATOM      2  C   LIG A   1      -1.104   0.310   2.934  0.00  0.00    +0.025 C 
ATOM      3  C   LIG A   1       0.416   0.382   3.101  0.00  0.00    +0.159 C 
ATOM      4  C   LIG A   1       1.200  -0.220   1.924  0.00  0.00    +0.222 C 
ATOM      5  C   LIG A   1       0.500  -0.304   0.502  0.00  0.00    +0.103 C 
ATOM      6  C   LIG A   1       0.727  -1.751   0.094  0.00  0.00    +0.013 C 
ATOM      7  C   LIG A   1       2.100  -1.899  -0.482  0.00  0.00    +0.343 C 
ATOM      8  O   LIG A   1       2.527  -0.558  -0.722  0.00  0.00    -0.297 OA
ATOM      9  C   LIG A   1       1.401   0.313  -0.609  0.00  0.00    +0.328 C 
ATOM     10  C   LIG A   1      -0.196  -2.731   0.182  0.00  0.00    +0.010 C 
ATOM     11  C   LIG A   1      -1.617  -2.455   0.516  0.00  0.00    +0.141 C 
ATOM     12  C   LIG A   1      -1.976  -1.052   0.002  0.00  0.00    +0.041 C 
ATOM     13  C   LIG A   1      -1.027   0.130   0.412  0.00  0.00    +0.018 C 
ATOM     14  C   LIG A   1      -1.564   1.016   1.613  0.00  0.00    -0.020 C 
ATOM     15  C   LIG A   1      -3.113   1.126   1.612  0.00  0.00    +0.012 C 
ENDROOT
BRANCH   3  16
ATOM     16  O   LIG A   1       0.766  -0.350   4.290  0.00  0.00    -0.388 OA
ATOM     17  H   LIG A   1       1.729  -0.277   4.419  0.00  0.00    +0.210 HD
ENDBRANCH   3  16
BRANCH  11  18
ATOM     18  O   LIG A   1      -2.471  -3.378  -0.176  0.00  0.00    -0.376 OA
ATOM     19  C   LIG A   1      -2.318  -4.734   0.238  0.00  0.00    +0.194 C 
ENDBRANCH  11  18
BRANCH   4  20
ATOM     20  O   LIG A   1       2.466   0.513   1.849  0.00  0.00    -0.458 OA
BRANCH  20  21
ATOM     21  C   LIG A   1       3.629  -0.204   1.935  0.00  0.00    +0.304 C 
ATOM     22  C   LIG A   1       4.806   0.627   1.511  0.00  0.00    +0.136 C 
ATOM     23  O   LIG A   1       3.704  -1.378   2.242  0.00  0.00    -0.251 OA
ENDBRANCH  20  21
ENDBRANCH   4  20
BRANCH   7  24
ATOM     24  O   LIG A   1       1.988  -2.710  -1.642  0.00  0.00    -0.431 OA
BRANCH  24  25
ATOM     25  C   LIG A   1       2.724  -2.375  -2.721  0.00  0.00    +0.309 C 
ATOM     26  O   LIG A   1       3.691  -1.633  -2.775  0.00  0.00    -0.251 OA
BRANCH  25  27
ATOM     27  C   LIG A   1       2.118  -3.042  -3.923  0.00  0.00    +0.120 C 
BRANCH  27  28
ATOM     28  C   LIG A   1       2.417  -4.530  -3.914  0.00  0.00    +0.008 C 
ATOM     29  C   LIG A   1       1.825  -5.211  -5.134  0.00  0.00    +0.004 C 
ENDBRANCH  27  28
ENDBRANCH  25  27
ENDBRANCH  24  25
ENDBRANCH   7  24
BRANCH   9  30
ATOM     30  O   LIG A   1       0.708   0.497  -1.856  0.00  0.00    -0.434 OA
BRANCH  30  31
ATOM     31  C   LIG A   1       1.363   1.324  -2.720  0.00  0.00    +0.306 C 
ATOM     32  C   LIG A   1       0.383   2.083  -3.562  0.00  0.00    +0.136 C 
ATOM     33  O   LIG A   1       2.558   1.580  -2.706  0.00  0.00    -0.251 OA
ENDBRANCH  30  31
ENDBRANCH   9  30
BRANCH  14  34
ATOM     34  C   LIG A   1      -1.018   2.504   1.507  0.00  0.00    +0.034 C 
BRANCH  34  35
ATOM     35  C   LIG A   1      -1.498   3.360   0.335  0.00  0.00    -0.023 C 
ATOM     36  C   LIG A   1      -2.122   4.561   0.361  0.00  0.00    -0.055 C 
ATOM     37  C   LIG A   1      -2.478   5.295  -0.918  0.00  0.00    +0.043 C 
BRANCH  36  38
ATOM     38  C   LIG A   1      -2.416   5.272   1.597  0.00  0.00    -0.005 C 
ATOM     39  C   LIG A   1      -3.402   6.162   1.774  0.00  0.00    +0.008 C 
ENDBRANCH  36  38
ENDBRANCH  34  35
ENDBRANCH  14  34
TORSDOF 13
