@<TRIPOS>MOLECULE
NuBBE_443
 51 53 0 0 0
SMALL
GASTEIGER

@<TRIPOS>ATOM
      1 H          -0.6024    2.1795   -3.5776 H       1  LIG1        0.0357
      2 C          -0.1249    2.0374   -2.5975 C.3     1  LIG1        0.0028
      3 C          -0.6277    0.7283   -1.9427 C.3     1  LIG1        0.0258
      4 C          -0.3916    0.7191   -0.4099 C.3     1  LIG1        0.1691
      5 H           0.6768    0.6126   -0.1831 H       1  LIG1        0.0915
      6 O          -0.8730    1.9194    0.1814 O.3     1  LIG1       -0.3218
      7 C          -0.1450    3.0537   -0.2747 C.3     1  LIG1        0.1726
      8 H           0.9258    2.9400   -0.0650 H       1  LIG1        0.0917
      9 C          -0.4396    3.2716   -1.7487 C.3     1  LIG1        0.1135
     10 H          -1.5190    3.4582   -1.8393 H       1  LIG1        0.0470
     11 C           0.2754    4.4989   -2.2508 C.2     1  LIG1        0.3133
     12 O          -0.5692    5.4189   -2.7663 O.3     1  LIG1       -0.4803
     13 O           1.4739    4.6944   -2.2580 O.2     1  LIG1       -0.2505
     14 O          -0.6218    4.1618    0.4736 O.3     1  LIG1       -0.3661
     15 O          -1.0795   -0.4198    0.1163 O.3     1  LIG1       -0.3197
     16 C          -0.9613   -0.5587    1.5384 C.3     1  LIG1        0.1908
     17 H          -1.3429    0.3355    2.0454 H       1  LIG1        0.0938
     18 O           0.4346   -0.7160    1.8531 O.3     1  LIG1       -0.3404
     19 C           0.6688   -1.5226    3.0073 C.3     1  LIG1        0.1130
     20 H           0.1025   -1.1252    3.8604 H       1  LIG1        0.0647
     21 C           0.2717   -2.9914    2.7342 C.3     1  LIG1        0.1119
     22 H           1.1035   -3.5347    2.2695 H       1  LIG1        0.0647
     23 C          -0.9509   -3.0684    1.8006 C.3     1  LIG1        0.1141
     24 H          -1.5507   -3.9471    2.0643 H       1  LIG1        0.0648
     25 O          -0.5263   -3.2566    0.4417 O.3     1  LIG1       -0.3864
     26 O          -0.0267   -3.6511    3.9722 O.3     1  LIG1       -0.3865
     27 C           2.1523   -1.4242    3.3817 C.3     1  LIG1        0.0730
     28 O           2.4450   -2.2458    4.5083 O.3     1  LIG1       -0.3924
     29 C          -1.8127   -1.7994    1.9467 C.3     1  LIG1        0.1342
     30 H          -2.6966   -1.8692    1.3026 H       1  LIG1        0.0671
     31 O          -2.2855   -1.6552    3.2969 O.3     1  LIG1       -0.3841
     32 H          -1.7012    0.6049   -2.1338 H       1  LIG1        0.0362
     33 C           1.3126    1.6731   -2.8784 C.2     1  LIG1       -0.0831
     34 C           1.4814    0.3452   -2.9251 C.2     1  LIG1       -0.0819
     35 C           0.2052   -0.3925   -2.6204 C.3     1  LIG1        0.0083
     36 H           0.3932   -1.2131   -1.9195 H       1  LIG1        0.0370
     37 C          -0.4344   -0.9550   -3.8959 C.3     1  LIG1        0.0509
     38 O          -1.6437   -1.6438   -3.6028 O.3     1  LIG1       -0.3944
     39 H           0.0093    6.1614   -3.0378 H       1  LIG1        0.2951
     40 H          -0.4323    3.9407    1.4009 H       1  LIG1        0.2125
     41 H          -0.1597   -2.4061    0.1307 H       1  LIG1        0.2100
     42 H           0.7788   -3.5571    4.5238 H       1  LIG1        0.2100
     43 H           2.7864   -1.7319    2.5428 H       1  LIG1        0.0584
     44 H           2.4093   -0.3859    3.6201 H       1  LIG1        0.0584
     45 H           3.3760   -2.0741    4.7418 H       1  LIG1        0.2095
     46 H          -2.4247   -2.5479    3.6674 H       1  LIG1        0.2101
     47 H           2.0930    2.3849   -3.1227 H       1  LIG1        0.0572
     48 H           2.4096   -0.1445   -3.1911 H       1  LIG1        0.0573
     49 H           0.2442   -1.6552   -4.3970 H       1  LIG1        0.0563
     50 H          -0.6723   -0.1610   -4.6116 H       1  LIG1        0.0563
     51 H          -1.4134   -2.4861   -3.1725 H       1  LIG1        0.2094
@<TRIPOS>BOND
     1     1     2    1
     2     2     3    1
     3     3     4    1
     4     4     5    1
     5     4     6    1
     6     6     7    1
     7     7     9    1
     8     9    10    1
     9     9    11    1
    10    11    12    1
    11    11    13    2
    12     4    15    1
    13    15    16    1
    14    16    17    1
    15    16    18    1
    16    18    19    1
    17    19    21    1
    18    21    22    1
    19    21    23    1
    20    21    26    1
    21    27    28    1
    22    16    29    1
    23    23    29    1
    24     3    32    1
    25     9     2    1
    26     2    33    1
    27    33    34    2
    28    34    35    1
    29    35    36    1
    30     3    35    1
    31    35    37    1
    32    37    38    1
    33     7    14    1
    34     7     8    1
    35    19    27    1
    36    19    20    1
    37    23    25    1
    38    23    24    1
    39    29    31    1
    40    29    30    1
    41    12    39    1
    42    14    40    1
    43    25    41    1
    44    26    42    1
    45    27    43    1
    46    27    44    1
    47    28    45    1
    48    31    46    1
    49    33    47    1
    50    34    48    1
    51    37    49    1
    52    37    50    1
    53    38    51    1
