@<TRIPOS>MOLECULE
NuBBE_2045
 60 62 0 0 0
SMALL
GASTEIGER

@<TRIPOS>ATOM
      1 O          -0.5418    1.9078    0.6556 O.3     1  LIG1       -0.3489
      2 C          -1.3604    2.8226   -0.0606 C.3     1  LIG1        0.0398
      3 C           0.7661    1.6244    0.0903 C.3     1  LIG1        0.2108
      4 C           1.5570    0.6424    1.0249 C.3     1  LIG1        0.1469
      5 O           2.9624    0.4599    0.7183 O.3     1  LIG1       -0.3668
      6 C           3.3684   -0.0192   -0.5589 C.3     1  LIG1        0.0378
      7 C           0.7218   -0.6235    0.7992 C.3     1  LIG1        0.0245
      8 H          -0.2585   -0.4933    1.2828 H       1  LIG1        0.0359
      9 C           0.5552   -0.5471   -0.7348 C.3     1  LIG1        0.0929
     10 H           1.3763   -0.9932   -1.2863 H       1  LIG1        0.0651
     11 O           0.5662    0.8655   -1.1153 O.3     1  LIG1       -0.3371
     12 C          -0.6151   -1.2863   -1.2857 C.ar    1  LIG1       -0.0113
     13 C          -0.5260   -2.6249   -1.6576 C.ar    1  LIG1       -0.0104
     14 C          -1.6628   -3.3132   -2.0834 C.ar    1  LIG1        0.1655
     15 O          -1.5952   -4.6481   -2.3769 O.3     1  LIG1       -0.4913
     16 C          -0.3911   -5.1678   -2.9288 C.3     1  LIG1        0.0790
     17 C          -2.9141   -2.6433   -2.1262 C.ar    1  LIG1        0.2035
     18 C          -2.9677   -1.2586   -1.8389 C.ar    1  LIG1        0.1655
     19 C          -1.8127   -0.6230   -1.4201 C.ar    1  LIG1       -0.0104
     20 O          -4.1513   -0.5575   -1.9434 O.3     1  LIG1       -0.4913
     21 C          -4.0636    0.8503   -1.6709 C.3     1  LIG1        0.0790
     22 O          -4.1294   -3.2181   -2.4155 O.3     1  LIG1       -0.4885
     23 C          -4.1887   -4.6223   -2.6297 C.3     1  LIG1        0.0791
     24 C           1.2762   -1.9454    1.3207 C.3     1  LIG1       -0.0566
     25 C           1.5611    1.2744    2.3984 C.2     1  LIG1       -0.0403
     26 C           1.6728    2.6169    2.5600 C.2     1  LIG1       -0.0021
     27 C           1.8395    3.4676    1.3326 C.2     1  LIG1        0.1645
     28 O           2.1983    4.6700    1.4533 O.2     1  LIG1       -0.2922
     29 C           1.5848    2.9015   -0.0458 C.3     1  LIG1        0.0675
     30 C           1.5733    3.3286    3.8853 C.3     1  LIG1       -0.0066
     31 C           2.9111    3.5209    4.5406 C.2     1  LIG1       -0.0867
     32 C           3.4406    4.7108    4.8544 C.2     1  LIG1       -0.1023
     33 H          -2.2812    2.9637    0.5136 H       1  LIG1        0.0525
     34 H          -1.6239    2.4382   -1.0465 H       1  LIG1        0.0525
     35 H          -0.9005    3.8039   -0.1752 H       1  LIG1        0.0525
     36 H           2.9357    0.5580   -1.3818 H       1  LIG1        0.0524
     37 H           3.1466   -1.0840   -0.6610 H       1  LIG1        0.0524
     38 H           4.4522    0.0452   -0.6567 H       1  LIG1        0.0524
     39 H           0.4364   -3.1231   -1.5792 H       1  LIG1        0.0659
     40 H           0.2450   -4.4171   -3.4088 H       1  LIG1        0.0660
     41 H          -0.6770   -5.8910   -3.6986 H       1  LIG1        0.0660
     42 H           0.1658   -5.7021   -2.1526 H       1  LIG1        0.0660
     43 H          -1.7990    0.4185   -1.1600 H       1  LIG1        0.0659
     44 H          -3.6157    1.0485   -0.6885 H       1  LIG1        0.0660
     45 H          -5.0653    1.2800   -1.6222 H       1  LIG1        0.0660
     46 H          -3.5040    1.3686   -2.4627 H       1  LIG1        0.0660
     47 H          -3.8160   -5.1916   -1.7696 H       1  LIG1        0.0660
     48 H          -3.6729   -4.8962   -3.5563 H       1  LIG1        0.0660
     49 H          -5.2391   -4.8980   -2.7546 H       1  LIG1        0.0660
     50 H           0.5017   -2.7207    1.2789 H       1  LIG1        0.0234
     51 H           1.5924   -1.8600    2.3650 H       1  LIG1        0.0234
     52 H           2.1228   -2.3165    0.7396 H       1  LIG1        0.0234
     53 H           1.4371    0.6316    3.2665 H       1  LIG1        0.0606
     54 H           2.5393    2.7302   -0.5531 H       1  LIG1        0.0399
     55 H           1.0596    3.6526   -0.6420 H       1  LIG1        0.0399
     56 H           1.0523    4.2892    3.7599 H       1  LIG1        0.0356
     57 H           0.9388    2.7527    4.5715 H       1  LIG1        0.0356
     58 H           3.4717    2.6196    4.7762 H       1  LIG1        0.0570
     59 H           2.9269    5.6434    4.6370 H       1  LIG1        0.0532
     60 H           4.4176    4.7776    5.3232 H       1  LIG1        0.0532
@<TRIPOS>BOND
     1     1     2    1
     2     3     4    1
     3     5     6    1
     4     4     7    1
     5     7     9    1
     6     9    11    1
     7     3    11    1
     8    12    13   ar
     9    13    14   ar
    10    14    15    1
    11    15    16    1
    12    14    17   ar
    13    17    18   ar
    14    18    19   ar
    15    12    19   ar
    16    18    20    1
    17    20    21    1
    18    17    22    1
    19    22    23    1
    20     4    25    1
    21    25    26    2
    22    26    27    1
    23    27    29    1
    24     3    29    1
    25    30    31    1
    26    31    32    2
    27     1     3    1
    28     4     5    1
    29     9    10    1
    30     9    12    1
    31    26    30    1
    32    27    28    2
    33     7    24    1
    34     7     8    1
    35     2    33    1
    36     2    34    1
    37     2    35    1
    38     6    36    1
    39     6    37    1
    40     6    38    1
    41    13    39    1
    42    16    40    1
    43    16    41    1
    44    16    42    1
    45    19    43    1
    46    21    44    1
    47    21    45    1
    48    21    46    1
    49    23    47    1
    50    23    48    1
    51    23    49    1
    52    24    50    1
    53    24    51    1
    54    24    52    1
    55    25    53    1
    56    29    54    1
    57    29    55    1
    58    30    56    1
    59    30    57    1
    60    31    58    1
    61    32    59    1
    62    32    60    1
