REMARK  Name = NuBBE_2084
REMARK  5 active torsions:
REMARK  status: ('A' for Active; 'I' for Inactive)
REMARK    1  A    between atoms: C_1  and  C_2
REMARK    2  A    between atoms: C_1  and  C_18
REMARK    3  A    between atoms: C_11  and  O_13
REMARK    4  A    between atoms: O_13  and  C_14
REMARK    5  A    between atoms: C_21  and  O_24
REMARK                            x       y       z     vdW  Elec       q    Type
REMARK                         _______ _______ _______ _____ _____    ______ ____
ROOT
ATOM      1  C   LIG A   1       2.619   0.743  -0.069  0.00  0.00    +0.069 A 
ATOM      2  C   LIG A   1       1.263   0.871   0.263  0.00  0.00    +0.069 A 
ATOM      3  C   LIG A   1       0.603   2.095   0.327  0.00  0.00    +0.011 A 
ATOM      4  C   LIG A   1      -0.777   1.828   0.605  0.00  0.00    +0.011 A 
ATOM      5  C   LIG A   1      -0.917   0.450   0.722  0.00  0.00    +0.048 A 
ATOM      6  N   LIG A   1       0.329  -0.098   0.560  0.00  0.00    -0.353 N 
ATOM      7  H   LIG A   1       0.518  -1.085   0.599  0.00  0.00    +0.166 HD
ATOM      8  C   LIG A   1      -2.140  -0.180   0.957  0.00  0.00    +0.030 A 
ATOM      9  C   LIG A   1      -3.270   0.633   1.082  0.00  0.00    +0.048 A 
ATOM     10  C   LIG A   1      -3.174   2.022   0.986  0.00  0.00    +0.121 A 
ATOM     11  C   LIG A   1      -1.931   2.627   0.750  0.00  0.00    +0.056 A 
ATOM     12  C   LIG A   1       1.344   3.264   0.098  0.00  0.00    +0.030 A 
ATOM     13  C   LIG A   1       2.688   3.096  -0.186  0.00  0.00    +0.112 A 
ATOM     14  N   LIG A   1       3.317   1.902  -0.273  0.00  0.00    -0.258 NA
ENDROOT
BRANCH  10  15
ATOM     15  O   LIG A   1      -4.221   2.899   1.099  0.00  0.00    -0.495 OA
ATOM     16  C   LIG A   1      -5.501   2.333   1.355  0.00  0.00    +0.277 C 
ENDBRANCH  10  15
BRANCH   1  17
ATOM     17  C   LIG A   1       3.389  -0.555  -0.180  0.00  0.00    +0.092 C 
BRANCH  17  18
ATOM     18  C   LIG A   1       2.604  -1.767  -0.650  0.00  0.00    -0.041 A 
ATOM     19  C   LIG A   1       1.931  -1.754  -1.884  0.00  0.00    +0.007 A 
ATOM     20  C   LIG A   1       1.217  -2.873  -2.319  0.00  0.00    +0.045 A 
ATOM     21  C   LIG A   1       1.183  -4.014  -1.526  0.00  0.00    +0.117 A 
ATOM     22  C   LIG A   1       1.837  -4.047  -0.300  0.00  0.00    +0.045 A 
ATOM     23  C   LIG A   1       2.542  -2.925   0.141  0.00  0.00    +0.007 A 
BRANCH  21  24
ATOM     24  O   LIG A   1       0.514  -5.135  -1.919  0.00  0.00    -0.507 OA
ATOM     25  H   LIG A   1       0.107  -4.965  -2.785  0.00  0.00    +0.292 HD
ENDBRANCH  21  24
ENDBRANCH  17  18
ENDBRANCH   1  17
TORSDOF 4
