REMARK  Name = NuBBE_2243
REMARK  9 active torsions:
REMARK  status: ('A' for Active; 'I' for Inactive)
REMARK    1  A    between atoms: C_1  and  C_2
REMARK    2  A    between atoms: C_2  and  C_3
REMARK    3  A    between atoms: C_11  and  O_12
REMARK    4  A    between atoms: C_14  and  C_15
REMARK    5  A    between atoms: C_16  and  O_18
REMARK    6  A    between atoms: O_18  and  C_19
REMARK    7  A    between atoms: C_19  and  C_20
REMARK    8  A    between atoms: C_23  and  C_24
REMARK    9  A    between atoms: C_23  and  C_25
REMARK                            x       y       z     vdW  Elec       q    Type
REMARK                         _______ _______ _______ _____ _____    ______ ____
ROOT
ATOM      1  C   LIG A   1      -0.725   0.761   4.619  0.00  0.00    +0.014 C 
ATOM      2  C   LIG A   1      -0.066  -0.046   3.475  0.00  0.00    +0.001 C 
ATOM      3  C   LIG A   1       1.448  -0.227   3.733  0.00  0.00    +0.014 C 
ATOM      4  C   LIG A   1      -0.727  -1.451   3.598  0.00  0.00    +0.010 C 
ATOM      5  C   LIG A   1      -0.459  -2.339   2.406  0.00  0.00    +0.003 C 
ATOM      6  C   LIG A   1      -1.151  -1.780   1.179  0.00  0.00    +0.039 C 
ATOM      7  C   LIG A   1      -0.768  -0.337   0.896  0.00  0.00    +0.117 C 
ATOM      8  O   LIG A   1      -1.663   0.530   1.654  0.00  0.00    -0.355 OA
ATOM      9  C   LIG A   1      -0.300   0.612   2.061  0.00  0.00    +0.133 C 
ATOM     10  C   LIG A   1       0.490   1.848   1.660  0.00  0.00    +0.022 C 
ATOM     11  C   LIG A   1       0.748   2.055   0.227  0.00  0.00    +0.122 C 
ATOM     12  C   LIG A   1       0.323   1.284  -0.785  0.00  0.00    -0.015 C 
ATOM     13  C   LIG A   1      -0.629   0.114  -0.614  0.00  0.00    +0.062 C 
ATOM     14  C   LIG A   1      -2.006   0.655  -1.039  0.00  0.00    +0.022 C 
ATOM     15  C   LIG A   1      -0.216  -1.104  -1.575  0.00  0.00    +0.190 C 
ATOM     16  C   LIG A   1       0.590  -0.814  -2.856  0.00  0.00    +0.056 C 
ATOM     17  C   LIG A   1       1.527   0.400  -2.832  0.00  0.00    -0.007 C 
ATOM     18  C   LIG A   1       1.844   0.780  -4.299  0.00  0.00    +0.016 C 
ATOM     19  C   LIG A   1       0.741   1.580  -2.215  0.00  0.00    +0.046 C 
ATOM     20  C   LIG A   1       0.979   2.766   2.521  0.00  0.00    +0.019 C 
ENDROOT
BRANCH  11  21
ATOM     21  O   LIG A   1       1.458   3.202  -0.095  0.00  0.00    -0.506 OA
ATOM     22  H   LIG A   1       0.930   3.942   0.255  0.00  0.00    +0.292 HD
ENDBRANCH  11  21
BRANCH  17  23
ATOM     23  C   LIG A   1       2.802   0.094  -2.047  0.00  0.00    -0.028 C 
ATOM     24  C   LIG A   1       3.971  -0.331  -2.546  0.00  0.00    +0.004 C 
ENDBRANCH  17  23
BRANCH  15  25
ATOM     25  O   LIG A   1      -1.408  -1.929  -1.896  0.00  0.00    -0.461 OA
BRANCH  25  26
ATOM     26  C   LIG A   1      -2.347  -1.558  -2.820  0.00  0.00    +0.304 C 
ATOM     27  C   LIG A   1      -3.728  -1.743  -2.266  0.00  0.00    +0.136 C 
ATOM     28  O   LIG A   1      -2.148  -0.967  -3.902  0.00  0.00    -0.251 OA
ENDBRANCH  25  26
ENDBRANCH  15  25
TORSDOF 4
