@<TRIPOS>MOLECULE
NuBBE_1135
 30 32 0 0 0
SMALL
GASTEIGER

@<TRIPOS>ATOM
      1 C          -5.6697    0.6818    0.1690 C.3     1  LIG1        0.0369
      2 O          -4.2688    0.5006    0.3129 O.3     1  LIG1       -0.3783
      3 C          -3.9197   -0.8836    0.3747 C.3     1  LIG1        0.0753
      4 C          -2.4487   -1.0635    0.5026 C.ar    1  LIG1        0.0164
      5 C          -1.7880   -2.0950    1.1348 C.ar    1  LIG1        0.0979
      6 O          -0.4446   -1.9348    1.0507 O.2     1  LIG1       -0.4626
      7 C          -0.2090   -0.7804    0.3546 C.ar    1  LIG1        0.1351
      8 C           1.1922   -0.4121    0.1564 C.ar    1  LIG1        0.0179
      9 C           2.2284   -1.2074    0.6679 C.ar    1  LIG1       -0.0491
     10 C           3.5785   -0.8770    0.4911 C.ar    1  LIG1       -0.0371
     11 C           3.8678    0.2881   -0.2230 C.ar    1  LIG1        0.0465
     12 N           5.0797    0.8538   -0.5486 N.ar    1  LIG1       -0.3606
     13 H           5.9785    0.4681   -0.2937 H       1  LIG1        0.1653
     14 C           4.8869    2.0060   -1.2637 C.ar    1  LIG1        0.0027
     15 C           3.5304    2.1923   -1.4027 C.ar    1  LIG1       -0.0366
     16 C           2.8749    1.1119   -0.7490 C.ar    1  LIG1        0.0003
     17 C           1.5237    0.7562   -0.5550 C.ar    1  LIG1       -0.0419
     18 C          -1.4187   -0.2197   -0.0068 C.ar    1  LIG1       -0.0105
     19 H          -5.8791    1.7548    0.1670 H       1  LIG1        0.0524
     20 H          -6.2059    0.2232    1.0055 H       1  LIG1        0.0524
     21 H          -6.0142    0.2569   -0.7786 H       1  LIG1        0.0524
     22 H          -4.2637   -1.3865   -0.5370 H       1  LIG1        0.0611
     23 H          -4.4235   -1.3388    1.2360 H       1  LIG1        0.0611
     24 H          -2.1150   -2.9763    1.6686 H       1  LIG1        0.1033
     25 H           1.9920   -2.1135    1.2236 H       1  LIG1        0.0625
     26 H           4.3615   -1.5088    0.8970 H       1  LIG1        0.0638
     27 H           5.7279    2.5913   -1.6099 H       1  LIG1        0.0807
     28 H           3.0565    3.0162   -1.9194 H       1  LIG1        0.0638
     29 H           0.7502    1.3990   -0.9635 H       1  LIG1        0.0631
     30 H          -1.5604    0.6972   -0.5618 H       1  LIG1        0.0659
@<TRIPOS>BOND
     1     1     2    1
     2     2     3    1
     3     3     4    1
     4     4     5   ar
     5     5     6   ar
     6     6     7   ar
     7     7     8    1
     8     8     9   ar
     9     9    10   ar
    10    10    11   ar
    11    11    12   ar
    12    12    13    1
    13    12    14   ar
    14    14    15   ar
    15    11    16   ar
    16    15    16   ar
    17    16    17   ar
    18     8    17   ar
    19     7    18   ar
    20     4    18   ar
    21     1    19    1
    22     1    20    1
    23     1    21    1
    24     3    22    1
    25     3    23    1
    26     5    24    1
    27     9    25    1
    28    10    26    1
    29    14    27    1
    30    15    28    1
    31    17    29    1
    32    18    30    1
