@<TRIPOS>MOLECULE
NuBBE_668
 17 17 0 0 0
SMALL
GASTEIGER

@<TRIPOS>ATOM
      1 C          -2.4990   -0.0903   -0.0027 C.3     1  LIG1       -0.0395
      2 C          -0.9996   -0.0554   -0.0016 C.ar    1  LIG1       -0.0436
      3 C          -0.3052    1.1618   -0.0015 C.ar    1  LIG1       -0.0170
      4 C           1.0891    1.1641    0.0004 C.ar    1  LIG1        0.1206
      5 O           1.7946    2.3324   -0.0001 O.3     1  LIG1       -0.5066
      6 C           1.8102   -0.0243    0.0030 C.ar    1  LIG1        0.0213
      7 C           1.1183   -1.2298    0.0024 C.ar    1  LIG1        0.1206
      8 O           1.7753   -2.4253    0.0048 O.3     1  LIG1       -0.5066
      9 C          -0.2740   -1.2547   -0.0004 C.ar    1  LIG1       -0.0170
     10 H          -2.9237    0.9190   -0.0016 H       1  LIG1        0.0278
     11 H          -2.8650   -0.6089    0.8892 H       1  LIG1        0.0278
     12 H          -2.8640   -0.6068   -0.8962 H       1  LIG1        0.0278
     13 H          -0.8580    2.0966   -0.0025 H       1  LIG1        0.0657
     14 H           1.1656    3.0726   -0.0063 H       1  LIG1        0.2921
     15 H           2.8940    0.0099    0.0049 H       1  LIG1        0.0691
     16 H           2.7306   -2.2486    0.0093 H       1  LIG1        0.2921
     17 H          -0.7891   -2.2121   -0.0011 H       1  LIG1        0.0657
@<TRIPOS>BOND
     1     1     2    1
     2     2     3   ar
     3     3     4   ar
     4     4     5    1
     5     4     6   ar
     6     6     7   ar
     7     7     8    1
     8     7     9   ar
     9     2     9   ar
    10     1    10    1
    11     1    11    1
    12     1    12    1
    13     3    13    1
    14     5    14    1
    15     6    15    1
    16     8    16    1
    17     9    17    1
