REMARK  Name = NuBBE_535
REMARK  12 active torsions:
REMARK  status: ('A' for Active; 'I' for Inactive)
REMARK    1  A    between atoms: O_1  and  C_2
REMARK    2  A    between atoms: C_4  and  O_5
REMARK    3  A    between atoms: C_8  and  O_9
REMARK    4  A    between atoms: O_9  and  C_10
REMARK    5  A    between atoms: C_13  and  C_21
REMARK    6  A    between atoms: C_15  and  O_20
REMARK    7  A    between atoms: C_17  and  O_19
REMARK    8  A    between atoms: C_21  and  O_22
REMARK    9  A    between atoms: C_23  and  O_25
REMARK   10  A    between atoms: C_26  and  C_30
REMARK   11  A    between atoms: C_32  and  O_33
REMARK   12  A    between atoms: C_34  and  O_37
REMARK                            x       y       z     vdW  Elec       q    Type
REMARK                         _______ _______ _______ _____ _____    ______ ____
ROOT
ATOM      1  C   LIG A   1       0.176  -5.817   1.640  0.00  0.00    +0.124 A 
ATOM      2  C   LIG A   1       0.909  -5.922   0.463  0.00  0.00    +0.091 A 
ATOM      3  C   LIG A   1       1.174  -4.764  -0.287  0.00  0.00    +0.135 A 
ATOM      4  C   LIG A   1       0.702  -3.517   0.143  0.00  0.00    +0.109 A 
ATOM      5  C   LIG A   1       0.986  -2.235  -0.538  0.00  0.00    +0.238 A 
ATOM      6  C   LIG A   1       0.098  -1.061  -0.245  0.00  0.00    +0.214 A 
ATOM      7  C   LIG A   1      -0.672  -1.187   0.864  0.00  0.00    +0.181 A 
ATOM      8  O   LIG A   1      -0.624  -2.281   1.730  0.00  0.00    -0.451 OA
ATOM      9  C   LIG A   1      -0.071  -3.448   1.290  0.00  0.00    +0.146 A 
ATOM     10  C   LIG A   1      -0.324  -4.590   2.056  0.00  0.00    +0.092 A 
ATOM     11  O   LIG A   1       1.953  -2.101  -1.299  0.00  0.00    -0.283 OA
ENDROOT
BRANCH   7  12
ATOM     12  C   LIG A   1      -1.692  -0.251   1.360  0.00  0.00    +0.025 A 
ATOM     13  C   LIG A   1      -1.418   0.523   2.498  0.00  0.00    +0.060 A 
ATOM     14  C   LIG A   1      -2.368   1.433   2.948  0.00  0.00    +0.159 A 
ATOM     15  C   LIG A   1      -3.602   1.537   2.314  0.00  0.00    +0.158 A 
ATOM     16  C   LIG A   1      -3.913   0.732   1.228  0.00  0.00    +0.050 A 
ATOM     17  C   LIG A   1      -2.954  -0.166   0.747  0.00  0.00    +0.015 A 
BRANCH  14  18
ATOM     18  O   LIG A   1      -2.119   2.270   4.000  0.00  0.00    -0.503 OA
ATOM     19  H   LIG A   1      -1.158   2.269   4.157  0.00  0.00    +0.292 HD
ENDBRANCH  14  18
BRANCH  15  20
ATOM     20  O   LIG A   1      -4.513   2.458   2.746  0.00  0.00    -0.503 OA
ATOM     21  H   LIG A   1      -4.059   2.928   3.474  0.00  0.00    +0.292 HD
ENDBRANCH  15  20
ENDBRANCH   7  12
BRANCH   1  22
ATOM     22  O   LIG A   1      -0.089  -6.904   2.419  0.00  0.00    -0.506 OA
ATOM     23  H   LIG A   1       0.378  -7.680   2.068  0.00  0.00    +0.292 HD
ENDBRANCH   1  22
BRANCH   3  24
ATOM     24  O   LIG A   1       1.860  -4.885  -1.460  0.00  0.00    -0.506 OA
ATOM     25  H   LIG A   1       2.123  -5.806  -1.611  0.00  0.00    +0.292 HD
ENDBRANCH   3  24
BRANCH   6  26
ATOM     26  O   LIG A   1       0.215  -0.027  -1.166  0.00  0.00    -0.453 OA
BRANCH  26  27
ATOM     27  C   LIG A   1      -0.011   1.343  -0.822  0.00  0.00    +0.340 C 
ATOM     28  O   LIG A   1      -0.473   2.095  -1.960  0.00  0.00    -0.331 OA
ATOM     29  C   LIG A   1       0.454   2.822  -2.776  0.00  0.00    +0.179 C 
ATOM     30  C   LIG A   1       1.516   3.576  -1.969  0.00  0.00    +0.177 C 
ATOM     31  C   LIG A   1       2.216   2.610  -1.019  0.00  0.00    +0.180 C 
ATOM     32  C   LIG A   1       1.197   1.959  -0.076  0.00  0.00    +0.214 C 
BRANCH  31  33
ATOM     33  O   LIG A   1       3.176   3.354  -0.245  0.00  0.00    -0.386 OA
ATOM     34  H   LIG A   1       2.713   3.604   0.580  0.00  0.00    +0.210 HD
ENDBRANCH  31  33
BRANCH  30  35
ATOM     35  O   LIG A   1       0.885   4.617  -1.187  0.00  0.00    -0.387 OA
ATOM     36  H   LIG A   1       1.626   5.168  -0.864  0.00  0.00    +0.210 HD
ENDBRANCH  30  35
BRANCH  32  37
ATOM     37  O   LIG A   1       0.747   2.978   0.855  0.00  0.00    -0.383 OA
ATOM     38  H   LIG A   1       0.307   3.664   0.299  0.00  0.00    +0.210 HD
ENDBRANCH  32  37
BRANCH  29  39
ATOM     39  C   LIG A   1       1.066   1.956  -3.888  0.00  0.00    +0.190 C 
BRANCH  39  40
ATOM     40  O   LIG A   1       1.963   2.735  -4.678  0.00  0.00    -0.392 OA
ATOM     41  H   LIG A   1       2.260   2.180  -5.421  0.00  0.00    +0.209 HD
ENDBRANCH  39  40
ENDBRANCH  29  39
ENDBRANCH  26  27
ENDBRANCH   6  26
TORSDOF 12
