REMARK  Name = NuBBE_39
REMARK  12 active torsions:
REMARK  status: ('A' for Active; 'I' for Inactive)
REMARK    1  A    between atoms: C_2  and  O_3
REMARK    2  A    between atoms: C_2  and  C_20
REMARK    3  A    between atoms: O_3  and  C_4
REMARK    4  A    between atoms: C_7  and  O_8
REMARK    5  A    between atoms: C_7  and  C_9
REMARK    6  A    between atoms: C_9  and  O_10
REMARK    7  A    between atoms: O_10  and  C_11
REMARK    8  A    between atoms: C_14  and  O_16
REMARK    9  A    between atoms: C_17  and  O_19
REMARK   10  A    between atoms: C_21  and  C_22
REMARK   11  A    between atoms: C_24  and  O_25
REMARK   12  A    between atoms: C_26  and  O_27
REMARK                            x       y       z     vdW  Elec       q    Type
REMARK                         _______ _______ _______ _____ _____    ______ ____
ROOT
ATOM      1  C   LIG A   1      -0.515  -1.666  -0.091  0.00  0.00    +0.211 C 
ATOM      2  C   LIG A   1      -0.298  -1.736   1.428  0.00  0.00    +0.093 C 
ATOM      3  C   LIG A   1      -0.793  -3.060   2.018  0.00  0.00    +0.168 C 
ATOM      4  C   LIG A   1      -0.154  -4.263   1.307  0.00  0.00    +0.080 C 
ATOM      5  C   LIG A   1      -0.354  -4.207  -0.204  0.00  0.00    +0.150 C 
ATOM      6  C   LIG A   1       0.131  -2.876  -0.793  0.00  0.00    +0.184 C 
ENDROOT
BRANCH   3   7
ATOM      7  O   LIG A   1      -2.211  -3.151   1.799  0.00  0.00    -0.377 OA
ATOM      8  H   LIG A   1      -2.631  -2.615   2.505  0.00  0.00    +0.211 HD
ENDBRANCH   3   7
BRANCH   3   9
ATOM      9  C   LIG A   1      -0.459  -3.120   3.523  0.00  0.00    +0.339 C 
ATOM     10  O   LIG A   1       0.564  -3.590   4.003  0.00  0.00    -0.248 OA
BRANCH   9  11
ATOM     11  O   LIG A   1      -1.481  -2.560   4.236  0.00  0.00    -0.466 OA
ATOM     12  C   LIG A   1      -1.333  -2.652   5.654  0.00  0.00    +0.280 C 
ENDBRANCH   9  11
ENDBRANCH   3   9
BRANCH   5  13
ATOM     13  O   LIG A   1      -1.735  -4.389  -0.553  0.00  0.00    -0.389 OA
ATOM     14  H   LIG A   1      -2.279  -4.024   0.179  0.00  0.00    +0.210 HD
ENDBRANCH   5  13
BRANCH   6  15
ATOM     15  O   LIG A   1      -0.187  -2.850  -2.192  0.00  0.00    -0.386 OA
ATOM     16  H   LIG A   1      -1.044  -3.319  -2.273  0.00  0.00    +0.210 HD
ENDBRANCH   6  15
BRANCH   1  17
ATOM     17  O   LIG A   1       0.111  -0.476  -0.619  0.00  0.00    -0.456 OA
BRANCH  17  19
ATOM     18  O   LIG A   1      -1.672   0.820   0.040  0.00  0.00    -0.246 OA
ATOM     19  C   LIG A   1      -0.607   0.664  -0.540  0.00  0.00    +0.332 C 
BRANCH  19  20
ATOM     20  C   LIG A   1       0.113   1.709  -1.289  0.00  0.00    +0.092 C 
ATOM     21  C   LIG A   1      -0.162   3.008  -1.110  0.00  0.00    +0.015 C 
BRANCH  21  22
ATOM     22  C   LIG A   1       0.505   4.078  -1.870  0.00  0.00    -0.021 A 
ATOM     23  C   LIG A   1       1.838   3.957  -2.298  0.00  0.00    +0.057 A 
ATOM     24  C   LIG A   1       2.423   4.978  -3.038  0.00  0.00    +0.159 A 
ATOM     25  C   LIG A   1       1.704   6.128  -3.343  0.00  0.00    +0.158 A 
ATOM     26  C   LIG A   1       0.397   6.281  -2.909  0.00  0.00    +0.050 A 
ATOM     27  C   LIG A   1      -0.201   5.257  -2.166  0.00  0.00    +0.012 A 
BRANCH  24  28
ATOM     28  O   LIG A   1       3.710   4.889  -3.495  0.00  0.00    -0.503 OA
ATOM     29  H   LIG A   1       4.074   4.032  -3.213  0.00  0.00    +0.292 HD
ENDBRANCH  24  28
BRANCH  25  30
ATOM     30  O   LIG A   1       2.287   7.119  -4.079  0.00  0.00    -0.503 OA
ATOM     31  H   LIG A   1       3.186   6.785  -4.270  0.00  0.00    +0.292 HD
ENDBRANCH  25  30
ENDBRANCH  21  22
ENDBRANCH  19  20
ENDBRANCH  17  19
ENDBRANCH   1  17
TORSDOF 11
