@<TRIPOS>MOLECULE
NuBBE_146
 81 85 0 0 0
SMALL
GASTEIGER

@<TRIPOS>ATOM
      1 C          -5.6754   -0.0065   -1.7087 C.3     1  LIG1       -0.0572
      2 C          -4.7735    1.0929   -1.0794 C.3     1  LIG1       -0.0056
      3 C          -4.6084    2.2235   -2.1400 C.3     1  LIG1        0.0606
      4 H          -4.3340    1.7789   -3.1058 H       1  LIG1        0.0599
      5 C          -3.5397    3.2504   -1.7856 C.3     1  LIG1       -0.0258
      6 C          -2.1863    2.6129   -1.4809 C.3     1  LIG1       -0.0447
      7 C          -2.2297    1.5231   -0.3659 C.3     1  LIG1       -0.0252
      8 C          -3.3517    0.4883   -0.7617 C.3     1  LIG1       -0.0278
      9 H          -3.0238    0.0729   -1.7300 H       1  LIG1        0.0312
     10 C          -3.3615   -0.7208    0.1978 C.3     1  LIG1       -0.0486
     11 C          -2.0173   -1.4581    0.1831 C.3     1  LIG1       -0.0466
     12 C          -0.7877   -0.5775    0.5416 C.3     1  LIG1       -0.0231
     13 C          -0.8400    0.7325   -0.3526 C.3     1  LIG1       -0.0294
     14 C           0.4017    1.6247   -0.1283 C.3     1  LIG1       -0.0489
     15 C           1.7173    0.8781   -0.3630 C.3     1  LIG1       -0.0491
     16 C           1.8210   -0.3764    0.5045 C.3     1  LIG1       -0.0307
     17 H           1.7416   -0.0090    1.5315 H       1  LIG1        0.0309
     18 C           0.6116   -1.3709    0.2637 C.3     1  LIG1       -0.0232
     19 C           0.7794   -2.6310    1.1938 C.3     1  LIG1       -0.0458
     20 C           2.1951   -3.2439    1.2494 C.3     1  LIG1       -0.0364
     21 C           3.2631   -2.1743    1.5412 C.3     1  LIG1        0.0712
     22 C           3.1729   -1.1242    0.4145 C.3     1  LIG1       -0.0154
     23 H           3.1812   -1.6873   -0.5225 H       1  LIG1        0.0320
     24 C           4.5262   -0.3716    0.4322 C.3     1  LIG1       -0.0163
     25 H           4.4462    0.4943    1.1017 H       1  LIG1        0.0348
     26 C           5.5056   -1.4077    1.0547 C.3     1  LIG1       -0.0452
     27 C           4.6990   -2.6695    1.3855 C.3     1  LIG1       -0.0364
     28 C           5.0815    0.1460   -0.8987 C.2     1  LIG1       -0.0763
     29 C           6.3663    0.9353   -0.8039 C.3     1  LIG1       -0.0438
     30 C           4.5301   -0.0526   -2.1094 C.2     1  LIG1       -0.0994
     31 C           3.0987   -1.6867    2.9878 C.2     1  LIG1        0.3112
     32 O           3.4805   -0.4178    3.2099 O.3     1  LIG1       -0.4802
     33 O           2.7146   -2.3634    3.9336 O.2     1  LIG1       -0.2504
     34 C           0.6518   -1.9192   -1.2025 C.3     1  LIG1       -0.0588
     35 H          -0.7445    0.3846   -1.3903 H       1  LIG1        0.0312
     36 C          -0.9023   -0.2407    2.0580 C.3     1  LIG1       -0.0588
     37 C          -2.4978    2.2493    0.9751 C.3     1  LIG1       -0.0590
     38 O          -5.8248    2.9430   -2.3435 O.3     1  LIG1       -0.3912
     39 C          -5.5282    1.5987    0.1664 C.3     1  LIG1       -0.0572
     40 H          -5.1864   -0.4744   -2.5703 H       1  LIG1        0.0236
     41 H          -6.6316    0.4002   -2.0548 H       1  LIG1        0.0236
     42 H          -5.9238   -0.7940   -0.9906 H       1  LIG1        0.0236
     43 H          -3.8804    3.8814   -0.9573 H       1  LIG1        0.0290
     44 H          -3.4236    3.9482   -2.6256 H       1  LIG1        0.0290
     45 H          -1.4956    3.4178   -1.2036 H       1  LIG1        0.0271
     46 H          -1.7976    2.1746   -2.4094 H       1  LIG1        0.0271
     47 H          -4.1165   -1.4497   -0.1127 H       1  LIG1        0.0268
     48 H          -3.6308   -0.4289    1.2157 H       1  LIG1        0.0268
     49 H          -1.9129   -1.8695   -0.8253 H       1  LIG1        0.0271
     50 H          -2.0793   -2.3191    0.8595 H       1  LIG1        0.0271
     51 H           0.4100    2.0417    0.8834 H       1  LIG1        0.0268
     52 H           0.3926    2.4780   -0.8131 H       1  LIG1        0.0268
     53 H           2.5386    1.5649   -0.1278 H       1  LIG1        0.0268
     54 H           1.8059    0.6334   -1.4252 H       1  LIG1        0.0268
     55 H           0.0759   -3.4155    0.8881 H       1  LIG1        0.0271
     56 H           0.5225   -2.3880    2.2254 H       1  LIG1        0.0271
     57 H           2.4094   -3.7484    0.2992 H       1  LIG1        0.0276
     58 H           2.2141   -4.0306    2.0142 H       1  LIG1        0.0276
     59 H           5.9413   -0.9880    1.9699 H       1  LIG1        0.0271
     60 H           6.3409   -1.6748    0.3982 H       1  LIG1        0.0271
     61 H           5.0918   -3.1630    2.2813 H       1  LIG1        0.0276
     62 H           4.7812   -3.3789    0.5532 H       1  LIG1        0.0276
     63 H           7.1214    0.3964   -0.2238 H       1  LIG1        0.0274
     64 H           6.1841    1.9013   -0.3245 H       1  LIG1        0.0274
     65 H           6.8042    1.1224   -1.7909 H       1  LIG1        0.0274
     66 H           3.6121   -0.6064   -2.2635 H       1  LIG1        0.0534
     67 H           4.9846    0.3494   -3.0107 H       1  LIG1        0.0534
     68 H           3.3289   -0.2891    4.1700 H       1  LIG1        0.2951
     69 H           1.5857   -2.4334   -1.4401 H       1  LIG1        0.0235
     70 H           0.5317   -1.1390   -1.9565 H       1  LIG1        0.0235
     71 H          -0.1242   -2.6702   -1.3759 H       1  LIG1        0.0235
     72 H          -1.8379    0.2463    2.3179 H       1  LIG1        0.0235
     73 H          -0.1006    0.4076    2.4161 H       1  LIG1        0.0235
     74 H          -0.9096   -1.1391    2.6800 H       1  LIG1        0.0235
     75 H          -3.0185    3.2013    0.8469 H       1  LIG1        0.0235
     76 H          -1.5754    2.5067    1.5008 H       1  LIG1        0.0235
     77 H          -3.1175    1.6654    1.6576 H       1  LIG1        0.0235
     78 H          -6.4516    2.3538   -2.7942 H       1  LIG1        0.2098
     79 H          -5.0975    2.5110    0.5808 H       1  LIG1        0.0236
     80 H          -5.5524    0.8429    0.9578 H       1  LIG1        0.0236
     81 H          -6.5720    1.8349   -0.0736 H       1  LIG1        0.0236
@<TRIPOS>BOND
     1     1     2    1
     2     2     3    1
     3     3     4    1
     4     3     5    1
     5     5     6    1
     6     6     7    1
     7     7     8    1
     8     8     9    1
     9     8    10    1
    10    10    11    1
    11    11    12    1
    12    12    13    1
    13    13    14    1
    14    14    15    1
    15    15    16    1
    16    16    17    1
    17    16    18    1
    18    18    19    1
    19    19    20    1
    20    20    21    1
    21    21    22    1
    22    22    23    1
    23    16    22    1
    24    22    24    1
    25    24    25    1
    26    24    26    1
    27    26    27    1
    28    24    28    1
    29    28    29    1
    30    28    30    2
    31    27    21    1
    32    21    31    1
    33    31    32    1
    34    31    33    2
    35    18    34    1
    36    13    35    1
    37    18    12    1
    38    12    36    1
    39    13     7    1
    40     7    37    1
    41     3    38    1
    42     8     2    1
    43     2    39    1
    44     1    40    1
    45     1    41    1
    46     1    42    1
    47     5    43    1
    48     5    44    1
    49     6    45    1
    50     6    46    1
    51    10    47    1
    52    10    48    1
    53    11    49    1
    54    11    50    1
    55    14    51    1
    56    14    52    1
    57    15    53    1
    58    15    54    1
    59    19    55    1
    60    19    56    1
    61    20    57    1
    62    20    58    1
    63    26    59    1
    64    26    60    1
    65    27    61    1
    66    27    62    1
    67    29    63    1
    68    29    64    1
    69    29    65    1
    70    30    66    1
    71    30    67    1
    72    32    68    1
    73    34    69    1
    74    34    70    1
    75    34    71    1
    76    36    72    1
    77    36    73    1
    78    36    74    1
    79    37    75    1
    80    37    76    1
    81    37    77    1
    82    38    78    1
    83    39    79    1
    84    39    80    1
    85    39    81    1
