REMARK  Name = NuBBE_639
REMARK  27 active torsions:
REMARK  status: ('A' for Active; 'I' for Inactive)
REMARK    1  A    between atoms: C_1  and  C_2
REMARK    2  A    between atoms: C_2  and  O_3
REMARK    3  A    between atoms: O_3  and  C_4
REMARK    4  A    between atoms: C_7  and  O_9
REMARK    5  A    between atoms: O_9  and  C_10
REMARK    6  A    between atoms: C_10  and  C_11
REMARK    7  A    between atoms: C_15  and  O_17
REMARK    8  A    between atoms: O_17  and  C_18
REMARK    9  A    between atoms: C_18  and  C_19
REMARK   10  A    between atoms: C_25  and  O_27
REMARK   11  A    between atoms: O_27  and  C_28
REMARK   12  A    between atoms: C_28  and  C_29
REMARK   13  A    between atoms: C_30  and  C_31
REMARK   14  A    between atoms: C_32  and  C_33
REMARK   15  A    between atoms: C_33  and  C_34
REMARK   16  A    between atoms: C_34  and  C_35
REMARK   17  A    between atoms: C_35  and  C_36
REMARK   18  A    between atoms: C_36  and  C_37
REMARK   19  A    between atoms: C_39  and  O_41
REMARK   20  A    between atoms: O_41  and  C_42
REMARK   21  A    between atoms: C_42  and  C_43
REMARK   22  A    between atoms: C_45  and  C_47
REMARK   23  A    between atoms: C_48  and  C_49
REMARK   24  A    between atoms: C_48  and  C_50
REMARK   25  A    between atoms: C_50  and  C_51
REMARK   26  A    between atoms: C_51  and  C_52
REMARK   27  A    between atoms: C_52  and  C_53
REMARK                            x       y       z     vdW  Elec       q    Type
REMARK                         _______ _______ _______ _____ _____    ______ ____
ROOT
ATOM      1  C   LIG A   1       0.840   2.615   0.962  0.00  0.00    +0.343 C 
ATOM      2  O   LIG A   1       1.888   2.135   0.132  0.00  0.00    -0.297 OA
ATOM      3  C   LIG A   1       2.259   0.830   0.595  0.00  0.00    +0.328 C 
ATOM      4  C   LIG A   1       0.224   1.399   1.635  0.00  0.00    +0.014 C 
ATOM      5  C   LIG A   1      -0.372   1.509   2.848  0.00  0.00    +0.023 C 
ATOM      6  C   LIG A   1      -0.017   0.607   4.000  0.00  0.00    +0.200 C 
ATOM      7  C   LIG A   1       1.121  -0.345   3.573  0.00  0.00    +0.054 C 
ATOM      8  C   LIG A   1       0.797  -0.978   2.183  0.00  0.00    +0.019 C 
ATOM      9  C   LIG A   1       0.852   0.099   1.011  0.00  0.00    +0.104 C 
ATOM     10  C   LIG A   1      -0.237  -0.418  -0.046  0.00  0.00    +0.234 C 
ATOM     11  C   LIG A   1      -0.286  -1.980  -0.264  0.00  0.00    +0.221 C 
ATOM     12  C   LIG A   1       0.144  -3.030   0.769  0.00  0.00    +0.037 C 
ATOM     13  C   LIG A   1       0.525  -4.360   0.064  0.00  0.00    +0.012 C 
ATOM     14  C   LIG A   1       1.112  -2.518   1.883  0.00  0.00    -0.022 C 
ATOM     15  C   LIG A   1       0.494  -3.289   3.041  0.00  0.00    +0.012 C 
ENDROOT
BRANCH  10  16
ATOM     16  O   LIG A   1      -0.136   0.090  -1.427  0.00  0.00    -0.453 OA
BRANCH  16  17
ATOM     17  C   LIG A   1      -0.805   1.187  -1.840  0.00  0.00    +0.332 C 
ATOM     18  O   LIG A   1      -1.208   2.087  -1.118  0.00  0.00    -0.246 OA
BRANCH  17  19
ATOM     19  C   LIG A   1      -1.084   1.241  -3.299  0.00  0.00    +0.091 C 
ATOM     20  C   LIG A   1      -1.150   0.257  -4.206  0.00  0.00    +0.007 C 
BRANCH  20  21
ATOM     21  C   LIG A   1      -1.581   0.382  -5.573  0.00  0.00    -0.004 C 
ATOM     22  C   LIG A   1      -2.490   1.275  -5.975  0.00  0.00    -0.027 C 
BRANCH  22  23
ATOM     23  C   LIG A   1      -2.853   1.419  -7.413  0.00  0.00    +0.027 C 
BRANCH  23  24
ATOM     24  C   LIG A   1      -3.775   2.613  -7.671  0.00  0.00    +0.004 C 
BRANCH  24  25
ATOM     25  C   LIG A   1      -3.103   3.950  -7.338  0.00  0.00    +0.000 C 
BRANCH  25  26
ATOM     26  C   LIG A   1      -3.978   5.168  -7.638  0.00  0.00    -0.003 C 
ATOM     27  C   LIG A   1      -5.243   5.267  -6.797  0.00  0.00    +0.004 C 
ENDBRANCH  25  26
ENDBRANCH  24  25
ENDBRANCH  23  24
ENDBRANCH  22  23
ENDBRANCH  20  21
ENDBRANCH  17  19
ENDBRANCH  16  17
ENDBRANCH  10  16
BRANCH  11  28
ATOM     28  O   LIG A   1      -1.678  -2.332  -0.624  0.00  0.00    -0.458 OA
BRANCH  28  29
ATOM     29  C   LIG A   1      -1.851  -2.355  -1.982  0.00  0.00    +0.304 C 
ATOM     30  C   LIG A   1      -3.293  -2.474  -2.405  0.00  0.00    +0.136 C 
ATOM     31  O   LIG A   1      -0.978  -2.286  -2.751  0.00  0.00    -0.251 OA
ENDBRANCH  28  29
ENDBRANCH  11  28
BRANCH   6  32
ATOM     32  O   LIG A   1      -1.107  -0.164   4.539  0.00  0.00    -0.457 OA
BRANCH  32  33
ATOM     33  C   LIG A   1      -2.075   0.578   5.140  0.00  0.00    +0.304 C 
ATOM     34  C   LIG A   1      -2.163   0.313   6.615  0.00  0.00    +0.136 C 
ATOM     35  O   LIG A   1      -2.781   1.386   4.554  0.00  0.00    -0.251 OA
ENDBRANCH  32  33
ENDBRANCH   6  32
BRANCH  14  36
ATOM     36  C   LIG A   1       2.639  -2.996   1.849  0.00  0.00    +0.012 C 
BRANCH  36  37
ATOM     37  C   LIG A   1       3.642  -2.595   3.013  0.00  0.00    +0.035 C 
BRANCH  37  38
ATOM     38  C   LIG A   1       3.533  -3.262   4.394  0.00  0.00    -0.055 C 
ATOM     39  C   LIG A   1       4.532  -3.921   4.995  0.00  0.00    +0.012 C 
BRANCH  38  40
ATOM     40  C   LIG A   1       2.394  -3.109   5.264  0.00  0.00    -0.005 C 
ATOM     41  C   LIG A   1       1.531  -4.108   5.493  0.00  0.00    +0.008 C 
ENDBRANCH  38  40
ENDBRANCH  37  38
ENDBRANCH  36  37
ENDBRANCH  14  36
BRANCH   3  42
ATOM     42  O   LIG A   1       3.274   0.257  -0.274  0.00  0.00    -0.434 OA
BRANCH  42  43
ATOM     43  C   LIG A   1       4.495   0.938  -0.423  0.00  0.00    +0.306 C 
ATOM     44  C   LIG A   1       5.577  -0.061  -0.789  0.00  0.00    +0.136 C 
ATOM     45  O   LIG A   1       4.753   2.120  -0.220  0.00  0.00    -0.251 OA
ENDBRANCH  42  43
ENDBRANCH   3  42
BRANCH   1  46
ATOM     46  O   LIG A   1       1.284   3.587   1.931  0.00  0.00    -0.431 OA
BRANCH  46  48
ATOM     47  C   LIG A   1       1.544   3.620   4.247  0.00  0.00    +0.136 C 
ATOM     48  C   LIG A   1       2.085   3.152   2.939  0.00  0.00    +0.306 C 
ATOM     49  O   LIG A   1       3.030   2.397   2.891  0.00  0.00    -0.251 OA
ENDBRANCH  46  48
ENDBRANCH   1  46
TORSDOF 20
