@<TRIPOS>MOLECULE
NuBBE_1601
 83 87 0 0 0
SMALL
GASTEIGER

@<TRIPOS>ATOM
      1 C           0.6224    0.2020   -3.7538 C.3     1  LIG1       -0.0482
      2 C          -0.2999    0.2830   -2.5114 C.3     1  LIG1        0.0627
      3 C          -0.0874   -0.9112   -1.5618 C.3     1  LIG1        0.0286
      4 H          -0.0808   -1.7983   -2.2172 H       1  LIG1        0.0362
      5 C          -1.3329   -1.1802   -0.5666 C.3     1  LIG1        0.0200
      6 C          -1.1120   -2.6346   -0.0585 C.3     1  LIG1       -0.0518
      7 C          -2.7128   -1.1255   -1.2832 C.2     1  LIG1        0.0093
      8 C          -2.7984   -0.6507   -2.5400 C.2     1  LIG1        0.1616
      9 C          -1.6993    0.1557   -3.1633 C.2     1  LIG1        0.2073
     10 O          -2.0126    0.7460   -4.2057 O.2     1  LIG1       -0.2879
     11 O          -3.9682   -0.6865   -3.2718 O.2     1  LIG1       -0.5034
     12 C          -3.9915   -1.2853   -0.3618 C.3     1  LIG1        0.1519
     13 C          -4.0849   -2.5913    0.4540 C.2     1  LIG1        0.3247
     14 O          -4.3983   -3.6831   -0.0048 O.2     1  LIG1       -0.2494
     15 O          -3.7648   -2.3765    1.7655 O.3     1  LIG1       -0.4670
     16 C          -3.8072   -3.4961    2.6540 C.3     1  LIG1        0.0817
     17 C          -5.3822   -1.1597   -1.0372 C.3     1  LIG1       -0.0382
     18 C          -3.8956   -0.0757    0.5859 C.2     1  LIG1        0.1765
     19 O          -4.8611    0.5806    0.9772 O.2     1  LIG1       -0.2912
     20 C          -2.5609    0.3072    1.1053 C.2     1  LIG1       -0.0209
     21 C          -1.4357   -0.1954    0.5776 C.2     1  LIG1       -0.0702
     22 C           1.3530   -0.8591   -0.8934 C.3     1  LIG1        0.1456
     23 H           1.3727   -1.5402   -0.0422 H       1  LIG1        0.0775
     24 O           2.3271   -1.3879   -1.8473 O.3     1  LIG1       -0.4574
     25 C           2.4583   -2.7477   -1.9012 C.2     1  LIG1        0.3043
     26 O           1.8121   -3.5446   -1.2364 O.2     1  LIG1       -0.2512
     27 C           3.4671   -3.1532   -2.9320 C.3     1  LIG1        0.0332
     28 C           1.9000    0.5247   -0.3273 C.3     1  LIG1        0.1496
     29 H           2.9916    0.5154   -0.4723 H       1  LIG1        0.0780
     30 C           1.3461    1.8242   -1.0489 C.3     1  LIG1        0.0376
     31 C          -0.0385    1.5369   -1.6802 C.2     1  LIG1       -0.0495
     32 C          -0.9795    2.3716   -1.2123 C.2     1  LIG1       -0.0826
     33 C          -0.4837    3.2894   -0.1453 C.3     1  LIG1       -0.0265
     34 C           1.0489    3.1760   -0.2302 C.3     1  LIG1        0.0068
     35 H           1.3010    3.9923   -0.9313 H       1  LIG1        0.0364
     36 C           1.7875    3.6265    1.0037 C.2     1  LIG1        0.0428
     37 C           1.5022    4.6568    1.8230 C.2     1  LIG1       -0.0063
     38 C           2.5507    4.8716    2.8209 C.3     1  LIG1        0.2232
     39 O           3.4438    3.7925    2.6150 O.3     1  LIG1       -0.4283
     40 C           3.1285    3.2151    1.4225 C.2     1  LIG1        0.3377
     41 O           3.8393    2.5089    0.8041 O.2     1  LIG1       -0.2452
     42 O           3.2118    6.0930    2.5385 O.3     1  LIG1       -0.3545
     43 C           2.3659    2.2844   -2.1341 C.3     1  LIG1       -0.0517
     44 O           1.6302    0.4876    1.1107 O.3     1  LIG1       -0.4565
     45 C           2.5599   -0.1530    1.8980 C.2     1  LIG1        0.3101
     46 O           3.7468   -0.2824    1.6134 O.2     1  LIG1       -0.2505
     47 C           1.9232   -0.7322    3.1640 C.3     1  LIG1        0.0508
     48 C           0.7820   -1.6990    2.8615 C.3     1  LIG1       -0.0525
     49 C           2.9442   -1.5224    3.9890 C.3     1  LIG1       -0.0525
     50 H           0.3811   -0.6768   -4.3661 H       1  LIG1        0.0242
     51 H           1.6794    0.1171   -3.5239 H       1  LIG1        0.0242
     52 H           0.5007    1.0848   -4.3940 H       1  LIG1        0.0242
     53 H          -1.4080   -3.3686   -0.8197 H       1  LIG1        0.0241
     54 H          -1.6368   -2.8662    0.8653 H       1  LIG1        0.0241
     55 H          -0.0737   -2.8546    0.1807 H       1  LIG1        0.0241
     56 H          -3.7787   -0.1871   -4.0968 H       1  LIG1        0.2923
     57 H          -3.5900   -4.4452    2.1564 H       1  LIG1        0.0661
     58 H          -4.7893   -3.5213    3.1309 H       1  LIG1        0.0661
     59 H          -3.0494   -3.3359    3.4282 H       1  LIG1        0.0661
     60 H          -5.5214   -0.1817   -1.5135 H       1  LIG1        0.0248
     61 H          -6.1899   -1.2479   -0.2973 H       1  LIG1        0.0248
     62 H          -5.5540   -1.9488   -1.7775 H       1  LIG1        0.0248
     63 H          -2.5575    1.0340    1.9091 H       1  LIG1        0.0650
     64 H          -0.5267    0.2122    0.9850 H       1  LIG1        0.0582
     65 H           4.4179   -2.6493   -2.7469 H       1  LIG1        0.0342
     66 H           3.0922   -2.9252   -3.9326 H       1  LIG1        0.0342
     67 H           3.6362   -4.2333   -2.8623 H       1  LIG1        0.0342
     68 H          -2.0354    2.3172   -1.4528 H       1  LIG1        0.0572
     69 H          -0.8766    2.9852    0.8303 H       1  LIG1        0.0314
     70 H          -0.8183    4.3139   -0.3479 H       1  LIG1        0.0314
     71 H           0.6466    5.3108    1.7395 H       1  LIG1        0.0638
     72 H           2.1618    4.8947    3.8447 H       1  LIG1        0.1105
     73 H           3.7479    6.2983    3.3236 H       1  LIG1        0.2139
     74 H           2.8378    1.4657   -2.6751 H       1  LIG1        0.0239
     75 H           3.1887    2.8487   -1.6787 H       1  LIG1        0.0239
     76 H           1.8938    2.9514   -2.8685 H       1  LIG1        0.0239
     77 H           1.5560    0.1083    3.7634 H       1  LIG1        0.0408
     78 H           1.0939   -2.4794    2.1584 H       1  LIG1        0.0237
     79 H          -0.0757   -1.1871    2.4413 H       1  LIG1        0.0237
     80 H           0.4271   -2.1911    3.7728 H       1  LIG1        0.0237
     81 H           3.1211   -2.5107    3.5445 H       1  LIG1        0.0237
     82 H           2.5616   -1.6859    5.0029 H       1  LIG1        0.0237
     83 H           3.9093   -1.0157    4.0640 H       1  LIG1        0.0237
@<TRIPOS>BOND
     1     1     2    1
     2     2     3    1
     3     3     4    1
     4     3     5    1
     5     5     6    1
     6     5     7    1
     7     7     8    2
     8     8     9    1
     9     2     9    1
    10     9    10    2
    11     8    11    1
    12     7    12    1
    13    13    14    2
    14    13    15    1
    15    15    16    1
    16    12    18    1
    17    18    19    2
    18    18    20    1
    19    20    21    2
    20     5    21    1
    21     3    22    1
    22    22    23    1
    23    22    24    1
    24    24    25    1
    25    25    26    2
    26    25    27    1
    27    22    28    1
    28    28    30    1
    29    30    31    1
    30     2    31    1
    31    31    32    2
    32    32    33    1
    33    33    34    1
    34    34    35    1
    35    30    34    1
    36    34    36    1
    37    36    37    2
    38    37    38    1
    39    38    39    1
    40    39    40    1
    41    36    40    1
    42    40    41    2
    43    38    42    1
    44    30    43    1
    45    44    45    1
    46    45    46    2
    47    45    47    1
    48    47    48    1
    49    47    49    1
    50    12    17    1
    51    12    13    1
    52    28    44    1
    53    28    29    1
    54     1    50    1
    55     1    51    1
    56     1    52    1
    57     6    53    1
    58     6    54    1
    59     6    55    1
    60    11    56    1
    61    16    57    1
    62    16    58    1
    63    16    59    1
    64    17    60    1
    65    17    61    1
    66    17    62    1
    67    20    63    1
    68    21    64    1
    69    27    65    1
    70    27    66    1
    71    27    67    1
    72    32    68    1
    73    33    69    1
    74    33    70    1
    75    37    71    1
    76    38    72    1
    77    42    73    1
    78    43    74    1
    79    43    75    1
    80    43    76    1
    81    47    77    1
    82    48    78    1
    83    48    79    1
    84    48    80    1
    85    49    81    1
    86    49    82    1
    87    49    83    1
