@<TRIPOS>MOLECULE
NuBBE_520
 55 57 0 0 0
SMALL
GASTEIGER

@<TRIPOS>ATOM
      1 CL         -4.4801    2.8229   -1.1496 Cl      1  LIG1       -0.0791
      2 C          -2.8115    2.6667   -0.7070 C.2     1  LIG1        0.0956
      3 C          -1.9943    3.9318   -0.7990 C.2     1  LIG1        0.2224
      4 C          -0.5773    3.9150   -0.1921 C.3     1  LIG1        0.2000
      5 O           0.3252    4.7699   -0.8774 O.3     1  LIG1       -0.4418
      6 C          -0.6349    4.3799    1.2668 C.3     1  LIG1       -0.0130
      7 C           0.0327    2.5726   -0.3524 C.2     1  LIG1        0.0312
      8 C           1.2082    2.6247   -0.9882 C.2     1  LIG1        0.1097
      9 C           2.1278    1.5107   -1.3516 C.2     1  LIG1        0.1756
     10 C           3.6220    1.8130   -1.5322 C.3     1  LIG1        0.0452
     11 H           3.7368    2.7984   -1.9827 H       1  LIG1        0.0403
     12 C           4.2640    1.8095   -0.1445 C.3     1  LIG1       -0.0530
     13 C           4.2838    0.8060   -2.4911 C.3     1  LIG1        0.0620
     14 H           4.1697   -0.2202   -2.1228 H       1  LIG1        0.0597
     15 O           3.6358    0.8955   -3.7626 O.3     1  LIG1       -0.3914
     16 C           5.7631    1.1089   -2.7279 C.3     1  LIG1       -0.0383
     17 O           1.7091    0.3498   -1.3564 O.2     1  LIG1       -0.2914
     18 C           1.3740    4.0416   -1.3473 C.2     1  LIG1        0.3443
     19 O           2.2812    4.5187   -2.0010 O.2     1  LIG1       -0.2448
     20 O          -2.4643    4.9545   -1.2997 O.2     1  LIG1       -0.2864
     21 C          -2.2562    1.5092   -0.2832 C.2     1  LIG1        0.0108
     22 C          -0.8120    1.4703    0.0334 C.2     1  LIG1        0.0269
     23 C          -0.3775    0.4032    0.7238 C.2     1  LIG1        0.1006
     24 O          -1.1660   -0.6841    1.0439 O.2     1  LIG1       -0.4629
     25 C          -2.4320   -0.7804    0.4652 C.2     1  LIG1        0.1279
     26 C          -3.0568   -2.0840    0.5665 C.2     1  LIG1       -0.0230
     27 C          -2.4857   -3.1430    1.1709 C.2     1  LIG1       -0.0777
     28 C          -3.0853   -4.5241    1.2207 C.3     1  LIG1       -0.0256
     29 H          -4.0101   -4.5348    0.6275 H       1  LIG1        0.0340
     30 C          -2.1239   -5.5222    0.5690 C.3     1  LIG1       -0.0590
     31 C          -3.4622   -4.9396    2.6556 C.3     1  LIG1       -0.0499
     32 C          -2.3131   -4.9503    3.6588 C.3     1  LIG1       -0.0648
     33 C          -3.0018    0.2569   -0.1736 C.2     1  LIG1       -0.0100
     34 H          -0.9803    5.4189    1.3244 H       1  LIG1        0.0276
     35 H           0.3600    4.3590    1.7293 H       1  LIG1        0.0276
     36 H          -1.3099    3.7699    1.8762 H       1  LIG1        0.0276
     37 H           3.7505    2.5032    0.5298 H       1  LIG1        0.0237
     38 H           5.3132    2.1141   -0.1852 H       1  LIG1        0.0237
     39 H           4.2126    0.8133    0.3094 H       1  LIG1        0.0237
     40 H           3.9699    0.1613   -4.3084 H       1  LIG1        0.2098
     41 H           6.3635    0.9689   -1.8252 H       1  LIG1        0.0255
     42 H           5.8953    2.1387   -3.0805 H       1  LIG1        0.0255
     43 H           6.1706    0.4597   -3.5105 H       1  LIG1        0.0255
     44 H           0.6323    0.2398    1.0767 H       1  LIG1        0.1036
     45 H          -4.0213   -2.2030    0.0788 H       1  LIG1        0.0651
     46 H          -1.5112   -3.0297    1.6396 H       1  LIG1        0.0576
     47 H          -1.8740   -5.2175   -0.4535 H       1  LIG1        0.0235
     48 H          -2.5784   -6.5171    0.5199 H       1  LIG1        0.0235
     49 H          -1.1812   -5.6086    1.1193 H       1  LIG1        0.0235
     50 H          -3.9069   -5.9420    2.6249 H       1  LIG1        0.0268
     51 H          -4.2432   -4.2671    3.0335 H       1  LIG1        0.0268
     52 H          -1.4681   -5.5495    3.3096 H       1  LIG1        0.0230
     53 H          -2.6501   -5.3800    4.6074 H       1  LIG1        0.0230
     54 H          -1.9559   -3.9365    3.8647 H       1  LIG1        0.0230
     55 H          -3.9760    0.1573   -0.6400 H       1  LIG1        0.0661
@<TRIPOS>BOND
     1     2     3    1
     2     3     4    1
     3     4     5    1
     4     4     7    1
     5     7     8    2
     6     9    10    1
     7    10    11    1
     8    10    12    1
     9    10    13    1
    10    13    14    1
    11    13    15    1
    12    13    16    1
    13     9    17    2
    14     8    18    1
    15     5    18    1
    16     2    21    2
    17    21    22    1
    18     7    22    1
    19    22    23    2
    20    23    24    1
    21    24    25    1
    22    26    27    2
    23    27    28    1
    24    28    29    1
    25    28    30    1
    26    28    31    1
    27    31    32    1
    28    25    33    2
    29    21    33    1
    30     1     2    1
    31     3    20    2
    32     4     6    1
    33     8     9    1
    34    18    19    2
    35    25    26    1
    36     6    34    1
    37     6    35    1
    38     6    36    1
    39    12    37    1
    40    12    38    1
    41    12    39    1
    42    15    40    1
    43    16    41    1
    44    16    42    1
    45    16    43    1
    46    23    44    1
    47    26    45    1
    48    27    46    1
    49    30    47    1
    50    30    48    1
    51    30    49    1
    52    31    50    1
    53    31    51    1
    54    32    52    1
    55    32    53    1
    56    32    54    1
    57    33    55    1
