REMARK  Name = NuBBE_1752
REMARK  5 active torsions:
REMARK  status: ('A' for Active; 'I' for Inactive)
REMARK    1  A    between atoms: C_1  and  C_2
REMARK    2  A    between atoms: C_1  and  C_3
REMARK    3  A    between atoms: C_1  and  O_4
REMARK    4  A    between atoms: C_1  and  C_5
REMARK    5  A    between atoms: C_8  and  C_11
REMARK                            x       y       z     vdW  Elec       q    Type
REMARK                         _______ _______ _______ _____ _____    ______ ____
ROOT
ATOM      1  C   LIG A   1       0.088  -0.094   1.119  0.00  0.00    +0.024 C 
ATOM      2  C   LIG A   1       0.859   1.180   0.714  0.00  0.00    +0.011 C 
ATOM      3  C   LIG A   1       1.138   1.275  -0.787  0.00  0.00    +0.030 C 
ATOM      4  C   LIG A   1       1.637  -0.018  -1.379  0.00  0.00    -0.076 C 
ATOM      5  C   LIG A   1       1.541  -1.182  -0.713  0.00  0.00    -0.027 C 
ATOM      6  C   LIG A   1       0.912  -1.318   0.645  0.00  0.00    +0.033 C 
ATOM      7  C   LIG A   1       2.224   0.069  -2.757  0.00  0.00    +0.038 C 
ENDROOT
BRANCH   1   8
ATOM      8  C   LIG A   1      -1.418  -0.121   0.686  0.00  0.00    +0.064 C 
ATOM      9  C   LIG A   1      -2.155  -1.313   1.321  0.00  0.00    +0.041 C 
ATOM     10  C   LIG A   1      -2.150   1.167   1.093  0.00  0.00    +0.041 C 
BRANCH   8  11
ATOM     11  O   LIG A   1      -1.535  -0.251  -0.729  0.00  0.00    -0.389 OA
ATOM     12  H   LIG A   1      -2.479  -0.290  -0.958  0.00  0.00    +0.210 HD
ENDBRANCH   8  11
ENDBRANCH   1   8
TORSDOF 2
