REMARK  Name = NuBBE_1388
REMARK  10 active torsions:
REMARK  status: ('A' for Active; 'I' for Inactive)
REMARK    1  A    between atoms: C_1  and  C_2
REMARK    2  A    between atoms: C_2  and  C_3
REMARK    3  A    between atoms: C_4  and  C_5
REMARK    4  A    between atoms: C_5  and  C_6
REMARK    5  A    between atoms: C_6  and  C_7
REMARK    6  A    between atoms: C_7  and  C_8
REMARK    7  A    between atoms: C_9  and  C_10
REMARK    8  A    between atoms: C_10  and  O_11
REMARK    9  A    between atoms: O_11  and  C_12
REMARK   10  A    between atoms: C_12  and  C_13
REMARK                            x       y       z     vdW  Elec       q    Type
REMARK                         _______ _______ _______ _____ _____    ______ ____
ROOT
ATOM      1  C   LIG A   1       0.545  -0.160  -0.818  0.00  0.00    -0.073 C 
ATOM      2  C   LIG A   1       1.776   0.405  -1.478  0.00  0.00    +0.038 C 
ATOM      3  C   LIG A   1       0.559  -1.011   0.231  0.00  0.00    +0.012 C 
ENDROOT
BRANCH   1   4
ATOM      4  C   LIG A   1      -0.765   0.288  -1.445  0.00  0.00    +0.034 C 
BRANCH   4   5
ATOM      5  C   LIG A   1      -0.997   1.808  -1.414  0.00  0.00    +0.031 C 
BRANCH   5   9
ATOM      6  C   LIG A   1      -2.327   3.075   2.043  0.00  0.00    +0.038 C 
ATOM      7  C   LIG A   1      -2.306   2.496   0.655  0.00  0.00    -0.080 C 
ATOM      8  C   LIG A   1      -3.648   2.083   0.118  0.00  0.00    +0.038 C 
ATOM      9  C   LIG A   1      -1.149   2.351  -0.019  0.00  0.00    -0.028 C 
ENDBRANCH   5   9
ENDBRANCH   4   5
ENDBRANCH   1   4
BRANCH   3  10
ATOM     10  C   LIG A   1       1.769  -1.506   0.971  0.00  0.00    +0.260 C 
BRANCH  10  11
ATOM     11  O   LIG A   1       1.795  -2.937   0.905  0.00  0.00    -0.461 OA
BRANCH  11  12
ATOM     12  C   LIG A   1       2.937  -3.473   0.391  0.00  0.00    +0.304 C 
ATOM     13  C   LIG A   1       2.841  -4.968   0.348  0.00  0.00    +0.136 C 
ATOM     14  O   LIG A   1       3.902  -2.853  -0.019  0.00  0.00    -0.251 OA
ENDBRANCH  11  12
ENDBRANCH  10  11
ENDBRANCH   3  10
TORSDOF 6
