@<TRIPOS>MOLECULE
NuBBE_2261
 34 35 0 0 0
SMALL
GASTEIGER

@<TRIPOS>ATOM
      1 C          -2.3380    2.2977   -0.1553 C.3     1  LIG1       -0.0391
      2 C          -0.8314    2.2565   -0.1147 C.ar    1  LIG1       -0.0426
      3 C          -0.0959    1.0481   -0.1291 C.ar    1  LIG1       -0.0105
      4 C           1.3145    1.1000   -0.0908 C.ar    1  LIG1        0.0358
      5 C           2.0486   -0.1892   -0.1278 C.2     1  LIG1        0.2335
      6 O           3.2422   -0.2688   -0.3833 O.2     1  LIG1       -0.2832
      7 C           1.2748   -1.4634    0.1450 C.2     1  LIG1        0.2317
      8 O           1.8643   -2.4822    0.4875 O.2     1  LIG1       -0.2834
      9 C          -0.1972   -1.4495   -0.0576 C.2     1  LIG1        0.0344
     10 C          -0.7895   -0.2514   -0.2011 C.2     1  LIG1       -0.0440
     11 C          -0.8966   -2.8028   -0.0822 C.3     1  LIG1        0.0890
     12 C          -1.0383   -3.3804    1.3332 C.3     1  LIG1       -0.0320
     13 C          -2.2851   -2.7786   -0.7412 C.3     1  LIG1       -0.0320
     14 O          -0.1293   -3.7166   -0.8736 O.3     1  LIG1       -0.3844
     15 C           1.9969    2.3363   -0.0315 C.ar    1  LIG1       -0.0389
     16 C           1.2463    3.5177   -0.0271 C.ar    1  LIG1       -0.0579
     17 C          -0.1448    3.4783   -0.0677 C.ar    1  LIG1       -0.0580
     18 C           3.4973    2.4491    0.0204 C.3     1  LIG1       -0.0390
     19 H          -2.7588    1.7364    0.6851 H       1  LIG1        0.0278
     20 H          -2.7042    1.8838   -1.1002 H       1  LIG1        0.0278
     21 H          -2.7165    3.3229   -0.0788 H       1  LIG1        0.0278
     22 H          -1.8621   -0.2132   -0.3591 H       1  LIG1        0.0629
     23 H          -1.6445   -2.7309    1.9742 H       1  LIG1        0.0260
     24 H          -0.0662   -3.5257    1.8163 H       1  LIG1        0.0260
     25 H          -1.5083   -4.3705    1.3021 H       1  LIG1        0.0260
     26 H          -3.0085   -2.1918   -0.1652 H       1  LIG1        0.0260
     27 H          -2.6835   -3.7955   -0.8430 H       1  LIG1        0.0260
     28 H          -2.2316   -2.3715   -1.7581 H       1  LIG1        0.0260
     29 H           0.7420   -3.8187   -0.4350 H       1  LIG1        0.2106
     30 H           1.7424    4.4864    0.0095 H       1  LIG1        0.0620
     31 H          -0.6925    4.4197   -0.0618 H       1  LIG1        0.0620
     32 H           3.9003    1.8620    0.8516 H       1  LIG1        0.0278
     33 H           3.8149    3.4849    0.1850 H       1  LIG1        0.0278
     34 H           3.9386    2.1210   -0.9257 H       1  LIG1        0.0278
@<TRIPOS>BOND
     1     1     2    1
     2     2     3   ar
     3     3     4   ar
     4     4     5    1
     5     5     6    2
     6     5     7    1
     7     7     8    2
     8     7     9    1
     9     9    10    2
    10     3    10    1
    11     9    11    1
    12    11    12    1
    13    11    13    1
    14    11    14    1
    15     4    15   ar
    16    15    16   ar
    17    16    17   ar
    18     2    17   ar
    19    15    18    1
    20     1    19    1
    21     1    20    1
    22     1    21    1
    23    10    22    1
    24    12    23    1
    25    12    24    1
    26    12    25    1
    27    13    26    1
    28    13    27    1
    29    13    28    1
    30    14    29    1
    31    16    30    1
    32    17    31    1
    33    18    32    1
    34    18    33    1
    35    18    34    1
