@<TRIPOS>MOLECULE
NuBBE_926
 51 54 0 0 0
SMALL
GASTEIGER

@<TRIPOS>ATOM
      1 O           0.4326   -5.4129    1.6278 O.3     1  LIG1       -0.4914
      2 C           1.8240   -5.6408    1.4416 C.3     1  LIG1        0.0790
      3 C          -0.0024   -4.1121    1.6350 C.ar    1  LIG1        0.1618
      4 C           0.8623   -3.0264    1.4397 C.ar    1  LIG1       -0.0107
      5 C           0.4042   -1.7022    1.4270 C.ar    1  LIG1       -0.0149
      6 C          -0.9631   -1.4701    1.5818 C.ar    1  LIG1       -0.0524
      7 C          -1.8415   -2.5394    1.7709 C.ar    1  LIG1       -0.0160
      8 C          -1.3730   -3.8574    1.8287 C.ar    1  LIG1        0.1615
      9 O          -2.3585   -4.7863    2.0336 O.3     1  LIG1       -0.4915
     10 C          -1.9870   -5.9430    2.7744 C.3     1  LIG1        0.0790
     11 C           1.4120   -0.5958    1.2407 C.3     1  LIG1        0.0891
     12 H           2.3472   -0.9211    1.7172 H       1  LIG1        0.0650
     13 C           1.7509   -0.1543   -0.1930 C.3     1  LIG1        0.0205
     14 H           2.8198   -0.3238   -0.3699 H       1  LIG1        0.0356
     15 C           1.3916    1.3131   -0.2104 C.3     1  LIG1        0.0205
     16 H           2.0771    1.9056   -0.8262 H       1  LIG1        0.0356
     17 C           1.4669    1.7169    1.2419 C.3     1  LIG1        0.0544
     18 O           1.0189    0.5788    1.9780 O.3     1  LIG1       -0.3712
     19 C          -0.0381    1.3277   -0.7648 C.3     1  LIG1        0.0891
     20 H          -0.7902    1.4096    0.0284 H       1  LIG1        0.0650
     21 O          -0.2670    0.0553   -1.3998 O.3     1  LIG1       -0.3712
     22 C           0.9362   -0.7107   -1.3365 C.3     1  LIG1        0.0544
     23 C          -0.2561    2.4568   -1.7553 C.ar    1  LIG1       -0.0149
     24 C          -0.7081    3.7084   -1.3023 C.ar    1  LIG1       -0.0107
     25 C          -0.9032    4.7606   -2.2003 C.ar    1  LIG1        0.1616
     26 O          -1.3444    6.0208   -1.8792 O.3     1  LIG1       -0.4914
     27 C          -1.6029    6.2631   -0.5012 C.3     1  LIG1        0.0790
     28 C          -0.6337    4.5531   -3.5566 C.ar    1  LIG1        0.1585
     29 C          -0.1784    3.3296   -4.0256 C.ar    1  LIG1       -0.0162
     30 C           0.0112    2.2849   -3.1238 C.ar    1  LIG1       -0.0524
     31 O          -0.8077    5.5629   -4.4633 O.3     1  LIG1       -0.5033
     32 H           2.0097   -6.7126    1.5457 H       1  LIG1        0.0660
     33 H           2.4174   -5.1302    2.2084 H       1  LIG1        0.0660
     34 H           2.1352   -5.3404    0.4348 H       1  LIG1        0.0660
     35 H           1.9268   -3.1851    1.2875 H       1  LIG1        0.0659
     36 H          -1.3574   -0.4570    1.5603 H       1  LIG1        0.0622
     37 H          -2.9020   -2.3457    1.8930 H       1  LIG1        0.0655
     38 H          -1.3826   -5.6902    3.6525 H       1  LIG1        0.0660
     39 H          -1.4841   -6.6731    2.1346 H       1  LIG1        0.0660
     40 H          -2.9059   -6.4187    3.1319 H       1  LIG1        0.0660
     41 H           0.8479    2.5811    1.4955 H       1  LIG1        0.0564
     42 H           2.5003    1.9258    1.5417 H       1  LIG1        0.0564
     43 H           1.4663   -0.5584   -2.2844 H       1  LIG1        0.0564
     44 H           0.7046   -1.7759   -1.2653 H       1  LIG1        0.0564
     45 H          -0.9055    3.8314   -0.2435 H       1  LIG1        0.0659
     46 H          -1.9599    7.2922   -0.4000 H       1  LIG1        0.0660
     47 H          -0.6857    6.1676    0.0900 H       1  LIG1        0.0660
     48 H          -2.3885    5.6001   -0.1232 H       1  LIG1        0.0660
     49 H           0.0248    3.1891   -5.0815 H       1  LIG1        0.0655
     50 H           0.3620    1.3255   -3.5023 H       1  LIG1        0.0622
     51 H          -1.1228    6.3232   -3.9343 H       1  LIG1        0.2923
@<TRIPOS>BOND
     1     1     2    1
     2     1     3    1
     3     3     4   ar
     4     4     5   ar
     5     5     6   ar
     6     6     7   ar
     7     7     8   ar
     8     3     8   ar
     9     8     9    1
    10     9    10    1
    11     5    11    1
    12    11    12    1
    13    11    13    1
    14    13    14    1
    15    13    15    1
    16    15    16    1
    17    15    17    1
    18    17    18    1
    19    11    18    1
    20    15    19    1
    21    19    20    1
    22    19    21    1
    23    21    22    1
    24    13    22    1
    25    19    23    1
    26    23    24   ar
    27    24    25   ar
    28    25    26    1
    29    26    27    1
    30    25    28   ar
    31    28    29   ar
    32    29    30   ar
    33    23    30   ar
    34    28    31    1
    35     2    32    1
    36     2    33    1
    37     2    34    1
    38     4    35    1
    39     6    36    1
    40     7    37    1
    41    10    38    1
    42    10    39    1
    43    10    40    1
    44    17    41    1
    45    17    42    1
    46    22    43    1
    47    22    44    1
    48    24    45    1
    49    27    46    1
    50    27    47    1
    51    27    48    1
    52    29    49    1
    53    30    50    1
    54    31    51    1
