@<TRIPOS>MOLECULE
NuBBE_340
 53 56 0 0 0
SMALL
GASTEIGER

@<TRIPOS>ATOM
      1 C          -1.3591    5.2674   -2.0336 C.3     1  LIG1        0.0596
      2 S          -0.4006    4.3708   -0.8389 S.O2    1  LIG1       -0.0058
      3 C           0.1229    2.9079   -1.7039 C.ar    1  LIG1        0.0897
      4 C           0.9023    3.0508   -2.8407 C.ar    1  LIG1       -0.0357
      5 C           1.2956    1.9048   -3.5135 C.ar    1  LIG1       -0.0444
      6 C           0.9228    0.6213   -3.0559 C.ar    1  LIG1        0.0342
      7 S           1.5401   -0.7063   -4.0528 S.3     1  LIG1       -0.0857
      8 C           0.7445   -2.1179   -3.3372 C.ar    1  LIG1        0.0341
      9 C           0.9321   -3.3168   -4.0579 C.ar    1  LIG1       -0.0462
     10 C           0.3868   -4.5125   -3.6160 C.ar    1  LIG1       -0.0606
     11 C          -0.3265   -4.5207   -2.4318 C.ar    1  LIG1       -0.0599
     12 C          -0.5018   -3.3333   -1.7040 C.ar    1  LIG1       -0.0393
     13 C           0.0002   -2.0840   -2.1383 C.ar    1  LIG1        0.0479
     14 N          -0.2472   -0.8596   -1.4378 N.pl3   1  LIG1       -0.2982
     15 C          -0.9396   -0.9528   -0.1212 C.3     1  LIG1        0.0188
     16 C           0.0666   -1.1025    1.0348 C.3     1  LIG1       -0.0212
     17 C          -0.6003   -1.2104    2.4354 C.3     1  LIG1        0.0116
     18 H          -1.2484   -2.0974    2.4173 H       1  LIG1        0.0463
     19 N           0.3379   -1.3653    3.5685 N.3     1  LIG1       -0.3023
     20 C           1.0843   -2.6151    3.5657 C.3     1  LIG1       -0.0125
     21 C           1.2125   -0.2030    3.7575 C.3     1  LIG1       -0.0011
     22 C           0.3857    1.0497    4.0513 C.3     1  LIG1       -0.0402
     23 C          -0.7298    1.2681    3.0338 C.3     1  LIG1       -0.0505
     24 C          -1.5136   -0.0193    2.7910 C.3     1  LIG1       -0.0373
     25 C           0.1428    0.4434   -1.8906 C.ar    1  LIG1        0.0497
     26 C          -0.2382    1.6347   -1.2283 C.ar    1  LIG1       -0.0144
     27 O           0.7938    5.1321   -0.5446 O.2     1  LIG1       -0.1696
     28 O          -1.3053    3.9559    0.2204 O.2     1  LIG1       -0.1696
     29 H          -0.7350    5.5052   -2.8975 H       1  LIG1        0.0468
     30 H          -1.6975    6.1956   -1.5670 H       1  LIG1        0.0468
     31 H          -2.2197    4.6657   -2.3304 H       1  LIG1        0.0468
     32 H           1.2191    4.0258   -3.2005 H       1  LIG1        0.0637
     33 H           1.9091    2.0103   -4.4078 H       1  LIG1        0.0630
     34 H           1.5107   -3.3178   -4.9803 H       1  LIG1        0.0629
     35 H           0.5267   -5.4251   -4.1880 H       1  LIG1        0.0618
     36 H          -0.7562   -5.4494   -2.0643 H       1  LIG1        0.0618
     37 H          -1.0607   -3.4469   -0.7831 H       1  LIG1        0.0636
     38 H          -1.6696   -1.7660   -0.0889 H       1  LIG1        0.0468
     39 H          -1.5950   -0.0953    0.0325 H       1  LIG1        0.0468
     40 H           0.7710   -0.2650    1.0015 H       1  LIG1        0.0296
     41 H           0.6625   -2.0067    0.8572 H       1  LIG1        0.0296
     42 H           0.4064   -3.4705    3.4715 H       1  LIG1        0.0391
     43 H           1.6031   -2.7432    4.5236 H       1  LIG1        0.0391
     44 H           1.8296   -2.6651    2.7667 H       1  LIG1        0.0391
     45 H           1.8592   -0.0381    2.8879 H       1  LIG1        0.0426
     46 H           1.8806   -0.3679    4.6122 H       1  LIG1        0.0426
     47 H           1.0399    1.9289    4.0752 H       1  LIG1        0.0278
     48 H          -0.0562    0.9588    5.0520 H       1  LIG1        0.0278
     49 H          -0.3035    1.6303    2.0927 H       1  LIG1        0.0266
     50 H          -1.4083    2.0490    3.3963 H       1  LIG1        0.0266
     51 H          -2.2763    0.1458    2.0246 H       1  LIG1        0.0280
     52 H          -2.0713   -0.2658    3.7059 H       1  LIG1        0.0280
     53 H          -0.8294    1.6174   -0.3207 H       1  LIG1        0.0655
@<TRIPOS>BOND
     1     1     2    1
     2     2     3    1
     3     3     4   ar
     4     4     5   ar
     5     5     6   ar
     6     6     7    1
     7     7     8    1
     8     8     9   ar
     9     9    10   ar
    10    10    11   ar
    11    11    12   ar
    12    12    13   ar
    13     8    13   ar
    14    13    14    1
    15    14    15    1
    16    15    16    1
    17    16    17    1
    18    17    18    1
    19    17    19    1
    20    19    20    1
    21    19    21    1
    22    21    22    1
    23    22    23    1
    24    23    24    1
    25    17    24    1
    26    14    25    1
    27     6    25   ar
    28    25    26   ar
    29     3    26   ar
    30     2    27    2
    31     2    28    2
    32     1    29    1
    33     1    30    1
    34     1    31    1
    35     4    32    1
    36     5    33    1
    37     9    34    1
    38    10    35    1
    39    11    36    1
    40    12    37    1
    41    15    38    1
    42    15    39    1
    43    16    40    1
    44    16    41    1
    45    20    42    1
    46    20    43    1
    47    20    44    1
    48    21    45    1
    49    21    46    1
    50    22    47    1
    51    22    48    1
    52    23    49    1
    53    23    50    1
    54    24    51    1
    55    24    52    1
    56    26    53    1
