@<TRIPOS>MOLECULE
NuBBE_2410
 98 106 0 0 0
SMALL
GASTEIGER

@<TRIPOS>ATOM
      1 C          -3.5977    0.6606   -4.5623 C.3     1  LIG1       -0.0465
      2 C          -2.8124    1.6083   -3.7108 C.2     1  LIG1       -0.0864
      3 C          -3.0399    1.9150   -2.4143 C.2     1  LIG1       -0.0558
      4 C          -4.2553    1.3598   -1.6776 C.3     1  LIG1        0.0203
      5 N          -4.5441    1.9640   -0.3799 N.3     1  LIG1       -0.2974
      6 C          -5.6076    1.2725    0.3393 C.3     1  LIG1       -0.0121
      7 C          -3.3395    2.1999    0.4363 C.3     1  LIG1        0.0279
      8 H          -3.6512    2.6258    1.4012 H       1  LIG1        0.0474
      9 C          -2.5323    0.9037    0.7338 C.3     1  LIG1       -0.0089
     10 C          -1.2357    1.1537    1.4441 C.ar    1  LIG1       -0.0170
     11 C          -0.0739    1.7545    0.9476 C.ar    1  LIG1        0.0279
     12 N           0.7906    1.8609    2.0187 N.ar    1  LIG1       -0.3572
     13 H           1.7206    2.2520    1.9603 H       1  LIG1        0.1656
     14 C           0.2481    1.3242    3.1595 C.ar    1  LIG1        0.0469
     15 C           0.7630    1.2618    4.4602 C.ar    1  LIG1       -0.0378
     16 C           0.0148    0.5837    5.4274 C.ar    1  LIG1       -0.0598
     17 C          -1.1975   -0.0160    5.1010 C.ar    1  LIG1       -0.0611
     18 C          -1.7176    0.0953    3.8053 C.ar    1  LIG1       -0.0523
     19 C          -0.9896    0.7953    2.8149 C.ar    1  LIG1        0.0032
     20 C           0.3686    2.3053   -0.4253 C.3     1  LIG1        0.0306
     21 H           0.4179    3.3969   -0.3295 H       1  LIG1        0.0414
     22 C           1.7822    1.7873   -0.8060 C.ar    1  LIG1        0.0269
     23 C           2.8824    2.6389   -1.1612 C.ar    1  LIG1        0.1259
     24 O           2.7060    4.0126   -1.1548 O.3     1  LIG1       -0.4948
     25 C           3.8606    4.7917   -1.5273 C.3     1  LIG1        0.0788
     26 C           4.1356    2.0963   -1.4942 C.ar    1  LIG1       -0.0190
     27 C           4.3743    0.7325   -1.5028 C.ar    1  LIG1       -0.0488
     28 C           3.3346   -0.1336   -1.1751 C.ar    1  LIG1        0.0037
     29 C           3.2670   -1.5460   -1.1211 C.ar    1  LIG1       -0.0176
     30 C           4.3085   -2.6026   -1.5057 C.3     1  LIG1       -0.0126
     31 C           4.5746   -3.8335   -0.5456 C.3     1  LIG1        0.0033
     32 N           3.5226   -4.6382    0.1482 N.3     1  LIG1       -0.2979
     33 C           2.7334   -5.6230   -0.6508 C.3     1  LIG1        0.0021
     34 C           1.1679   -5.5620   -0.2829 C.3     1  LIG1       -0.0273
     35 H           0.6266   -6.3668   -0.7902 H       1  LIG1        0.0313
     36 C           1.0585   -5.7060    1.2441 C.3     1  LIG1       -0.0448
     37 C           1.8231   -4.5329    1.8987 C.3     1  LIG1       -0.0247
     38 H           2.5697   -4.9684    2.5791 H       1  LIG1        0.0316
     39 C           0.9004   -3.6542    2.7639 C.3     1  LIG1       -0.0516
     40 C           1.6329   -2.4989    3.4349 C.3     1  LIG1       -0.0650
     41 C           2.5731   -3.7274    0.8055 C.3     1  LIG1        0.0214
     42 H           3.1321   -2.9225    1.2968 H       1  LIG1        0.0472
     43 C           1.6655   -3.2315   -0.3581 C.3     1  LIG1        0.0157
     44 H           2.1334   -3.5450   -1.3080 H       1  LIG1        0.0379
     45 C           0.5257   -4.1619   -0.6238 C.3     1  LIG1       -0.0394
     46 C           1.9889   -1.8429   -0.6776 C.ar    1  LIG1        0.0249
     47 N           1.2832   -0.6997   -0.4951 N.ar    1  LIG1       -0.3571
     48 H           0.3413   -0.6322   -0.1324 H       1  LIG1        0.1656
     49 C           2.0813    0.3910   -0.8240 C.ar    1  LIG1        0.0543
     50 C          -0.6381    1.9640   -1.5616 C.3     1  LIG1       -0.0332
     51 C          -1.9898    2.7547   -1.6427 C.3     1  LIG1       -0.0034
     52 H          -1.7501    3.6277   -2.2679 H       1  LIG1        0.0355
     53 C          -2.5419    3.2917   -0.3049 C.3     1  LIG1        0.0787
     54 H          -1.7257    3.6648    0.3201 H       1  LIG1        0.0435
     55 C          -3.4274    4.5399   -0.4635 C.2     1  LIG1        0.3120
     56 O          -3.8919    5.1672    0.4707 O.2     1  LIG1       -0.2505
     57 O          -3.6427    4.8322   -1.7768 O.3     1  LIG1       -0.4677
     58 C          -4.7583    5.6628   -2.0821 C.3     1  LIG1        0.0817
     59 H          -2.9538   -0.1808   -4.8402 H       1  LIG1        0.0272
     60 H          -3.9287    1.1565   -5.4784 H       1  LIG1        0.0272
     61 H          -4.4761    0.2466   -4.0611 H       1  LIG1        0.0272
     62 H          -1.9326    2.0238   -4.2001 H       1  LIG1        0.0569
     63 H          -4.1245    0.2759   -1.5708 H       1  LIG1        0.0473
     64 H          -5.1431    1.5216   -2.3040 H       1  LIG1        0.0473
     65 H          -6.5345    1.2809   -0.2451 H       1  LIG1        0.0391
     66 H          -5.8343    1.7842    1.2821 H       1  LIG1        0.0391
     67 H          -5.3567    0.2314    0.5662 H       1  LIG1        0.0391
     68 H          -2.3309    0.3107   -0.1624 H       1  LIG1        0.0329
     69 H          -3.1606    0.2467    1.3494 H       1  LIG1        0.0329
     70 H           1.7123    1.7206    4.7146 H       1  LIG1        0.0638
     71 H           0.3938    0.5121    6.4443 H       1  LIG1        0.0618
     72 H          -1.7472   -0.5704    5.8583 H       1  LIG1        0.0618
     73 H          -2.6730   -0.3674    3.5749 H       1  LIG1        0.0624
     74 H           3.6475    5.8554   -1.3951 H       1  LIG1        0.0660
     75 H           4.1171    4.6329   -2.5839 H       1  LIG1        0.0660
     76 H           4.7257    4.5711   -0.8862 H       1  LIG1        0.0660
     77 H           4.9909    2.7059   -1.7624 H       1  LIG1        0.0654
     78 H           5.3616    0.3580   -1.7513 H       1  LIG1        0.0625
     79 H           5.2708   -2.1000   -1.6662 H       1  LIG1        0.0326
     80 H           4.0099   -3.0006   -2.4848 H       1  LIG1        0.0326
     81 H           5.2066   -3.4355    0.2621 H       1  LIG1        0.0430
     82 H           5.2274   -4.5329   -1.0828 H       1  LIG1        0.0430
     83 H           3.1136   -6.6237   -0.4163 H       1  LIG1        0.0429
     84 H           2.8655   -5.4730   -1.7295 H       1  LIG1        0.0429
     85 H           1.4984   -6.6606    1.5576 H       1  LIG1        0.0271
     86 H           0.0067   -5.7286    1.5530 H       1  LIG1        0.0271
     87 H           0.0735   -3.2505    2.1705 H       1  LIG1        0.0266
     88 H           0.4512   -4.2779    3.5469 H       1  LIG1        0.0266
     89 H           1.9740   -1.7589    2.7047 H       1  LIG1        0.0230
     90 H           2.5000   -2.8540    4.0007 H       1  LIG1        0.0230
     91 H           0.9644   -1.9842    4.1278 H       1  LIG1        0.0230
     92 H           0.2123   -4.1343   -1.6754 H       1  LIG1        0.0275
     93 H          -0.3592   -3.9419   -0.0196 H       1  LIG1        0.0275
     94 H          -0.8364    0.8854   -1.5791 H       1  LIG1        0.0281
     95 H          -0.1316    2.1565   -2.5201 H       1  LIG1        0.0281
     96 H          -5.4545    5.7729   -1.2470 H       1  LIG1        0.0661
     97 H          -5.2915    5.1832   -2.9088 H       1  LIG1        0.0661
     98 H          -4.4028    6.6395   -2.4182 H       1  LIG1        0.0661
@<TRIPOS>BOND
     1     1     2    1
     2     2     3    2
     3     3     4    1
     4     4     5    1
     5     5     6    1
     6     5     7    1
     7     7     8    1
     8     7     9    1
     9     9    10    1
    10    10    11   ar
    11    11    12   ar
    12    12    13    1
    13    12    14   ar
    14    14    15   ar
    15    15    16   ar
    16    16    17   ar
    17    17    18   ar
    18    18    19   ar
    19    10    19   ar
    20    14    19   ar
    21    11    20    1
    22    20    21    1
    23    22    23   ar
    24    24    25    1
    25    23    26   ar
    26    26    27   ar
    27    27    28   ar
    28    28    29   ar
    29    29    30    1
    30    30    31    1
    31    31    32    1
    32    32    33    1
    33    33    34    1
    34    34    36    1
    35    36    37    1
    36    39    40    1
    37    37    41    1
    38    32    41    1
    39    41    43    1
    40    43    45    1
    41    34    45    1
    42    43    46    1
    43    29    46   ar
    44    46    47   ar
    45    47    49   ar
    46    22    49   ar
    47    28    49   ar
    48    20    50    1
    49    50    51    1
    50    51    52    1
    51     3    51    1
    52    51    53    1
    53    53    54    1
    54     7    53    1
    55    53    55    1
    56    55    56    2
    57    55    57    1
    58    57    58    1
    59    20    22    1
    60    23    24    1
    61    34    35    1
    62    37    38    1
    63    37    39    1
    64    41    42    1
    65    43    44    1
    66    47    48    1
    67     1    59    1
    68     1    60    1
    69     1    61    1
    70     2    62    1
    71     4    63    1
    72     4    64    1
    73     6    65    1
    74     6    66    1
    75     6    67    1
    76     9    68    1
    77     9    69    1
    78    15    70    1
    79    16    71    1
    80    17    72    1
    81    18    73    1
    82    25    74    1
    83    25    75    1
    84    25    76    1
    85    26    77    1
    86    27    78    1
    87    30    79    1
    88    30    80    1
    89    31    81    1
    90    31    82    1
    91    33    83    1
    92    33    84    1
    93    36    85    1
    94    36    86    1
    95    39    87    1
    96    39    88    1
    97    40    89    1
    98    40    90    1
    99    40    91    1
   100    45    92    1
   101    45    93    1
   102    50    94    1
   103    50    95    1
   104    58    96    1
   105    58    97    1
   106    58    98    1
