@<TRIPOS>MOLECULE
NuBBE_1372
 28 29 0 0 0
SMALL
GASTEIGER

@<TRIPOS>ATOM
      1 O          -4.2467   -0.4810   -0.0102 O.2     1  LIG1       -0.2451
      2 C          -3.0221   -0.4299   -0.0194 C.ar    1  LIG1        0.3408
      3 C          -2.2257   -1.6493   -0.1706 C.ar    1  LIG1        0.0652
      4 C          -0.8851   -1.6554   -0.1852 C.ar    1  LIG1        0.1378
      5 C          -0.1506   -0.3768   -0.0411 C.ar    1  LIG1        0.0623
      6 C           1.2542   -0.2193   -0.0314 C.ar    1  LIG1       -0.0328
      7 C           1.8073    1.0741    0.1128 C.ar    1  LIG1       -0.0161
      8 C           1.0104    2.2121    0.2485 C.ar    1  LIG1        0.1239
      9 C          -0.3670    2.0660    0.2417 C.ar    1  LIG1        0.0232
     10 C          -0.9199    0.7882    0.0990 C.ar    1  LIG1        0.1463
     11 O          -2.3306    0.7550    0.1076 O.2     1  LIG1       -0.4218
     12 O           1.6984    3.3855    0.3781 O.3     1  LIG1       -0.4950
     13 C           0.9255    4.5716    0.5185 C.3     1  LIG1        0.0788
     14 C           2.2244   -1.3636   -0.1675 C.3     1  LIG1       -0.0388
     15 O          -0.1048   -2.7806   -0.3281 O.3     1  LIG1       -0.4942
     16 C          -0.7413   -4.0446   -0.4734 C.3     1  LIG1        0.0788
     17 H          -2.8236   -2.5448   -0.2702 H       1  LIG1        0.0726
     18 H           2.8894    1.2024    0.1204 H       1  LIG1        0.0657
     19 H          -1.0381    2.9113    0.3438 H       1  LIG1        0.0691
     20 H           1.6186    5.4134    0.6103 H       1  LIG1        0.0660
     21 H           0.3167    4.5404    1.4282 H       1  LIG1        0.0660
     22 H           0.3054    4.7455   -0.3671 H       1  LIG1        0.0660
     23 H           2.0983   -2.0749    0.6546 H       1  LIG1        0.0278
     24 H           3.2637   -1.0182   -0.1275 H       1  LIG1        0.0278
     25 H           2.0961   -1.8640   -1.1323 H       1  LIG1        0.0278
     26 H           0.0393   -4.8043   -0.5750 H       1  LIG1        0.0660
     27 H          -1.3572   -4.0710   -1.3781 H       1  LIG1        0.0660
     28 H          -1.3351   -4.2877    0.4137 H       1  LIG1        0.0660
@<TRIPOS>BOND
     1     1     2    2
     2     2     3   ar
     3     3     4   ar
     4     4     5   ar
     5     5     6   ar
     6     6     7   ar
     7     7     8   ar
     8     8     9   ar
     9     9    10   ar
    10     5    10   ar
    11    10    11   ar
    12     2    11   ar
    13     8    12    1
    14    12    13    1
    15     6    14    1
    16     4    15    1
    17    15    16    1
    18     3    17    1
    19     7    18    1
    20     9    19    1
    21    13    20    1
    22    13    21    1
    23    13    22    1
    24    14    23    1
    25    14    24    1
    26    14    25    1
    27    16    26    1
    28    16    27    1
    29    16    28    1
