@<TRIPOS>MOLECULE
NuBBE_327
 50 54 0 0 0
SMALL
GASTEIGER

@<TRIPOS>ATOM
      1 H           0.0280    1.0896   -0.0916 H       1  LIG1        0.0357
      2 C           1.1256    1.1059   -0.1299 C.3     1  LIG1        0.0029
      3 C           1.5263    2.4841   -0.6171 C.2     1  LIG1        0.0742
      4 C           1.3834    2.8334   -2.0517 C.2     1  LIG1        0.3381
      5 O           2.0342    3.9913   -2.3510 O.3     1  LIG1       -0.4646
      6 C           1.8933    4.4430   -3.6975 C.3     1  LIG1        0.0820
      7 O           0.7447    2.1628   -2.8480 O.2     1  LIG1       -0.2452
      8 C           1.9354    3.4282    0.2477 C.2     1  LIG1        0.0951
      9 O           1.9992    3.3115    1.6141 O.2     1  LIG1       -0.4957
     10 C           1.3974    2.1271    2.1698 C.3     1  LIG1        0.1011
     11 H           1.8815    1.9783    3.1429 H       1  LIG1        0.0733
     12 C          -0.0837    2.4046    2.4367 C.3     1  LIG1       -0.0275
     13 C           1.7013    0.9079    1.2887 C.3     1  LIG1        0.0157
     14 C           1.2282   -0.4121    1.8923 C.3     1  LIG1        0.0063
     15 N           1.6627   -1.5477    1.0624 N.3     1  LIG1       -0.2933
     16 C           1.2324   -2.8387    1.6647 C.3     1  LIG1        0.0036
     17 C          -0.3004   -3.0633    1.7411 C.3     1  LIG1       -0.0125
     18 C          -0.9658   -2.5385    0.5140 C.ar    1  LIG1       -0.0164
     19 C          -0.2749   -1.7835   -0.4168 C.ar    1  LIG1        0.0376
     20 N          -1.1475   -1.4586   -1.4206 N.ar    1  LIG1       -0.3564
     21 H          -0.9256   -0.9242   -2.2502 H       1  LIG1        0.1656
     22 C          -2.4046   -1.9483   -1.1253 C.ar    1  LIG1        0.0470
     23 C          -3.6053   -1.8397   -1.8376 C.ar    1  LIG1       -0.0378
     24 C          -4.7447   -2.4349   -1.2853 C.ar    1  LIG1       -0.0598
     25 C          -4.6850   -3.1139   -0.0704 C.ar    1  LIG1       -0.0611
     26 C          -3.4769   -3.2206    0.6268 C.ar    1  LIG1       -0.0523
     27 C          -2.3162   -2.6294    0.0912 C.ar    1  LIG1        0.0032
     28 C           1.1909   -1.4450   -0.3464 C.3     1  LIG1        0.0515
     29 H           1.7158   -2.2199   -0.9233 H       1  LIG1        0.0527
     30 C           1.5800   -0.0936   -0.9800 C.3     1  LIG1       -0.0243
     31 H           2.7993    0.8554    1.2007 H       1  LIG1        0.0355
     32 H           2.5290    3.8485   -4.3581 H       1  LIG1        0.0661
     33 H           2.2303    5.4848   -3.7334 H       1  LIG1        0.0661
     34 H           0.8501    4.4129   -4.0254 H       1  LIG1        0.0661
     35 H           2.2507    4.4295   -0.0279 H       1  LIG1        0.1028
     36 H          -0.6370    2.6120    1.5151 H       1  LIG1        0.0265
     37 H          -0.1899    3.2993    3.0602 H       1  LIG1        0.0265
     38 H          -0.5671    1.5708    2.9524 H       1  LIG1        0.0265
     39 H           0.1406   -0.3927    2.0200 H       1  LIG1        0.0431
     40 H           1.6653   -0.5166    2.8931 H       1  LIG1        0.0431
     41 H           1.6639   -2.9422    2.6682 H       1  LIG1        0.0430
     42 H           1.6789   -3.6503    1.0740 H       1  LIG1        0.0430
     43 H          -0.7069   -2.5444    2.6174 H       1  LIG1        0.0326
     44 H          -0.5087   -4.1320    1.8632 H       1  LIG1        0.0326
     45 H          -3.6580   -1.3108   -2.7834 H       1  LIG1        0.0638
     46 H          -5.6930   -2.3647   -1.8133 H       1  LIG1        0.0618
     47 H          -5.5836   -3.5660    0.3420 H       1  LIG1        0.0618
     48 H          -3.4381   -3.7510    1.5733 H       1  LIG1        0.0624
     49 H           1.1713   -0.0390   -1.9935 H       1  LIG1        0.0290
     50 H           2.6728   -0.0593   -1.0941 H       1  LIG1        0.0290
@<TRIPOS>BOND
     1     2     3    1
     2     4     5    1
     3     5     6    1
     4     4     7    2
     5     3     8    2
     6     8     9    1
     7     9    10    1
     8     2    13    1
     9    13    14    1
    10    14    15    1
    11    15    16    1
    12    16    17    1
    13    17    18    1
    14    18    19   ar
    15    19    20   ar
    16    20    22   ar
    17    22    23   ar
    18    23    24   ar
    19    24    25   ar
    20    25    26   ar
    21    26    27   ar
    22    18    27   ar
    23    22    27   ar
    24    15    28    1
    25    19    28    1
    26    28    30    1
    27     2    30    1
    28    10    13    1
    29     1     2    1
    30     3     4    1
    31    13    31    1
    32    20    21    1
    33    28    29    1
    34    10    12    1
    35    10    11    1
    36     6    32    1
    37     6    33    1
    38     6    34    1
    39     8    35    1
    40    12    36    1
    41    12    37    1
    42    12    38    1
    43    14    39    1
    44    14    40    1
    45    16    41    1
    46    16    42    1
    47    17    43    1
    48    17    44    1
    49    23    45    1
    50    24    46    1
    51    25    47    1
    52    26    48    1
    53    30    49    1
    54    30    50    1
