REMARK  Name = NuBBE_1419
REMARK  9 active torsions:
REMARK  status: ('A' for Active; 'I' for Inactive)
REMARK    1  A    between atoms: O_1  and  C_2
REMARK    2  A    between atoms: O_1  and  C_3
REMARK    3  A    between atoms: C_5  and  C_15
REMARK    4  A    between atoms: C_8  and  O_9
REMARK    5  A    between atoms: O_9  and  C_10
REMARK    6  A    between atoms: C_10  and  C_11
REMARK    7  A    between atoms: C_12  and  C_13
REMARK    8  A    between atoms: C_12  and  C_14
REMARK    9  A    between atoms: C_23  and  C_27
REMARK                            x       y       z     vdW  Elec       q    Type
REMARK                         _______ _______ _______ _____ _____    ______ ____
ROOT
ATOM      1  C   LIG A   1      -1.561   0.327   0.662  0.00  0.00    +0.154 C 
ATOM      2  C   LIG A   1      -1.241   0.461  -0.835  0.00  0.00    +0.056 C 
ATOM      3  C   LIG A   1      -1.636   1.879  -1.153  0.00  0.00    +0.056 C 
ATOM      4  C   LIG A   1      -1.346   2.602   0.137  0.00  0.00    +0.167 C 
ATOM      5  O   LIG A   1      -1.619   1.673   1.190  0.00  0.00    -0.371 OA
ATOM      6  C   LIG A   1      -3.130   1.763  -1.474  0.00  0.00    +0.154 C 
ATOM      7  O   LIG A   1      -3.377   0.384  -1.827  0.00  0.00    -0.371 OA
ATOM      8  C   LIG A   1      -2.151  -0.348  -1.725  0.00  0.00    +0.167 C 
ENDROOT
BRANCH   6   9
ATOM      9  C   LIG A   1      -3.562   2.679  -2.602  0.00  0.00    -0.015 A 
ATOM     10  C   LIG A   1      -3.514   2.250  -3.941  0.00  0.00    +0.055 A 
ATOM     11  C   LIG A   1      -3.922   3.122  -4.927  0.00  0.00    +0.167 A 
ATOM     12  C   LIG A   1      -4.360   4.391  -4.636  0.00  0.00    +0.166 A 
ATOM     13  C   LIG A   1      -4.415   4.857  -3.341  0.00  0.00    +0.050 A 
ATOM     14  C   LIG A   1      -4.009   3.992  -2.317  0.00  0.00    +0.010 A 
ATOM     15  O   LIG A   1      -4.715   5.084  -5.750  0.00  0.00    -0.453 OA
ATOM     16  C   LIG A   1      -4.460   4.100  -6.775  0.00  0.00    +0.466 C 
ATOM     17  O   LIG A   1      -3.945   2.856  -6.260  0.00  0.00    -0.453 OA
ENDBRANCH   6   9
BRANCH   1  20
ATOM     18  C   LIG A   1       1.176  -0.760   3.135  0.00  0.00    +0.162 A 
ATOM     19  C   LIG A   1       0.206   0.006   2.478  0.00  0.00    +0.055 A 
ATOM     20  C   LIG A   1      -0.543  -0.517   1.409  0.00  0.00    -0.015 A 
ATOM     21  C   LIG A   1      -0.342  -1.858   1.052  0.00  0.00    +0.010 A 
ATOM     22  C   LIG A   1       0.615  -2.636   1.705  0.00  0.00    +0.050 A 
ATOM     23  C   LIG A   1       1.401  -2.083   2.721  0.00  0.00    +0.162 A 
BRANCH  18  24
ATOM     24  O   LIG A   1       1.964  -0.301   4.161  0.00  0.00    -0.491 OA
ATOM     25  C   LIG A   1       1.773   1.044   4.580  0.00  0.00    +0.277 C 
ENDBRANCH  18  24
BRANCH  23  26
ATOM     26  O   LIG A   1       2.393  -2.782   3.367  0.00  0.00    -0.484 OA
BRANCH  26  27
ATOM     27  C   LIG A   1       3.060  -3.767   2.576  0.00  0.00    +0.257 C 
BRANCH  27  28
ATOM     28  C   LIG A   1       4.452  -3.948   3.116  0.00  0.00    +0.012 C 
ATOM     29  C   LIG A   1       5.558  -4.284   2.429  0.00  0.00    -0.076 C 
ATOM     30  C   LIG A   1       5.608  -4.553   0.947  0.00  0.00    +0.038 C 
ATOM     31  C   LIG A   1       6.880  -4.444   3.133  0.00  0.00    +0.038 C 
ENDBRANCH  27  28
ENDBRANCH  26  27
ENDBRANCH  23  26
ENDBRANCH   1  20
TORSDOF 6
