@<TRIPOS>MOLECULE
NuBBE_1508
 61 65 0 0 0
SMALL
GASTEIGER

@<TRIPOS>ATOM
      1 O           0.5545    2.0452    3.6186 O.3     1  LIG1       -0.4287
      2 C          -0.3380    1.5254    4.5006 C.2     1  LIG1        0.3064
      3 O          -1.3596    0.9192    4.2074 O.2     1  LIG1       -0.2511
      4 C           0.1194    1.7516    5.9062 C.3     1  LIG1        0.0333
      5 C           0.2726    1.8517    2.2268 C.3     1  LIG1        0.2532
      6 C           0.4812    0.3807    1.8021 C.3     1  LIG1        0.0250
      7 C           0.5313    0.5482    0.2793 C.3     1  LIG1        0.0064
      8 C           1.4719    1.7771    0.2353 C.3     1  LIG1        0.0584
      9 O           1.2885    2.5245    1.4451 O.3     1  LIG1       -0.3358
     10 C           1.1540   -0.6313   -0.5169 C.3     1  LIG1       -0.0297
     11 H           2.1451   -0.8438   -0.0884 H       1  LIG1        0.0310
     12 C           0.3269   -1.9272   -0.3731 C.3     1  LIG1       -0.0339
     13 H           0.5136   -2.2856    0.6525 H       1  LIG1        0.0307
     14 C           0.8935   -3.0924   -1.2580 C.3     1  LIG1       -0.0255
     15 H           1.7817   -3.4647   -0.7275 H       1  LIG1        0.0313
     16 C           1.3088   -2.7167   -2.7047 C.3     1  LIG1       -0.0219
     17 C           2.0269   -1.3672   -2.7955 C.3     1  LIG1       -0.0467
     18 C           1.3894   -0.2492   -1.9944 C.3     1  LIG1       -0.0488
     19 C           2.2779   -3.7685   -3.3072 C.3     1  LIG1       -0.0589
     20 C          -0.0208   -2.7770   -3.4781 C.3     1  LIG1        0.0115
     21 C          -0.7415   -3.9002   -2.7647 C.2     1  LIG1        0.1342
     22 O          -1.7476   -4.4471   -3.1972 O.2     1  LIG1       -0.2974
     23 C          -0.0816   -4.2647   -1.4533 C.3     1  LIG1        0.0094
     24 C          -1.1989   -1.6657   -0.3821 C.3     1  LIG1       -0.0494
     25 C          -1.6340   -0.3005   -0.8992 C.3     1  LIG1       -0.0492
     26 C          -0.9100    0.8900   -0.2388 C.3     1  LIG1       -0.0292
     27 H          -0.8247    1.6698   -1.0084 H       1  LIG1        0.0308
     28 C          -1.8332    1.4503    0.8661 C.3     1  LIG1       -0.0060
     29 C          -1.1148    2.4285    1.7890 C.3     1  LIG1        0.1682
     30 H          -1.7716    2.6030    2.6446 H       1  LIG1        0.0801
     31 O          -1.0136    3.6503    1.0208 O.3     1  LIG1       -0.4549
     32 C          -1.5136    4.7669    1.6149 C.2     1  LIG1        0.3044
     33 O          -1.6984    4.9253    2.8049 O.2     1  LIG1       -0.2512
     34 C          -1.9931    5.7019    0.5436 C.3     1  LIG1        0.0332
     35 H          -0.6387    1.3653    6.5943 H       1  LIG1        0.0342
     36 H           0.2496    2.8191    6.0977 H       1  LIG1        0.0342
     37 H           1.0519    1.2078    6.0733 H       1  LIG1        0.0342
     38 H          -0.2950   -0.2995    2.1629 H       1  LIG1        0.0336
     39 H           1.4363    0.0011    2.1897 H       1  LIG1        0.0336
     40 H           1.2996    2.4310   -0.6241 H       1  LIG1        0.0567
     41 H           2.5260    1.4729    0.2207 H       1  LIG1        0.0567
     42 H           2.1019   -1.0540   -3.8452 H       1  LIG1        0.0271
     43 H           3.0594   -1.4792   -2.4378 H       1  LIG1        0.0271
     44 H           0.4712    0.0627   -2.4945 H       1  LIG1        0.0268
     45 H           2.0578    0.6178   -2.0527 H       1  LIG1        0.0268
     46 H           3.1955   -3.8415   -2.7127 H       1  LIG1        0.0235
     47 H           2.5652   -3.4878   -4.3280 H       1  LIG1        0.0235
     48 H           1.8401   -4.7696   -3.3629 H       1  LIG1        0.0235
     49 H           0.1144   -3.0181   -4.5359 H       1  LIG1        0.0347
     50 H          -0.6123   -1.8649   -3.3789 H       1  LIG1        0.0347
     51 H           0.4542   -5.2098   -1.5860 H       1  LIG1        0.0344
     52 H          -0.8042   -4.3747   -0.6428 H       1  LIG1        0.0344
     53 H          -1.5573   -1.7556    0.6531 H       1  LIG1        0.0268
     54 H          -1.7604   -2.4240   -0.9289 H       1  LIG1        0.0268
     55 H          -2.7202   -0.2055   -0.7681 H       1  LIG1        0.0268
     56 H          -1.4930   -0.2633   -1.9828 H       1  LIG1        0.0268
     57 H          -2.2375    0.6292    1.4710 H       1  LIG1        0.0306
     58 H          -2.6942    1.9431    0.3960 H       1  LIG1        0.0306
     59 H          -2.9213    5.2997    0.1247 H       1  LIG1        0.0342
     60 H          -1.2420    5.8026   -0.2435 H       1  LIG1        0.0342
     61 H          -2.1893    6.6876    0.9712 H       1  LIG1        0.0342
@<TRIPOS>BOND
     1     1     2    1
     2     2     3    2
     3     2     4    1
     4     5     6    1
     5     6     7    1
     6     7     8    1
     7     8     9    1
     8     5     9    1
     9     7    10    1
    10    10    12    1
    11    12    14    1
    12    14    16    1
    13    16    17    1
    14    17    18    1
    15    10    18    1
    16    16    20    1
    17    20    21    1
    18    21    23    1
    19    14    23    1
    20    12    24    1
    21    24    25    1
    22    25    26    1
    23     7    26    1
    24    26    28    1
    25    28    29    1
    26     5    29    1
    27    31    32    1
    28    32    33    2
    29    32    34    1
    30     1     5    1
    31    10    11    1
    32    12    13    1
    33    14    15    1
    34    16    19    1
    35    21    22    2
    36    26    27    1
    37    29    31    1
    38    29    30    1
    39     4    35    1
    40     4    36    1
    41     4    37    1
    42     6    38    1
    43     6    39    1
    44     8    40    1
    45     8    41    1
    46    17    42    1
    47    17    43    1
    48    18    44    1
    49    18    45    1
    50    19    46    1
    51    19    47    1
    52    19    48    1
    53    20    49    1
    54    20    50    1
    55    23    51    1
    56    23    52    1
    57    24    53    1
    58    24    54    1
    59    25    55    1
    60    25    56    1
    61    28    57    1
    62    28    58    1
    63    34    59    1
    64    34    60    1
    65    34    61    1
