REMARK  Name = NuBBE_1222
REMARK  10 active torsions:
REMARK  status: ('A' for Active; 'I' for Inactive)
REMARK    1  A    between atoms: C_4  and  C_17
REMARK    2  A    between atoms: C_8  and  O_9
REMARK    3  A    between atoms: C_11  and  O_12
REMARK    4  A    between atoms: O_12  and  C_13
REMARK    5  A    between atoms: C_14  and  O_15
REMARK    6  A    between atoms: O_15  and  C_16
REMARK    7  A    between atoms: C_20  and  O_25
REMARK    8  A    between atoms: C_21  and  O_22
REMARK    9  A    between atoms: O_22  and  C_23
REMARK   10  A    between atoms: O_25  and  C_26
REMARK                            x       y       z     vdW  Elec       q    Type
REMARK                         _______ _______ _______ _____ _____    ______ ____
ROOT
ATOM      1  O   LIG A   1      -4.106   1.154  -0.227  0.00  0.00    -0.287 OA
ATOM      2  C   LIG A   1      -2.891   1.075  -0.174  0.00  0.00    +0.197 A 
ATOM      3  C   LIG A   1      -2.210  -0.221  -0.142  0.00  0.00    +0.098 A 
ATOM      4  C   LIG A   1      -0.871  -0.252  -0.142  0.00  0.00    +0.140 A 
ATOM      5  O   LIG A   1      -0.080   0.892  -0.159  0.00  0.00    -0.451 OA
ATOM      6  C   LIG A   1      -0.665   2.138  -0.074  0.00  0.00    +0.188 A 
ATOM      7  C   LIG A   1      -2.052   2.279  -0.112  0.00  0.00    +0.109 A 
ATOM      8  C   LIG A   1      -2.649   3.537  -0.065  0.00  0.00    +0.135 A 
ATOM      9  C   LIG A   1      -1.860   4.676  -0.008  0.00  0.00    +0.095 A 
ATOM     10  C   LIG A   1      -0.466   4.570   0.009  0.00  0.00    +0.169 A 
ATOM     11  C   LIG A   1       0.147   3.289   0.027  0.00  0.00    +0.205 A 
ENDROOT
BRANCH   4  12
ATOM     12  C   LIG A   1      -0.118  -1.527  -0.087  0.00  0.00    +0.021 A 
ATOM     13  C   LIG A   1       1.138  -1.575   0.522  0.00  0.00    +0.015 A 
ATOM     14  C   LIG A   1       1.875  -2.762   0.576  0.00  0.00    +0.050 A 
ATOM     15  C   LIG A   1       1.372  -3.954   0.044  0.00  0.00    +0.162 A 
ATOM     16  C   LIG A   1       0.108  -3.930  -0.567  0.00  0.00    +0.162 A 
ATOM     17  C   LIG A   1      -0.609  -2.719  -0.643  0.00  0.00    +0.061 A 
BRANCH  16  18
ATOM     18  O   LIG A   1      -0.538  -4.972  -1.185  0.00  0.00    -0.491 OA
ATOM     19  C   LIG A   1      -0.266  -6.286  -0.714  0.00  0.00    +0.277 C 
ENDBRANCH  16  18
BRANCH  15  20
ATOM     20  O   LIG A   1       2.062  -5.134   0.086  0.00  0.00    -0.491 OA
ATOM     21  C   LIG A   1       3.377  -5.120   0.629  0.00  0.00    +0.277 C 
ENDBRANCH  15  20
ENDBRANCH   4  12
BRANCH   8  22
ATOM     22  O   LIG A   1      -4.000   3.739  -0.070  0.00  0.00    -0.506 OA
ATOM     23  H   LIG A   1      -4.443   2.861  -0.125  0.00  0.00    +0.292 HD
ENDBRANCH   8  22
BRANCH  10  24
ATOM     24  O   LIG A   1       0.349   5.681   0.043  0.00  0.00    -0.491 OA
ATOM     25  C   LIG A   1      -0.258   6.905  -0.382  0.00  0.00    +0.277 C 
ENDBRANCH  10  24
BRANCH  11  26
ATOM     26  O   LIG A   1       1.521   3.291   0.121  0.00  0.00    -0.488 OA
ATOM     27  C   LIG A   1       2.149   2.127   0.649  0.00  0.00    +0.277 C 
ENDBRANCH  11  26
TORSDOF 6
