REMARK  Name = NuBBE_1879
REMARK  16 active torsions:
REMARK  status: ('A' for Active; 'I' for Inactive)
REMARK    1  A    between atoms: C_4  and  O_30
REMARK    2  A    between atoms: C_5  and  O_6
REMARK    3  A    between atoms: O_6  and  C_7
REMARK    4  A    between atoms: C_8  and  O_28
REMARK    5  A    between atoms: C_12  and  C_13
REMARK    6  A    between atoms: C_16  and  O_23
REMARK    7  A    between atoms: C_17  and  O_18
REMARK    8  A    between atoms: O_18  and  C_19
REMARK    9  A    between atoms: C_20  and  O_21
REMARK   10  A    between atoms: O_21  and  C_22
REMARK   11  A    between atoms: O_23  and  C_24
REMARK   12  A    between atoms: C_25  and  O_26
REMARK   13  A    between atoms: O_26  and  C_27
REMARK   14  A    between atoms: O_28  and  C_29
REMARK   15  A    between atoms: O_30  and  C_31
REMARK   16  A    between atoms: C_31  and  C_32
REMARK                            x       y       z     vdW  Elec       q    Type
REMARK                         _______ _______ _______ _____ _____    ______ ____
ROOT
ATOM      1  O   LIG A   1      -3.337  -0.717   0.612  0.00  0.00    -0.283 OA
ATOM      2  C   LIG A   1      -2.193  -0.521   0.160  0.00  0.00    +0.238 A 
ATOM      3  C   LIG A   1      -1.340  -1.650  -0.162  0.00  0.00    +0.114 A 
ATOM      4  C   LIG A   1      -1.754  -2.929  -0.587  0.00  0.00    +0.191 A 
ATOM      5  C   LIG A   1      -0.804  -3.923  -0.887  0.00  0.00    +0.205 A 
ATOM      6  C   LIG A   1       0.569  -3.661  -0.705  0.00  0.00    +0.169 A 
ATOM      7  C   LIG A   1       0.971  -2.395  -0.287  0.00  0.00    +0.096 A 
ATOM      8  C   LIG A   1       0.032  -1.406  -0.042  0.00  0.00    +0.147 A 
ATOM      9  O   LIG A   1       0.528  -0.176   0.277  0.00  0.00    -0.451 OA
ATOM     10  C   LIG A   1      -0.264   0.909  -0.012  0.00  0.00    +0.184 A 
ATOM     11  C   LIG A   1      -1.596   0.835  -0.060  0.00  0.00    +0.211 A 
ENDROOT
BRANCH  10  12
ATOM     12  C   LIG A   1       0.540   2.110  -0.271  0.00  0.00    +0.067 A 
ATOM     13  C   LIG A   1       1.018   2.289  -1.580  0.00  0.00    +0.019 A 
ATOM     14  C   LIG A   1       1.884   3.338  -1.869  0.00  0.00    +0.050 A 
ATOM     15  C   LIG A   1       2.350   4.171  -0.842  0.00  0.00    +0.165 A 
ATOM     16  C   LIG A   1       1.889   3.996   0.486  0.00  0.00    +0.204 A 
ATOM     17  C   LIG A   1       0.932   2.995   0.761  0.00  0.00    +0.176 A 
BRANCH  16  18
ATOM     18  O   LIG A   1       2.325   4.908   1.409  0.00  0.00    -0.488 OA
ATOM     19  C   LIG A   1       2.830   4.429   2.651  0.00  0.00    +0.277 C 
ENDBRANCH  16  18
BRANCH  17  20
ATOM     20  O   LIG A   1       0.356   2.733   1.979  0.00  0.00    -0.491 OA
ATOM     21  C   LIG A   1       0.008   3.827   2.819  0.00  0.00    +0.277 C 
ENDBRANCH  17  20
BRANCH  15  22
ATOM     22  O   LIG A   1       3.239   5.128  -1.283  0.00  0.00    -0.491 OA
ATOM     23  C   LIG A   1       4.186   5.599  -0.329  0.00  0.00    +0.277 C 
ENDBRANCH  15  22
ENDBRANCH  10  12
BRANCH   5  24
ATOM     24  O   LIG A   1      -1.255  -5.079  -1.486  0.00  0.00    -0.488 OA
ATOM     25  C   LIG A   1      -0.724  -6.287  -0.936  0.00  0.00    +0.277 C 
ENDBRANCH   5  24
BRANCH  11  26
ATOM     26  O   LIG A   1      -2.368   1.974  -0.392  0.00  0.00    -0.488 OA
ATOM     27  C   LIG A   1      -3.699   1.974   0.117  0.00  0.00    +0.277 C 
ENDBRANCH  11  26
BRANCH   6  28
ATOM     28  O   LIG A   1       1.472  -4.627  -1.059  0.00  0.00    -0.491 OA
ATOM     29  C   LIG A   1       2.706  -4.599  -0.350  0.00  0.00    +0.277 C 
ENDBRANCH   6  28
BRANCH   4  30
ATOM     30  O   LIG A   1      -3.121  -3.117  -0.917  0.00  0.00    -0.421 OA
BRANCH  30  31
ATOM     31  C   LIG A   1      -3.713  -4.354  -0.647  0.00  0.00    +0.309 C 
ATOM     32  C   LIG A   1      -4.883  -4.560  -1.566  0.00  0.00    +0.136 C 
ATOM     33  O   LIG A   1      -3.369  -5.162   0.207  0.00  0.00    -0.251 OA
ENDBRANCH  30  31
ENDBRANCH   4  30
TORSDOF 9
