REMARK  Name = NuBBE_1955
REMARK  10 active torsions:
REMARK  status: ('A' for Active; 'I' for Inactive)
REMARK    1  A    between atoms: C_1  and  O_2
REMARK    2  A    between atoms: O_2  and  C_3
REMARK    3  A    between atoms: C_8  and  O_9
REMARK    4  A    between atoms: O_9  and  C_10
REMARK    5  A    between atoms: N_12  and  C_13
REMARK    6  A    between atoms: C_14  and  C_15
REMARK    7  A    between atoms: C_15  and  C_16
REMARK    8  A    between atoms: C_16  and  O_17
REMARK    9  A    between atoms: C_16  and  C_18
REMARK   10  A    between atoms: C_18  and  C_19
REMARK                            x       y       z     vdW  Elec       q    Type
REMARK                         _______ _______ _______ _____ _____    ______ ____
ROOT
ATOM      1  C   LIG A   1       0.474  -0.066   0.592  0.00  0.00    +0.138 A 
ATOM      2  C   LIG A   1       1.008  -0.938  -0.448  0.00  0.00    +0.044 A 
ATOM      3  C   LIG A   1       1.247  -2.294  -0.172  0.00  0.00    +0.014 A 
ATOM      4  C   LIG A   1       1.000  -3.234  -1.146  0.00  0.00    +0.004 A 
ATOM      5  C   LIG A   1       0.758  -2.800  -2.434  0.00  0.00    +0.048 A 
ATOM      6  C   LIG A   1       0.881  -1.439  -2.782  0.00  0.00    +0.144 A 
ATOM      7  C   LIG A   1       1.042  -0.485  -1.750  0.00  0.00    +0.097 A 
ATOM      8  N   LIG A   1       1.343   0.911  -1.873  0.00  0.00    -0.308 N 
ATOM      9  C   LIG A   1       2.444   1.246  -2.765  0.00  0.00    +0.152 C 
ATOM     10  C   LIG A   1       0.450   1.307   0.455  0.00  0.00    +0.062 A 
ATOM     11  C   LIG A   1       1.170   1.792  -0.795  0.00  0.00    +0.258 A 
ATOM     12  O   LIG A   1       1.629   2.963  -0.816  0.00  0.00    -0.267 OA
ENDROOT
BRANCH   1  14
ATOM     13  C   LIG A   1      -1.047  -1.724   1.391  0.00  0.00    +0.277 C 
ATOM     14  O   LIG A   1       0.002  -0.758   1.666  0.00  0.00    -0.494 OA
ENDBRANCH   1  14
BRANCH   6  15
ATOM     15  O   LIG A   1       0.777  -1.027  -4.091  0.00  0.00    -0.493 OA
ATOM     16  C   LIG A   1       0.431  -2.052  -5.032  0.00  0.00    +0.277 C 
ENDBRANCH   6  15
BRANCH  10  17
ATOM     17  C   LIG A   1      -0.018   2.467   1.382  0.00  0.00    +0.080 C 
BRANCH  17  18
ATOM     18  C   LIG A   1      -1.345   2.578   2.220  0.00  0.00    +0.144 C 
BRANCH  18  19
ATOM     19  C   LIG A   1      -1.571   1.737   3.466  0.00  0.00    -0.051 C 
ATOM     20  C   LIG A   1      -1.686   0.282   3.295  0.00  0.00    +0.041 C 
ATOM     21  C   LIG A   1      -1.771   2.146   4.727  0.00  0.00    +0.010 C 
ENDBRANCH  18  19
BRANCH  18  22
ATOM     22  O   LIG A   1      -2.462   2.417   1.339  0.00  0.00    -0.387 OA
ATOM     23  H   LIG A   1      -3.254   2.354   1.900  0.00  0.00    +0.210 HD
ENDBRANCH  18  22
ENDBRANCH  17  18
ENDBRANCH  10  17
TORSDOF 6
