@<TRIPOS>MOLECULE
NuBBE_449
 47 49 0 0 0
SMALL
GASTEIGER

@<TRIPOS>ATOM
      1 O           0.4480    3.6957    0.2852 O.3     1  LIG1       -0.3575
      2 C           1.8666    3.6150    0.3871 C.3     1  LIG1        0.2020
      3 H           2.2150    4.6309    0.6000 H       1  LIG1        0.1056
      4 C           2.2742    2.6900    1.5319 C.3     1  LIG1        0.0307
      5 H           1.7303    2.9762    2.4432 H       1  LIG1        0.0369
      6 C           3.8003    2.6917    1.7983 C.3     1  LIG1       -0.0348
      7 H           4.3565    2.9580    0.8906 H       1  LIG1        0.0303
      8 C           4.1916    3.6921    2.8792 C.3     1  LIG1       -0.0619
      9 C           4.1592    1.2468    2.1757 C.3     1  LIG1       -0.0494
     10 C           2.8361    0.4915    2.2107 C.3     1  LIG1       -0.0456
     11 C           1.9367    1.2236    1.2097 C.3     1  LIG1       -0.0048
     12 H           0.8830    1.0129    1.4300 H       1  LIG1        0.0352
     13 C           2.1910    0.9135   -0.2524 C.2     1  LIG1        0.0052
     14 C           2.1241   -0.5178   -0.7145 C.3     1  LIG1        0.1172
     15 O           0.7824   -0.9806   -0.5233 O.3     1  LIG1       -0.4570
     16 C           0.1104   -1.3261   -1.6496 C.2     1  LIG1        0.3323
     17 C          -1.2438   -1.7381   -1.2394 C.2     1  LIG1        0.0231
     18 C          -2.1421   -2.1509   -2.1473 C.2     1  LIG1       -0.0477
     19 C          -3.5063   -2.5615   -1.7869 C.ar    1  LIG1       -0.0211
     20 C          -4.1854   -1.9819   -0.6997 C.ar    1  LIG1       -0.0509
     21 C          -5.4810   -2.3773   -0.3633 C.ar    1  LIG1       -0.0160
     22 C          -6.1100   -3.3448   -1.1318 C.ar    1  LIG1        0.1582
     23 O          -7.3774   -3.7723   -0.8514 O.3     1  LIG1       -0.5033
     24 C          -5.4565   -3.9081   -2.2243 C.ar    1  LIG1        0.1588
     25 O          -6.0903   -4.8577   -2.9773 O.3     1  LIG1       -0.5033
     26 C          -4.1658   -3.5231   -2.5642 C.ar    1  LIG1       -0.0094
     27 O           0.5221   -1.2996   -2.7941 O.2     1  LIG1       -0.2456
     28 C           2.4377    1.8973   -1.1339 C.2     1  LIG1        0.0906
     29 O           2.4288    3.2410   -0.8722 O.2     1  LIG1       -0.4709
     30 H           0.1626    2.8222   -0.0311 H       1  LIG1        0.2135
     31 H           5.2754    3.6825    3.0362 H       1  LIG1        0.0233
     32 H           3.7098    3.4582    3.8342 H       1  LIG1        0.0233
     33 H           3.9024    4.7079    2.5911 H       1  LIG1        0.0233
     34 H           4.6950    1.1642    3.1266 H       1  LIG1        0.0268
     35 H           4.8054    0.8184    1.3996 H       1  LIG1        0.0268
     36 H           2.4034    0.5767    3.2165 H       1  LIG1        0.0271
     37 H           2.9649   -0.5746    2.0082 H       1  LIG1        0.0271
     38 H           2.4619   -0.6184   -1.7521 H       1  LIG1        0.0747
     39 H           2.7843   -1.1527   -0.1174 H       1  LIG1        0.0747
     40 H          -1.4605   -1.6908   -0.1802 H       1  LIG1        0.0689
     41 H          -1.8761   -2.2118   -3.2017 H       1  LIG1        0.0626
     42 H          -3.7142   -1.2061   -0.1009 H       1  LIG1        0.0625
     43 H          -5.9708   -1.9197    0.4904 H       1  LIG1        0.0655
     44 H          -7.6967   -3.2760   -0.0782 H       1  LIG1        0.2923
     45 H          -6.9643   -4.9636   -2.5535 H       1  LIG1        0.2923
     46 H          -3.6841   -3.9825   -3.4229 H       1  LIG1        0.0661
     47 H           2.6664    1.7295   -2.1809 H       1  LIG1        0.1025
@<TRIPOS>BOND
     1     2     4    1
     2     4     6    1
     3     6     9    1
     4     9    10    1
     5    10    11    1
     6     4    11    1
     7    11    13    1
     8    14    15    1
     9    15    16    1
    10    16    17    1
    11    17    18    2
    12    18    19    1
    13    19    20   ar
    14    20    21   ar
    15    21    22   ar
    16    22    23    1
    17    22    24   ar
    18    24    25    1
    19    24    26   ar
    20    19    26   ar
    21    16    27    2
    22    13    28    2
    23    28    29    1
    24     2    29    1
    25     1     2    1
    26     2     3    1
    27     4     5    1
    28    11    12    1
    29    13    14    1
    30     6     8    1
    31     6     7    1
    32     1    30    1
    33     8    31    1
    34     8    32    1
    35     8    33    1
    36     9    34    1
    37     9    35    1
    38    10    36    1
    39    10    37    1
    40    14    38    1
    41    14    39    1
    42    17    40    1
    43    18    41    1
    44    20    42    1
    45    21    43    1
    46    23    44    1
    47    25    45    1
    48    26    46    1
    49    28    47    1
