REMARK  Name = NuBBE_2269
REMARK  6 active torsions:
REMARK  status: ('A' for Active; 'I' for Inactive)
REMARK    1  A    between atoms: C_1  and  C_24
REMARK    2  A    between atoms: C_4  and  C_7
REMARK    3  A    between atoms: C_10  and  C_12
REMARK    4  A    between atoms: C_12  and  C_13
REMARK    5  A    between atoms: C_12  and  C_14
REMARK    6  A    between atoms: C_12  and  O_15
REMARK                            x       y       z     vdW  Elec       q    Type
REMARK                         _______ _______ _______ _____ _____    ______ ____
ROOT
ATOM      1  C   LIG A   1       3.469   0.488   0.149  0.00  0.00    -0.043 A 
ATOM      2  C   LIG A   1       2.074   0.205   0.121  0.00  0.00    -0.012 A 
ATOM      3  C   LIG A   1       1.117   1.258   0.115  0.00  0.00    +0.013 A 
ATOM      4  C   LIG A   1       1.624   2.603   0.142  0.00  0.00    -0.041 A 
ATOM      5  C   LIG A   1       3.006   2.854   0.169  0.00  0.00    +0.004 A 
ATOM      6  C   LIG A   1       3.915   1.811   0.172  0.00  0.00    +0.004 A 
ATOM      7  C   LIG A   1       0.728   3.821   0.144  0.00  0.00    +0.044 C 
ATOM      8  C   LIG A   1      -0.273   0.923   0.077  0.00  0.00    +0.098 A 
ATOM      9  C   LIG A   1      -0.690  -0.435   0.058  0.00  0.00    +0.096 A 
ATOM     10  C   LIG A   1       0.252  -1.465   0.080  0.00  0.00    +0.011 A 
ATOM     11  C   LIG A   1       1.613  -1.122   0.098  0.00  0.00    +0.017 A 
ATOM     12  N   LIG A   1      -2.002  -0.767   0.019  0.00  0.00    -0.243 NA
ATOM     13  C   LIG A   1      -2.919   0.212  -0.004  0.00  0.00    +0.090 A 
ATOM     14  C   LIG A   1      -2.526   1.555   0.015  0.00  0.00    +0.090 A 
ATOM     15  N   LIG A   1      -1.226   1.887   0.055  0.00  0.00    -0.243 NA
ATOM     16  C   LIG A   1      -3.499   2.548  -0.009  0.00  0.00    +0.030 A 
ATOM     17  C   LIG A   1      -4.858   2.232  -0.051  0.00  0.00    +0.002 A 
ATOM     18  C   LIG A   1      -5.247   0.900  -0.070  0.00  0.00    +0.002 A 
ATOM     19  C   LIG A   1      -4.274  -0.100  -0.047  0.00  0.00    +0.030 A 
ATOM     20  C   LIG A   1       4.517  -0.599   0.156  0.00  0.00    +0.044 C 
ENDROOT
BRANCH  10  21
ATOM     21  C   LIG A   1      -0.181  -2.942   0.028  0.00  0.00    +0.087 C 
ATOM     22  C   LIG A   1      -0.546  -3.325  -1.414  0.00  0.00    +0.046 C 
ATOM     23  C   LIG A   1       0.860  -3.942   0.557  0.00  0.00    +0.046 C 
BRANCH  21  24
ATOM     24  O   LIG A   1      -1.336  -3.173   0.846  0.00  0.00    -0.384 OA
ATOM     25  H   LIG A   1      -1.940  -2.420   0.680  0.00  0.00    +0.211 HD
ENDBRANCH  21  24
ENDBRANCH  10  21
TORSDOF 2
