REMARK  Name = NuBBE_2202
REMARK  2 active torsions:
REMARK  status: ('A' for Active; 'I' for Inactive)
REMARK    1  A    between atoms: C_9  and  O_12
REMARK    2  A    between atoms: O_12  and  C_13
REMARK                            x       y       z     vdW  Elec       q    Type
REMARK                         _______ _______ _______ _____ _____    ______ ____
ROOT
ATOM      1  O   LIG A   1      -2.241   2.497  -0.049  0.00  0.00    -0.267 OA
ATOM      2  C   LIG A   1      -1.022   2.569  -0.087  0.00  0.00    +0.256 A 
ATOM      3  N   LIG A   1      -0.212   1.421  -0.062  0.00  0.00    -0.274 N 
ATOM      4  C   LIG A   1       1.156   1.528  -0.107  0.00  0.00    +0.083 A 
ATOM      5  C   LIG A   1       1.736   0.280  -0.070  0.00  0.00    +0.011 A 
ATOM      6  C   LIG A   1       0.657  -0.653   0.002  0.00  0.00    +0.008 A 
ATOM      7  C   LIG A   1      -0.545   0.075   0.006  0.00  0.00    +0.061 A 
ATOM      8  C   LIG A   1      -1.793  -0.568   0.072  0.00  0.00    +0.072 A 
ATOM      9  C   LIG A   1      -1.835  -1.966   0.136  0.00  0.00    +0.122 A 
ATOM     10  C   LIG A   1      -0.652  -2.702   0.131  0.00  0.00    +0.046 A 
ATOM     11  C   LIG A   1       0.593  -2.060   0.065  0.00  0.00    +0.014 A 
ATOM     12  C   LIG A   1       3.138   0.224  -0.109  0.00  0.00    +0.030 A 
ATOM     13  C   LIG A   1       3.805   1.450  -0.181  0.00  0.00    +0.112 A 
ATOM     14  N   LIG A   1       3.210   2.670  -0.216  0.00  0.00    -0.254 NA
ATOM     15  C   LIG A   1       1.870   2.703  -0.178  0.00  0.00    +0.088 A 
ATOM     16  C   LIG A   1       1.084   3.923  -0.207  0.00  0.00    +0.035 A 
ATOM     17  C   LIG A   1      -0.262   3.862  -0.165  0.00  0.00    +0.073 A 
ENDROOT
BRANCH   9  18
ATOM     18  O   LIG A   1      -3.100  -2.487   0.199  0.00  0.00    -0.495 OA
ATOM     19  C   LIG A   1      -3.214  -3.901   0.294  0.00  0.00    +0.277 C 
ENDBRANCH   9  18
TORSDOF 1
