REMARK  Name = NuBBE_2307
REMARK  8 active torsions:
REMARK  status: ('A' for Active; 'I' for Inactive)
REMARK    1  A    between atoms: C_5  and  C_6
REMARK    2  A    between atoms: C_8  and  O_23
REMARK    3  A    between atoms: C_9  and  O_22
REMARK    4  A    between atoms: C_10  and  C_19
REMARK    5  A    between atoms: C_11  and  C_13
REMARK    6  A    between atoms: C_15  and  O_18
REMARK    7  A    between atoms: C_19  and  C_20
REMARK    8  A    between atoms: O_23  and  C_24
REMARK                            x       y       z     vdW  Elec       q    Type
REMARK                         _______ _______ _______ _____ _____    ______ ____
ROOT
ATOM      1  C   LIG A   1      -0.158   0.167  -0.903  0.00  0.00    +0.065 C 
ATOM      2  C   LIG A   1       0.217  -1.327  -1.165  0.00  0.00    +0.168 C 
ATOM      3  C   LIG A   1       0.589  -1.789   0.261  0.00  0.00    +0.165 C 
ATOM      4  C   LIG A   1       1.594  -0.694   0.691  0.00  0.00    +0.028 C 
ATOM      5  C   LIG A   1       0.874   0.621   0.197  0.00  0.00    +0.009 C 
ATOM      6  C   LIG A   1       1.797   1.723  -0.339  0.00  0.00    +0.009 C 
ATOM      7  C   LIG A   1       2.876  -0.991  -0.068  0.00  0.00    +0.032 C 
ATOM      8  C   LIG A   1       2.853  -1.354  -1.358  0.00  0.00    +0.159 C 
ATOM      9  C   LIG A   1       1.516  -1.373  -2.052  0.00  0.00    +0.231 C 
ATOM     10  O   LIG A   1       1.483  -1.352  -3.288  0.00  0.00    -0.286 OA
ENDROOT
BRANCH   1  15
ATOM     11  C   LIG A   1      -3.633   0.022   0.853  0.00  0.00    +0.050 A 
ATOM     12  C   LIG A   1      -4.041   1.312   0.629  0.00  0.00    +0.166 A 
ATOM     13  C   LIG A   1      -3.290   2.180  -0.123  0.00  0.00    +0.167 A 
ATOM     14  C   LIG A   1      -2.067   1.816  -0.658  0.00  0.00    +0.053 A 
ATOM     15  C   LIG A   1      -1.582   0.513  -0.423  0.00  0.00    -0.037 A 
ATOM     16  C   LIG A   1      -2.408  -0.379   0.305  0.00  0.00    +0.008 A 
ATOM     17  O   LIG A   1      -3.882   3.400  -0.242  0.00  0.00    -0.453 OA
ATOM     18  C   LIG A   1      -5.069   3.205   0.557  0.00  0.00    +0.466 C 
ATOM     19  O   LIG A   1      -5.187   1.873   1.095  0.00  0.00    -0.453 OA
ENDBRANCH   1  15
BRANCH   8  20
ATOM     20  O   LIG A   1       3.995  -1.671  -2.058  0.00  0.00    -0.503 OA
ATOM     21  H   LIG A   1       4.736  -1.722  -1.433  0.00  0.00    +0.292 HD
ENDBRANCH   8  20
BRANCH   3  22
ATOM     22  O   LIG A   1       1.091  -3.123   0.314  0.00  0.00    -0.388 OA
ATOM     23  H   LIG A   1       0.450  -3.671  -0.182  0.00  0.00    +0.210 HD
ENDBRANCH   3  22
BRANCH   2  24
ATOM     24  O   LIG A   1      -0.849  -2.141  -1.655  0.00  0.00    -0.365 OA
ATOM     25  C   LIG A   1      -1.387  -1.746  -2.916  0.00  0.00    +0.195 C 
ENDBRANCH   2  24
BRANCH   4  26
ATOM     26  C   LIG A   1       1.797  -0.731   2.227  0.00  0.00    +0.040 C 
BRANCH  26  27
ATOM     27  C   LIG A   1       2.744   0.309   2.769  0.00  0.00    -0.034 C 
ATOM     28  C   LIG A   1       4.037   0.077   3.033  0.00  0.00    +0.004 C 
ENDBRANCH  26  27
ENDBRANCH   4  26
TORSDOF 6
