REMARK  Name = NuBBE_1670
REMARK  12 active torsions:
REMARK  status: ('A' for Active; 'I' for Inactive)
REMARK    1  A    between atoms: C_1  and  O_2
REMARK    2  A    between atoms: O_2  and  C_3
REMARK    3  A    between atoms: C_4  and  O_5
REMARK    4  A    between atoms: C_6  and  O_7
REMARK    5  A    between atoms: O_7  and  C_8
REMARK    6  A    between atoms: C_10  and  C_11
REMARK    7  A    between atoms: C_14  and  C_15
REMARK    8  A    between atoms: C_17  and  O_18
REMARK    9  A    between atoms: O_18  and  C_19
REMARK   10  A    between atoms: C_20  and  O_21
REMARK   11  A    between atoms: C_22  and  O_23
REMARK   12  A    between atoms: O_23  and  C_24
REMARK                            x       y       z     vdW  Elec       q    Type
REMARK                         _______ _______ _______ _____ _____    ______ ____
ROOT
ATOM      1  C   LIG A   1       0.562  -0.286   2.699  0.00  0.00    +0.154 C 
ATOM      2  C   LIG A   1       1.100  -0.787   1.372  0.00  0.00    +0.056 C 
ATOM      3  C   LIG A   1       1.719   0.440   0.755  0.00  0.00    +0.056 C 
ATOM      4  C   LIG A   1       2.778  -0.115  -0.179  0.00  0.00    +0.154 C 
ATOM      5  O   LIG A   1       3.233  -1.332   0.457  0.00  0.00    -0.371 OA
ATOM      6  C   LIG A   1       2.308  -1.706   1.495  0.00  0.00    +0.167 C 
ATOM      7  C   LIG A   1       2.279   1.151   1.983  0.00  0.00    +0.167 C 
ATOM      8  O   LIG A   1       1.449   0.782   3.101  0.00  0.00    -0.371 OA
ENDROOT
BRANCH   1  13
ATOM      9  C   LIG A   1      -2.434   2.084   2.323  0.00  0.00    +0.165 A 
ATOM     10  C   LIG A   1      -3.503   1.206   2.553  0.00  0.00    +0.201 A 
ATOM     11  C   LIG A   1      -3.275  -0.157   2.768  0.00  0.00    +0.165 A 
ATOM     12  C   LIG A   1      -1.955  -0.632   2.770  0.00  0.00    +0.056 A 
ATOM     13  C   LIG A   1      -0.864   0.238   2.603  0.00  0.00    -0.011 A 
ATOM     14  C   LIG A   1      -1.129   1.596   2.354  0.00  0.00    +0.056 A 
BRANCH   9  16
ATOM     15  C   LIG A   1      -1.715   4.297   1.825  0.00  0.00    +0.277 C 
ATOM     16  O   LIG A   1      -2.784   3.396   2.104  0.00  0.00    -0.491 OA
ENDBRANCH   9  16
BRANCH  10  17
ATOM     17  O   LIG A   1      -4.769   1.733   2.574  0.00  0.00    -0.501 OA
ATOM     18  H   LIG A   1      -4.643   2.702   2.576  0.00  0.00    +0.292 HD
ENDBRANCH  10  17
BRANCH  11  19
ATOM     19  O   LIG A   1      -4.221  -1.126   2.976  0.00  0.00    -0.491 OA
ATOM     20  C   LIG A   1      -5.412  -0.703   3.634  0.00  0.00    +0.277 C 
ENDBRANCH  11  19
ENDBRANCH   1  13
BRANCH   4  21
ATOM     21  C   LIG A   1       2.272  -0.408  -1.589  0.00  0.00    -0.011 A 
ATOM     22  C   LIG A   1       1.717   0.616  -2.391  0.00  0.00    +0.056 A 
ATOM     23  C   LIG A   1       1.263   0.363  -3.703  0.00  0.00    +0.165 A 
ATOM     24  C   LIG A   1       1.406  -0.917  -4.217  0.00  0.00    +0.201 A 
ATOM     25  C   LIG A   1       1.958  -1.952  -3.448  0.00  0.00    +0.165 A 
ATOM     26  C   LIG A   1       2.394  -1.691  -2.146  0.00  0.00    +0.056 A 
BRANCH  23  27
ATOM     27  O   LIG A   1       0.718   1.458  -4.331  0.00  0.00    -0.491 OA
ATOM     28  C   LIG A   1       0.212   1.254  -5.647  0.00  0.00    +0.277 C 
ENDBRANCH  23  27
BRANCH  24  29
ATOM     29  O   LIG A   1       1.019  -1.256  -5.495  0.00  0.00    -0.501 OA
ATOM     30  H   LIG A   1       1.266  -2.192  -5.601  0.00  0.00    +0.292 HD
ENDBRANCH  24  29
BRANCH  25  31
ATOM     31  O   LIG A   1       2.060  -3.154  -4.099  0.00  0.00    -0.491 OA
ATOM     32  C   LIG A   1       1.999  -4.306  -3.265  0.00  0.00    +0.277 C 
ENDBRANCH  25  31
ENDBRANCH   4  21
TORSDOF 8
