REMARK  Name = NuBBE_1230
REMARK  11 active torsions:
REMARK  status: ('A' for Active; 'I' for Inactive)
REMARK    1  A    between atoms: C_1  and  C_2
REMARK    2  A    between atoms: C_3  and  O_19
REMARK    3  A    between atoms: C_6  and  C_8
REMARK    4  A    between atoms: C_8  and  O_9
REMARK    5  A    between atoms: C_8  and  C_10
REMARK    6  A    between atoms: C_8  and  C_11
REMARK    7  A    between atoms: C_15  and  C_16
REMARK    8  A    between atoms: C_15  and  C_17
REMARK    9  A    between atoms: C_25  and  O_27
REMARK   10  A    between atoms: C_28  and  O_30
REMARK   11  A    between atoms: C_32  and  C_33
REMARK                            x       y       z     vdW  Elec       q    Type
REMARK                         _______ _______ _______ _____ _____    ______ ____
ROOT
ATOM      1  C   LIG A   1      -1.214   0.594  -1.329  0.00  0.00    +0.014 C 
ATOM      2  C   LIG A   1      -0.573   0.895   0.048  0.00  0.00    +0.006 C 
ATOM      3  C   LIG A   1       0.704   1.784  -0.106  0.00  0.00    +0.093 C 
ATOM      4  C   LIG A   1       0.801   2.498   1.252  0.00  0.00    +0.040 C 
ATOM      5  C   LIG A   1      -0.637   2.808   1.649  0.00  0.00    +0.010 C 
ATOM      6  C   LIG A   1      -1.543   1.790   0.912  0.00  0.00    +0.032 C 
ATOM      7  C   LIG A   1       1.997   1.059  -0.455  0.00  0.00    -0.031 C 
ATOM      8  C   LIG A   1       3.150   1.756  -0.547  0.00  0.00    +0.049 C 
ATOM      9  C   LIG A   1       4.427   1.133  -0.974  0.00  0.00    +0.160 C 
ATOM     10  C   LIG A   1       4.373  -0.303  -1.467  0.00  0.00    +0.069 C 
ATOM     11  C   LIG A   1       5.763  -0.943  -1.546  0.00  0.00    +0.045 C 
ATOM     12  C   LIG A   1       5.687  -2.354  -2.126  0.00  0.00    +0.144 C 
ATOM     13  C   LIG A   1       4.676  -3.245  -1.389  0.00  0.00    +0.144 C 
ATOM     14  C   LIG A   1       3.311  -2.573  -1.225  0.00  0.00    +0.042 C 
ATOM     15  C   LIG A   1       3.364  -1.132  -0.628  0.00  0.00    -0.013 C 
ATOM     16  C   LIG A   1       3.783  -1.187   0.869  0.00  0.00    +0.012 C 
ATOM     17  C   LIG A   1       1.953  -0.436  -0.767  0.00  0.00    +0.025 C 
ATOM     18  C   LIG A   1       0.842  -1.232  -0.050  0.00  0.00    +0.009 C 
ATOM     19  C   LIG A   1      -0.161  -0.410   0.745  0.00  0.00    +0.011 C 
ATOM     20  O   LIG A   1       5.450   1.810  -0.989  0.00  0.00    -0.292 OA
ENDROOT
BRANCH   6  21
ATOM     21  C   LIG A   1      -2.653   1.158   1.828  0.00  0.00    +0.093 C 
ATOM     22  C   LIG A   1      -2.146   0.474   3.107  0.00  0.00    +0.044 C 
BRANCH  21  23
ATOM     23  C   LIG A   1      -3.609   0.216   1.051  0.00  0.00    +0.151 C 
ATOM     24  C   LIG A   1      -4.732  -0.432   1.848  0.00  0.00    +0.037 C 
ATOM     25  C   LIG A   1      -5.666  -0.850   0.735  0.00  0.00    +0.037 C 
ATOM     26  C   LIG A   1      -5.562   0.322  -0.244  0.00  0.00    +0.065 C 
ATOM     27  C   LIG A   1      -6.655   1.361   0.011  0.00  0.00    +0.041 C 
ATOM     28  C   LIG A   1      -5.593  -0.140  -1.698  0.00  0.00    +0.041 C 
ATOM     29  O   LIG A   1      -4.286   0.954   0.006  0.00  0.00    -0.368 OA
ENDBRANCH  21  23
BRANCH  21  30
ATOM     30  O   LIG A   1      -3.449   2.277   2.289  0.00  0.00    -0.386 OA
ATOM     31  H   LIG A   1      -4.004   2.532   1.524  0.00  0.00    +0.210 HD
ENDBRANCH  21  30
ENDBRANCH   6  21
BRANCH   3  32
ATOM     32  O   LIG A   1       0.513   2.767  -1.129  0.00  0.00    -0.384 OA
ATOM     33  H   LIG A   1      -0.232   3.337  -0.879  0.00  0.00    +0.211 HD
ENDBRANCH   3  32
BRANCH  12  34
ATOM     34  O   LIG A   1       6.973  -2.978  -2.038  0.00  0.00    -0.389 OA
ATOM     35  H   LIG A   1       7.616  -2.377  -2.457  0.00  0.00    +0.210 HD
ENDBRANCH  12  34
BRANCH  13  36
ATOM     36  O   LIG A   1       5.196  -3.607  -0.109  0.00  0.00    -0.389 OA
ATOM     37  H   LIG A   1       6.142  -3.800  -0.273  0.00  0.00    +0.210 HD
ENDBRANCH  13  36
TORSDOF 6
