@<TRIPOS>MOLECULE
NuBBE_978
 65 66 0 0 0
SMALL
GASTEIGER

@<TRIPOS>ATOM
      1 O          -2.2282    4.6397    6.2012 O.2     1  LIG1       -0.2702
      2 C          -3.1801    4.6284    5.4378 C.2     1  LIG1        0.2441
      3 N          -3.2090    3.9490    4.2404 N.am    1  LIG1       -0.3110
      4 C          -2.0774    3.1606    3.7795 C.3     1  LIG1        0.0159
      5 C          -2.3738    2.5167    2.4235 C.3     1  LIG1       -0.0120
      6 C          -1.2600    1.6371    1.9234 C.ar    1  LIG1       -0.0457
      7 C          -0.2362    2.1514    1.1194 C.ar    1  LIG1       -0.0551
      8 C           0.7988    1.3198    0.6830 C.ar    1  LIG1       -0.0197
      9 C           0.8108   -0.0345    1.0241 C.ar    1  LIG1        0.1210
     10 O           1.8868   -0.7452    0.5796 O.3     1  LIG1       -0.4880
     11 C           1.7009   -2.1403    0.3213 C.3     1  LIG1        0.1082
     12 C           1.9738   -2.3507   -1.1349 C.2     1  LIG1       -0.0447
     13 C           2.3488   -3.4943   -1.7426 C.2     1  LIG1       -0.0331
     14 C           2.4067   -4.8253   -1.0409 C.3     1  LIG1       -0.0402
     15 C           2.7978   -3.4356   -3.2041 C.3     1  LIG1        0.1274
     16 O           4.1524   -3.9414   -3.2885 O.3     1  LIG1       -0.4568
     17 C           5.1192   -3.0493   -2.9694 C.2     1  LIG1        0.3045
     18 C           6.4777   -3.6863   -3.1175 C.3     1  LIG1        0.0333
     19 O           4.9545   -1.8906   -2.5908 O.2     1  LIG1       -0.2511
     20 C           1.8498   -4.2224   -4.1352 C.3     1  LIG1        0.0067
     21 C           2.1987   -4.0596   -5.5986 C.2     1  LIG1       -0.0815
     22 C           1.6884   -3.1643   -6.4683 C.2     1  LIG1       -0.0795
     23 C           0.6325   -2.1462   -6.1340 C.3     1  LIG1       -0.0440
     24 C           2.1894   -3.0857   -7.8888 C.3     1  LIG1       -0.0440
     25 C          -0.2026   -0.5476    1.8281 C.ar    1  LIG1       -0.0197
     26 C          -1.2306    0.2828    2.2757 C.ar    1  LIG1       -0.0551
     27 H          -3.9413    4.1609    3.5705 H       1  LIG1        0.1490
     28 C          -4.4282    5.4055    5.7630 C.ar    1  LIG1        0.0367
     29 C          -5.6863    5.0108    5.2820 C.ar    1  LIG1       -0.0496
     30 C          -6.8329    5.7215    5.6438 C.ar    1  LIG1       -0.0610
     31 C          -6.7329    6.8262    6.4874 C.ar    1  LIG1       -0.0617
     32 C          -5.4860    7.2264    6.9683 C.ar    1  LIG1       -0.0610
     33 C          -4.3364    6.5162    6.6119 C.ar    1  LIG1       -0.0496
     34 H          -1.8670    2.4006    4.5428 H       1  LIG1        0.0465
     35 H          -1.2015    3.8171    3.7233 H       1  LIG1        0.0465
     36 H          -2.5873    3.2952    1.6796 H       1  LIG1        0.0328
     37 H          -3.2950    1.9221    2.4894 H       1  LIG1        0.0328
     38 H          -0.2321    3.1992    0.8275 H       1  LIG1        0.0621
     39 H           1.5999    1.7298    0.0715 H       1  LIG1        0.0654
     40 H           0.7023   -2.5189    0.5505 H       1  LIG1        0.0742
     41 H           2.4355   -2.6735    0.9348 H       1  LIG1        0.0742
     42 H           1.9197   -1.4392   -1.7299 H       1  LIG1        0.0606
     43 H           2.0180   -4.7774   -0.0182 H       1  LIG1        0.0276
     44 H           3.4344   -5.1956   -0.9857 H       1  LIG1        0.0276
     45 H           1.7955   -5.5654   -1.5669 H       1  LIG1        0.0276
     46 H           2.7983   -2.3944   -3.5570 H       1  LIG1        0.0785
     47 H           6.5857   -4.1269   -4.1082 H       1  LIG1        0.0342
     48 H           6.6449   -4.4315   -2.3352 H       1  LIG1        0.0342
     49 H           7.2527   -2.9053   -3.0156 H       1  LIG1        0.0342
     50 H           0.8142   -3.9101   -3.9560 H       1  LIG1        0.0346
     51 H           1.8864   -5.2951   -3.9094 H       1  LIG1        0.0346
     52 H           2.9523   -4.7622   -5.9555 H       1  LIG1        0.0573
     53 H           0.3675   -2.1291   -5.0746 H       1  LIG1        0.0274
     54 H          -0.2802   -2.3535   -6.7029 H       1  LIG1        0.0274
     55 H           0.9802   -1.1410   -6.3940 H       1  LIG1        0.0274
     56 H           2.9384   -3.8525   -8.1122 H       1  LIG1        0.0274
     57 H           2.6557   -2.1095   -8.0634 H       1  LIG1        0.0274
     58 H           1.3650   -3.2052   -8.5994 H       1  LIG1        0.0274
     59 H          -0.2089   -1.5833    2.1483 H       1  LIG1        0.0654
     60 H          -2.0055   -0.1390    2.9113 H       1  LIG1        0.0621
     61 H          -5.7978    4.1310    4.6567 H       1  LIG1        0.0625
     62 H          -7.8066    5.4006    5.2818 H       1  LIG1        0.0618
     63 H          -7.6293    7.3674    6.7812 H       1  LIG1        0.0618
     64 H          -5.4115    8.0854    7.6312 H       1  LIG1        0.0618
     65 H          -3.3693    6.8261    7.0040 H       1  LIG1        0.0625
@<TRIPOS>BOND
     1     1     2    2
     2     2     3   am
     3     3     4    1
     4     4     5    1
     5     5     6    1
     6     6     7   ar
     7     7     8   ar
     8     8     9   ar
     9     9    10    1
    10    10    11    1
    11    11    12    1
    12    12    13    2
    13    13    14    1
    14    13    15    1
    15    15    16    1
    16    16    17    1
    17    17    18    1
    18    17    19    2
    19    15    20    1
    20    20    21    1
    21    21    22    2
    22    22    23    1
    23    22    24    1
    24     9    25   ar
    25    25    26   ar
    26     6    26   ar
    27     3    27    1
    28     2    28    1
    29    28    29   ar
    30    29    30   ar
    31    30    31   ar
    32    31    32   ar
    33    32    33   ar
    34    28    33   ar
    35     4    34    1
    36     4    35    1
    37     5    36    1
    38     5    37    1
    39     7    38    1
    40     8    39    1
    41    11    40    1
    42    11    41    1
    43    12    42    1
    44    14    43    1
    45    14    44    1
    46    14    45    1
    47    15    46    1
    48    18    47    1
    49    18    48    1
    50    18    49    1
    51    20    50    1
    52    20    51    1
    53    21    52    1
    54    23    53    1
    55    23    54    1
    56    23    55    1
    57    24    56    1
    58    24    57    1
    59    24    58    1
    60    25    59    1
    61    26    60    1
    62    29    61    1
    63    30    62    1
    64    31    63    1
    65    32    64    1
    66    33    65    1
