REMARK  Name = NuBBE_2440
REMARK  11 active torsions:
REMARK  status: ('A' for Active; 'I' for Inactive)
REMARK    1  A    between atoms: C_1  and  C_2
REMARK    2  A    between atoms: C_1  and  C_6
REMARK    3  A    between atoms: C_3  and  C_4
REMARK    4  A    between atoms: C_3  and  C_5
REMARK    5  A    between atoms: C_9  and  O_19
REMARK    6  A    between atoms: C_10  and  O_17
REMARK    7  A    between atoms: C_11  and  C_12
REMARK    8  A    between atoms: C_12  and  C_13
REMARK    9  A    between atoms: C_14  and  C_15
REMARK   10  A    between atoms: C_14  and  C_16
REMARK   11  A    between atoms: O_17  and  C_18
REMARK                            x       y       z     vdW  Elec       q    Type
REMARK                         _______ _______ _______ _____ _____    ______ ____
ROOT
ATOM      1  C   LIG A   1       0.518  -0.463   0.176  0.00  0.00    -0.026 A 
ATOM      2  C   LIG A   1       1.334  -1.625   0.084  0.00  0.00    +0.025 A 
ATOM      3  C   LIG A   1       2.716  -1.470   0.016  0.00  0.00    +0.184 A 
ATOM      4  C   LIG A   1       3.336  -0.226  -0.029  0.00  0.00    +0.203 A 
ATOM      5  C   LIG A   1       2.562   0.939  -0.048  0.00  0.00    +0.169 A 
ATOM      6  C   LIG A   1       1.139   0.835   0.076  0.00  0.00    +0.006 A 
ATOM      7  O   LIG A   1       3.584  -2.580  -0.030  0.00  0.00    -0.418 OA
ATOM      8  C   LIG A   1       3.123  -3.881  -0.085  0.00  0.00    +0.337 A 
ATOM      9  O   LIG A   1       3.878  -4.850  -0.166  0.00  0.00    -0.245 OA
ATOM     10  C   LIG A   1       1.675  -4.044  -0.047  0.00  0.00    +0.092 A 
ATOM     11  C   LIG A   1       0.831  -3.003   0.027  0.00  0.00    +0.019 A 
ENDROOT
BRANCH   5  12
ATOM     12  O   LIG A   1       3.061   2.214  -0.183  0.00  0.00    -0.491 OA
ATOM     13  C   LIG A   1       4.464   2.381  -0.370  0.00  0.00    +0.277 C 
ENDBRANCH   5  12
BRANCH   4  14
ATOM     14  O   LIG A   1       4.707  -0.212  -0.061  0.00  0.00    -0.501 OA
ATOM     15  H   LIG A   1       5.007  -1.141  -0.038  0.00  0.00    +0.292 HD
ENDBRANCH   4  14
BRANCH   1  16
ATOM     16  C   LIG A   1      -0.999  -0.610   0.314  0.00  0.00    +0.063 C 
BRANCH  16  17
ATOM     17  C   LIG A   1      -1.478  -1.395   1.518  0.00  0.00    -0.024 C 
ATOM     18  C   LIG A   1      -2.770  -1.637   1.827  0.00  0.00    -0.079 C 
ATOM     19  C   LIG A   1      -3.939  -1.061   1.075  0.00  0.00    +0.038 C 
ATOM     20  C   LIG A   1      -3.150  -2.548   2.966  0.00  0.00    +0.038 C 
ENDBRANCH  16  17
ENDBRANCH   1  16
BRANCH   6  21
ATOM     21  C   LIG A   1       0.309   2.130   0.098  0.00  0.00    +0.066 C 
BRANCH  21  22
ATOM     22  C   LIG A   1      -0.178   2.595  -1.259  0.00  0.00    -0.023 C 
ATOM     23  C   LIG A   1      -1.441   2.780  -1.705  0.00  0.00    -0.079 C 
ATOM     24  C   LIG A   1      -2.699   2.505  -0.926  0.00  0.00    +0.038 C 
ATOM     25  C   LIG A   1      -1.700   3.327  -3.090  0.00  0.00    +0.038 C 
ENDBRANCH  21  22
ENDBRANCH   6  21
TORSDOF 6
