@<TRIPOS>MOLECULE
NuBBE_181
 29 31 0 0 0
SMALL
GASTEIGER

@<TRIPOS>ATOM
      1 O          -3.6483   -0.8304   -0.2390 O.2     1  LIG1       -0.2870
      2 C          -2.4299   -0.7669   -0.1430 C.ar    1  LIG1        0.1931
      3 C          -1.7347    0.5301   -0.1295 C.ar    1  LIG1        0.0287
      4 C          -0.3985    0.5582   -0.0154 C.ar    1  LIG1        0.1392
      5 O           0.3997   -0.5725    0.0761 O.2     1  LIG1       -0.4545
      6 C          -0.2068   -1.8031    0.0683 C.ar    1  LIG1        0.1427
      7 C          -1.5861   -1.9655   -0.0359 C.ar    1  LIG1        0.0642
      8 C          -2.1536   -3.2443   -0.0401 C.ar    1  LIG1       -0.0439
      9 C          -1.3284   -4.3661    0.0606 C.ar    1  LIG1       -0.0193
     10 C           0.0505   -4.1934    0.1641 C.ar    1  LIG1        0.1204
     11 O           0.8920   -5.2614    0.2636 O.3     1  LIG1       -0.5066
     12 C           0.6179   -2.9221    0.1690 C.ar    1  LIG1        0.0229
     13 C           0.3530    1.8293   -0.0067 C.ar    1  LIG1        0.0176
     14 C           1.5608    1.9343   -0.7162 C.ar    1  LIG1       -0.0476
     15 C           2.2949    3.1245   -0.7142 C.ar    1  LIG1       -0.0195
     16 C           1.8238    4.2156    0.0060 C.ar    1  LIG1        0.1169
     17 C           0.6377    4.1339    0.7234 C.ar    1  LIG1       -0.0195
     18 C          -0.0947    2.9436    0.7206 C.ar    1  LIG1       -0.0476
     19 O           2.5054    5.3953    0.0377 O.3     1  LIG1       -0.5068
     20 H          -2.3547    1.4119   -0.2252 H       1  LIG1        0.0693
     21 H          -3.2318   -3.3648   -0.1219 H       1  LIG1        0.0627
     22 H          -1.7750   -5.3559    0.0564 H       1  LIG1        0.0654
     23 H           0.3672   -6.0792    0.2537 H       1  LIG1        0.2921
     24 H           1.6947   -2.8072    0.2517 H       1  LIG1        0.0691
     25 H           1.9384    1.0861   -1.2843 H       1  LIG1        0.0626
     26 H           3.2225    3.1764   -1.2752 H       1  LIG1        0.0654
     27 H           0.2848    4.9919    1.2889 H       1  LIG1        0.0654
     28 H          -1.0106    2.8976    1.3052 H       1  LIG1        0.0626
     29 H           3.3101    5.3041   -0.4985 H       1  LIG1        0.2921
@<TRIPOS>BOND
     1     1     2    2
     2     2     3   ar
     3     3     4   ar
     4     4     5   ar
     5     5     6   ar
     6     6     7   ar
     7     2     7   ar
     8     7     8   ar
     9     8     9   ar
    10     9    10   ar
    11    10    11    1
    12    10    12   ar
    13     6    12   ar
    14     4    13    1
    15    13    14   ar
    16    14    15   ar
    17    15    16   ar
    18    16    17   ar
    19    17    18   ar
    20    13    18   ar
    21    16    19    1
    22     3    20    1
    23     8    21    1
    24     9    22    1
    25    11    23    1
    26    12    24    1
    27    14    25    1
    28    15    26    1
    29    17    27    1
    30    18    28    1
    31    19    29    1
