@<TRIPOS>MOLECULE
NuBBE_1461
 35 36 0 0 0
SMALL
GASTEIGER

@<TRIPOS>ATOM
      1 O          -2.6944    0.9157    0.2279 O.2     1  LIG1       -0.2448
      2 C          -1.4904    0.6394    0.1936 C.ar    1  LIG1        0.3414
      3 C          -0.9963   -0.7766    0.1377 C.ar    1  LIG1        0.0470
      4 C          -2.0535   -1.9169    0.1127 C.3     1  LIG1        0.0146
      5 C          -2.8966   -1.9107    1.4103 C.3     1  LIG1       -0.0521
      6 C          -3.0211   -1.7552   -1.0867 C.3     1  LIG1       -0.0521
      7 C          -1.3974   -3.3162    0.0676 C.2     1  LIG1       -0.0809
      8 C          -1.5257   -4.2652   -0.8738 C.2     1  LIG1       -0.1018
      9 C           0.3404   -0.9687    0.1283 C.ar    1  LIG1       -0.0402
     10 O          -0.5532    1.6629    0.2122 O.2     1  LIG1       -0.4181
     11 C           0.8388    1.4375    0.1810 C.ar    1  LIG1        0.1841
     12 C           1.2982    0.1278    0.1389 C.ar    1  LIG1        0.0218
     13 C           2.6759   -0.0967    0.0966 C.ar    1  LIG1       -0.0474
     14 C           3.5647    0.9827    0.1020 C.ar    1  LIG1       -0.0157
     15 C           3.0832    2.2958    0.1443 C.ar    1  LIG1        0.1622
     16 O           3.9935    3.3166    0.1727 O.3     1  LIG1       -0.5032
     17 C           1.7052    2.5456    0.1744 C.ar    1  LIG1        0.2046
     18 O           1.0991    3.7743    0.2288 O.3     1  LIG1       -0.4885
     19 C           1.8303    4.8832   -0.2798 C.3     1  LIG1        0.0791
     20 H          -3.4323   -0.9688    1.5595 H       1  LIG1        0.0241
     21 H          -2.2769   -2.0804    2.2991 H       1  LIG1        0.0241
     22 H          -3.6588   -2.7009    1.3867 H       1  LIG1        0.0241
     23 H          -3.5685   -0.8100   -1.0765 H       1  LIG1        0.0241
     24 H          -3.7896   -2.5397   -1.0780 H       1  LIG1        0.0241
     25 H          -2.4897   -1.8127   -2.0436 H       1  LIG1        0.0241
     26 H          -0.7711   -3.5655    0.9261 H       1  LIG1        0.0575
     27 H          -2.1416   -4.1415   -1.7587 H       1  LIG1        0.0532
     28 H          -1.0178   -5.2205   -0.7750 H       1  LIG1        0.0532
     29 H           0.7663   -1.9652    0.1027 H       1  LIG1        0.0630
     30 H           3.0734   -1.1075    0.0591 H       1  LIG1        0.0626
     31 H           4.6323    0.7810    0.0798 H       1  LIG1        0.0655
     32 H           4.8901    2.9587    0.0686 H       1  LIG1        0.2923
     33 H           1.1254    5.7068   -0.4312 H       1  LIG1        0.0660
     34 H           2.2841    4.6606   -1.2520 H       1  LIG1        0.0660
     35 H           2.5737    5.2300    0.4445 H       1  LIG1        0.0660
@<TRIPOS>BOND
     1     1     2    2
     2     2     3   ar
     3     3     4    1
     4     4     5    1
     5     4     6    1
     6     4     7    1
     7     7     8    2
     8     3     9   ar
     9     2    10   ar
    10    10    11   ar
    11    11    12   ar
    12     9    12   ar
    13    12    13   ar
    14    13    14   ar
    15    14    15   ar
    16    15    16    1
    17    15    17   ar
    18    11    17   ar
    19    17    18    1
    20    18    19    1
    21     5    20    1
    22     5    21    1
    23     5    22    1
    24     6    23    1
    25     6    24    1
    26     6    25    1
    27     7    26    1
    28     8    27    1
    29     8    28    1
    30     9    29    1
    31    13    30    1
    32    14    31    1
    33    16    32    1
    34    19    33    1
    35    19    34    1
    36    19    35    1
