REMARK  Name = NuBBE_225
REMARK  19 active torsions:
REMARK  status: ('A' for Active; 'I' for Inactive)
REMARK    1  A    between atoms: C_1  and  C_2
REMARK    2  A    between atoms: C_4  and  O_6
REMARK    3  A    between atoms: O_6  and  C_7
REMARK    4  A    between atoms: C_7  and  C_8
REMARK    5  A    between atoms: C_8  and  C_9
REMARK    6  A    between atoms: C_9  and  C_10
REMARK    7  A    between atoms: C_12  and  O_14
REMARK    8  A    between atoms: C_17  and  O_19
REMARK    9  A    between atoms: O_19  and  C_20
REMARK   10  A    between atoms: C_20  and  C_21
REMARK   11  A    between atoms: C_23  and  O_25
REMARK   12  A    between atoms: O_25  and  C_26
REMARK   13  A    between atoms: C_26  and  C_27
REMARK   14  A    between atoms: C_30  and  O_32
REMARK   15  A    between atoms: C_36  and  C_37
REMARK   16  A    between atoms: C_36  and  C_38
REMARK   17  A    between atoms: C_38  and  C_39
REMARK   18  A    between atoms: C_40  and  C_41
REMARK   19  A    between atoms: C_40  and  C_43
REMARK                            x       y       z     vdW  Elec       q    Type
REMARK                         _______ _______ _______ _____ _____    ______ ____
ROOT
ATOM      1  C   LIG A   1       0.378   2.116   2.117  0.00  0.00    +0.012 C 
ATOM      2  C   LIG A   1      -0.773   1.184   1.718  0.00  0.00    +0.036 C 
ATOM      3  C   LIG A   1      -0.606  -0.159   2.447  0.00  0.00    +0.209 C 
ATOM      4  C   LIG A   1       0.486  -1.071   1.827  0.00  0.00    +0.172 C 
ATOM      5  C   LIG A   1       1.046  -0.727   0.376  0.00  0.00    +0.091 C 
ATOM      6  C   LIG A   1       1.316  -2.093  -0.257  0.00  0.00    -0.001 C 
ATOM      7  C   LIG A   1       2.704  -2.518   0.088  0.00  0.00    +0.282 C 
ATOM      8  O   LIG A   1       3.446  -1.313   0.109  0.00  0.00    -0.308 OA
ATOM      9  C   LIG A   1       2.559  -0.220   0.416  0.00  0.00    +0.326 C 
ATOM     10  C   LIG A   1       0.479  -2.736  -1.089  0.00  0.00    +0.009 C 
ATOM     11  C   LIG A   1      -0.718  -2.052  -1.638  0.00  0.00    +0.138 C 
ATOM     12  C   LIG A   1      -0.375  -0.575  -1.823  0.00  0.00    +0.040 C 
ATOM     13  C   LIG A   1       0.091   0.168  -0.530  0.00  0.00    +0.017 C 
ATOM     14  C   LIG A   1      -1.036   1.022   0.173  0.00  0.00    -0.019 C 
ATOM     15  C   LIG A   1      -2.429   0.378  -0.021  0.00  0.00    +0.012 C 
ENDROOT
BRANCH   4  16
ATOM     16  O   LIG A   1       1.591  -1.155   2.753  0.00  0.00    -0.387 OA
ATOM     17  H   LIG A   1       1.260  -1.420   3.630  0.00  0.00    +0.210 HD
ENDBRANCH   4  16
BRANCH  11  18
ATOM     18  O   LIG A   1      -1.008  -2.598  -2.919  0.00  0.00    -0.388 OA
ATOM     19  H   LIG A   1      -1.250  -3.530  -2.788  0.00  0.00    +0.210 HD
ENDBRANCH  11  18
BRANCH   3  20
ATOM     20  O   LIG A   1      -1.887  -0.861   2.499  0.00  0.00    -0.458 OA
BRANCH  20  21
ATOM     21  C   LIG A   1      -2.792  -0.392   3.416  0.00  0.00    +0.307 C 
ATOM     22  O   LIG A   1      -2.554   0.476   4.244  0.00  0.00    -0.251 OA
BRANCH  21  23
ATOM     23  C   LIG A   1      -4.141  -1.069   3.297  0.00  0.00    +0.120 C 
BRANCH  23  24
ATOM     24  C   LIG A   1      -5.193  -0.349   2.452  0.00  0.00    +0.008 C 
ATOM     25  C   LIG A   1      -5.512   1.090   2.832  0.00  0.00    +0.004 C 
ENDBRANCH  23  24
ENDBRANCH  21  23
ENDBRANCH  20  21
ENDBRANCH   3  20
BRANCH   7  26
ATOM     26  O   LIG A   1       3.171  -3.425  -0.903  0.00  0.00    -0.348 OA
BRANCH  26  27
ATOM     27  C   LIG A   1       4.512  -3.861  -0.728  0.00  0.00    +0.160 C 
ATOM     28  C   LIG A   1       4.669  -4.753   0.490  0.00  0.00    +0.034 C 
ENDBRANCH  26  27
ENDBRANCH   7  26
BRANCH   9  29
ATOM     29  O   LIG A   1       2.838   0.836  -0.517  0.00  0.00    -0.434 OA
BRANCH  29  30
ATOM     30  C   LIG A   1       3.935   1.592  -0.217  0.00  0.00    +0.306 C 
ATOM     31  C   LIG A   1       4.102   2.680  -1.248  0.00  0.00    +0.136 C 
ATOM     32  O   LIG A   1       4.636   1.486   0.750  0.00  0.00    -0.251 OA
ENDBRANCH  29  30
ENDBRANCH   9  29
BRANCH  14  33
ATOM     33  C   LIG A   1      -1.162   2.474  -0.468  0.00  0.00    +0.034 C 
BRANCH  33  34
ATOM     34  C   LIG A   1      -1.629   2.583  -1.907  0.00  0.00    -0.023 C 
ATOM     35  C   LIG A   1      -0.909   2.630  -3.048  0.00  0.00    -0.055 C 
ATOM     36  C   LIG A   1      -1.603   2.698  -4.389  0.00  0.00    +0.043 C 
BRANCH  35  37
ATOM     37  C   LIG A   1       0.543   2.591  -3.069  0.00  0.00    -0.005 C 
ATOM     38  C   LIG A   1       1.281   2.126  -4.086  0.00  0.00    +0.008 C 
ENDBRANCH  35  37
ENDBRANCH  33  34
ENDBRANCH  14  33
TORSDOF 13
