@<TRIPOS>MOLECULE
NuBBE_418
 74 77 0 0 0
SMALL
GASTEIGER

@<TRIPOS>ATOM
      1 H          -3.1315    2.3216    3.6834 H       1  LIG1        0.0358
      2 C          -3.3544    1.2912    3.9845 C.3     1  LIG1        0.0050
      3 C          -2.0627    0.6079    4.5013 C.3     1  LIG1        0.0338
      4 C          -1.3053   -0.0949    3.3689 C.3     1  LIG1        0.2072
      5 H          -0.4376   -0.6126    3.7908 H       1  LIG1        0.1059
      6 O          -2.1597   -1.0873    2.7730 O.2     1  LIG1       -0.4702
      7 C          -3.3732   -0.5861    2.3554 C.2     1  LIG1        0.0981
      8 C          -3.9278    0.5458    2.7907 C.2     1  LIG1        0.0742
      9 C          -5.1236    1.1811    2.1406 C.2     1  LIG1        0.3360
     10 O          -5.5240    0.6373    0.9833 O.3     1  LIG1       -0.4773
     11 O          -5.6691    2.1455    2.6286 O.2     1  LIG1       -0.2454
     12 O          -0.8016    0.8685    2.4177 O.3     1  LIG1       -0.3084
     13 C          -0.1316    0.2381    1.3128 C.3     1  LIG1        0.2029
     14 H          -0.7940   -0.5400    0.9348 H       1  LIG1        0.0951
     15 O           1.0505   -0.4543    1.7336 O.3     1  LIG1       -0.3394
     16 C           2.2514    0.3227    1.8408 C.3     1  LIG1        0.1131
     17 H           2.8807    0.0743    0.9732 H       1  LIG1        0.0647
     18 C           1.9935    1.8394    1.8178 C.3     1  LIG1        0.1130
     19 H           1.3240    2.1446    2.6267 H       1  LIG1        0.0647
     20 C           1.3559    2.1562    0.4603 C.3     1  LIG1        0.1251
     21 H           2.1161    2.0482   -0.3265 H       1  LIG1        0.0659
     22 O           0.9847    3.5417    0.4088 O.3     1  LIG1       -0.3853
     23 O           3.1707    2.6413    1.9494 O.3     1  LIG1       -0.3864
     24 C           2.9986   -0.1892    3.0787 C.3     1  LIG1        0.0730
     25 O           4.1736    0.5602    3.3586 O.3     1  LIG1       -0.3924
     26 C           0.1456    1.2443    0.1647 C.3     1  LIG1        0.1820
     27 H          -0.7316    1.8644   -0.0536 H       1  LIG1        0.0813
     28 O           0.4998    0.5518   -1.0519 O.3     1  LIG1       -0.4504
     29 C          -0.4976   -0.1348   -1.6672 C.2     1  LIG1        0.3324
     30 C          -0.0610   -0.5695   -3.0174 C.2     1  LIG1        0.0231
     31 C           1.1057   -0.2248   -3.5574 C.2     1  LIG1       -0.0477
     32 C           1.4876   -0.5949   -4.9231 C.ar    1  LIG1       -0.0211
     33 C           2.8337   -0.8010   -5.2498 C.ar    1  LIG1       -0.0091
     34 C           3.2133   -1.2212   -6.5355 C.ar    1  LIG1        0.1620
     35 O           4.5658   -1.4177   -6.6577 O.3     1  LIG1       -0.4914
     36 C           5.0620   -1.8440   -7.9196 C.3     1  LIG1        0.0790
     37 C           2.2154   -1.4233   -7.5024 C.ar    1  LIG1        0.1615
     38 C           0.8857   -1.1103   -7.1992 C.ar    1  LIG1       -0.0157
     39 C           0.5227   -0.7113   -5.9215 C.ar    1  LIG1       -0.0509
     40 O           2.5378   -1.9066   -8.7432 O.3     1  LIG1       -0.4915
     41 C           1.5549   -2.7731   -9.3088 C.3     1  LIG1        0.0790
     42 O          -1.5958   -0.3611   -1.2346 O.2     1  LIG1       -0.2456
     43 H          -1.4185    1.3781    4.9474 H       1  LIG1        0.0370
     44 C          -4.3183    1.2915    5.2106 C.3     1  LIG1       -0.0190
     45 C          -3.5834    0.5671    6.3404 C.3     1  LIG1        0.0588
     46 H          -4.2616    0.0089    6.9951 H       1  LIG1        0.0596
     47 C          -2.6058   -0.3418    5.5971 C.3     1  LIG1       -0.0087
     48 H          -3.1833   -1.1601    5.1452 H       1  LIG1        0.0328
     49 C          -1.5366   -0.9691    6.4749 C.3     1  LIG1       -0.0596
     50 O          -2.8725    1.5100    7.1347 O.3     1  LIG1       -0.3915
     51 H          -3.7692   -1.2728    1.6148 H       1  LIG1        0.1029
     52 H          -4.9776   -0.0757    0.6354 H       1  LIG1        0.2954
     53 H           1.7945    4.0292    0.6647 H       1  LIG1        0.2101
     54 H           3.6151    2.3424    2.7738 H       1  LIG1        0.2100
     55 H           2.3494   -0.1526    3.9583 H       1  LIG1        0.0584
     56 H           3.2743   -1.2416    2.9276 H       1  LIG1        0.0584
     57 H           4.5670    0.1669    4.1622 H       1  LIG1        0.2095
     58 H          -0.8170   -1.1431   -3.5456 H       1  LIG1        0.0689
     59 H           1.8504    0.3498   -3.0030 H       1  LIG1        0.0626
     60 H           3.6058   -0.6649   -4.4930 H       1  LIG1        0.0661
     61 H           6.1423   -1.9946   -7.8299 H       1  LIG1        0.0660
     62 H           4.8987   -1.0768   -8.6839 H       1  LIG1        0.0660
     63 H           4.6371   -2.8112   -8.2061 H       1  LIG1        0.0660
     64 H           0.1042   -1.1832   -7.9479 H       1  LIG1        0.0655
     65 H          -0.5258   -0.5031   -5.7271 H       1  LIG1        0.0625
     66 H           2.0542   -3.4377  -10.0179 H       1  LIG1        0.0660
     67 H           0.8138   -2.1819   -9.8554 H       1  LIG1        0.0660
     68 H           1.0679   -3.4025   -8.5531 H       1  LIG1        0.0660
     69 H          -5.2546    0.7619    4.9924 H       1  LIG1        0.0296
     70 H          -4.5791    2.3167    5.4971 H       1  LIG1        0.0296
     71 H          -2.0007   -1.5359    7.2897 H       1  LIG1        0.0233
     72 H          -0.8713   -0.2205    6.9132 H       1  LIG1        0.0233
     73 H          -0.9265   -1.6692    5.8952 H       1  LIG1        0.0233
     74 H          -3.5205    2.1475    7.4840 H       1  LIG1        0.2098
@<TRIPOS>BOND
     1     2     3    1
     2     3     4    1
     3     4     6    1
     4     6     7    1
     5     7     8    2
     6     9    10    1
     7     9    11    2
     8    12    13    1
     9    13    14    1
    10    13    15    1
    11    15    16    1
    12    16    18    1
    13    18    19    1
    14    18    20    1
    15    18    23    1
    16    24    25    1
    17    13    26    1
    18    20    26    1
    19    28    29    1
    20    29    30    1
    21    30    31    2
    22    31    32    1
    23    32    33   ar
    24    33    34   ar
    25    34    35    1
    26    35    36    1
    27    34    37   ar
    28    37    38   ar
    29    38    39   ar
    30    32    39   ar
    31    37    40    1
    32    40    41    1
    33    29    42    2
    34     8     2    1
    35     2    44    1
    36    44    45    1
    37    45    47    1
    38     3    47    1
    39     1     2    1
    40     3    43    1
    41     4     5    1
    42     4    12    1
    43     8     9    1
    44    45    46    1
    45    45    50    1
    46    16    24    1
    47    16    17    1
    48    20    22    1
    49    20    21    1
    50    26    28    1
    51    26    27    1
    52    47    49    1
    53    47    48    1
    54     7    51    1
    55    10    52    1
    56    22    53    1
    57    23    54    1
    58    24    55    1
    59    24    56    1
    60    25    57    1
    61    30    58    1
    62    31    59    1
    63    33    60    1
    64    36    61    1
    65    36    62    1
    66    36    63    1
    67    38    64    1
    68    39    65    1
    69    41    66    1
    70    41    67    1
    71    41    68    1
    72    44    69    1
    73    44    70    1
    74    49    71    1
    75    49    72    1
    76    49    73    1
    77    50    74    1
