REMARK  Name = NuBBE_198
REMARK  11 active torsions:
REMARK  status: ('A' for Active; 'I' for Inactive)
REMARK    1  A    between atoms: O_1  and  C_2
REMARK    2  A    between atoms: C_4  and  O_5
REMARK    3  A    between atoms: C_9  and  C_10
REMARK    4  A    between atoms: C_12  and  C_13
REMARK    5  A    between atoms: C_14  and  O_15
REMARK    6  A    between atoms: O_15  and  C_16
REMARK    7  A    between atoms: C_18  and  O_19
REMARK    8  A    between atoms: C_23  and  C_24
REMARK    9  A    between atoms: C_27  and  O_28
REMARK   10  A    between atoms: O_28  and  C_29
REMARK   11  A    between atoms: C_35  and  O_36
REMARK                            x       y       z     vdW  Elec       q    Type
REMARK                         _______ _______ _______ _____ _____    ______ ____
ROOT
ATOM      1  C   LIG A   1       1.973  -1.699  -0.377  0.00  0.00    +0.018 A 
ATOM      2  C   LIG A   1       1.875  -0.266  -0.420  0.00  0.00    +0.024 A 
ATOM      3  C   LIG A   1       2.719   0.631  -1.169  0.00  0.00    +0.031 A 
ATOM      4  C   LIG A   1       3.706  -0.066  -1.900  0.00  0.00    +0.125 A 
ATOM      5  C   LIG A   1       3.777  -1.485  -1.955  0.00  0.00    +0.046 A 
ATOM      6  C   LIG A   1       2.922  -2.293  -1.207  0.00  0.00    +0.015 A 
ENDROOT
BRANCH   1  13
ATOM      7  C   LIG A   1      -2.593  -2.166   3.579  0.00  0.00    +0.124 A 
ATOM      8  C   LIG A   1      -2.672  -3.546   3.733  0.00  0.00    +0.091 A 
ATOM      9  C   LIG A   1      -1.753  -4.359   3.064  0.00  0.00    +0.135 A 
ATOM     10  C   LIG A   1      -0.763  -3.792   2.248  0.00  0.00    +0.105 A 
ATOM     11  C   LIG A   1       0.247  -4.612   1.528  0.00  0.00    +0.197 A 
ATOM     12  C   LIG A   1       1.167  -3.862   0.643  0.00  0.00    +0.098 A 
ATOM     13  C   LIG A   1       1.092  -2.526   0.526  0.00  0.00    +0.139 A 
ATOM     14  O   LIG A   1       0.186  -1.768   1.268  0.00  0.00    -0.454 OA
ATOM     15  O   LIG A   1       0.347  -5.805   1.603  0.00  0.00    -0.287 OA
ATOM     16  C   LIG A   1      -0.715  -2.409   2.086  0.00  0.00    +0.146 A 
ATOM     17  C   LIG A   1      -1.626  -1.591   2.760  0.00  0.00    +0.092 A 
BRANCH   7  18
ATOM     18  O   LIG A   1      -3.459  -1.332   4.222  0.00  0.00    -0.506 OA
ATOM     19  H   LIG A   1      -4.070  -1.857   4.766  0.00  0.00    +0.292 HD
ENDBRANCH   7  18
BRANCH   9  20
ATOM     20  O   LIG A   1      -1.847  -5.715   3.212  0.00  0.00    -0.506 OA
ATOM     21  H   LIG A   1      -2.598  -5.952   3.778  0.00  0.00    +0.292 HD
ENDBRANCH   9  20
ENDBRANCH   1  13
BRANCH   3  22
ATOM     22  C   LIG A   1       2.475   2.199  -1.176  0.00  0.00    +0.070 A 
ATOM     23  C   LIG A   1       3.467   3.241  -1.312  0.00  0.00    +0.135 A 
ATOM     24  C   LIG A   1       3.093   4.611  -1.314  0.00  0.00    +0.092 A 
ATOM     25  C   LIG A   1       1.809   5.058  -1.157  0.00  0.00    +0.135 A 
ATOM     26  C   LIG A   1       0.817   4.122  -1.052  0.00  0.00    +0.106 A 
ATOM     27  C   LIG A   1       1.127   2.733  -1.042  0.00  0.00    +0.154 A 
ATOM     28  O   LIG A   1       0.077   1.843  -0.906  0.00  0.00    -0.454 OA
ATOM     29  C   LIG A   1      -1.221   2.305  -0.757  0.00  0.00    +0.139 A 
ATOM     30  C   LIG A   1      -1.596   3.581  -0.835  0.00  0.00    +0.098 A 
ATOM     31  C   LIG A   1      -0.580   4.604  -0.996  0.00  0.00    +0.197 A 
ATOM     32  O   LIG A   1      -0.939   5.760  -1.078  0.00  0.00    -0.287 OA
BRANCH  29  33
ATOM     33  C   LIG A   1      -2.234   1.259  -0.578  0.00  0.00    +0.018 A 
ATOM     34  C   LIG A   1      -1.975  -0.003  -1.094  0.00  0.00    +0.015 A 
ATOM     35  C   LIG A   1      -2.915  -1.009  -0.978  0.00  0.00    +0.046 A 
ATOM     36  C   LIG A   1      -4.137  -0.788  -0.341  0.00  0.00    +0.120 A 
ATOM     37  C   LIG A   1      -4.404   0.469   0.200  0.00  0.00    +0.046 A 
ATOM     38  C   LIG A   1      -3.451   1.487   0.089  0.00  0.00    +0.015 A 
BRANCH  36  39
ATOM     39  O   LIG A   1      -5.102  -1.755  -0.218  0.00  0.00    -0.495 OA
ATOM     40  C   LIG A   1      -4.728  -3.010  -0.793  0.00  0.00    +0.277 C 
ENDBRANCH  36  39
ENDBRANCH  29  33
BRANCH  23  41
ATOM     41  O   LIG A   1       4.816   3.009  -1.506  0.00  0.00    -0.494 OA
ATOM     42  C   LIG A   1       5.734   4.008  -1.010  0.00  0.00    +0.277 C 
ENDBRANCH  23  41
BRANCH  25  43
ATOM     43  O   LIG A   1       1.585   6.401  -1.128  0.00  0.00    -0.506 OA
ATOM     44  H   LIG A   1       2.402   6.901  -1.276  0.00  0.00    +0.292 HD
ENDBRANCH  25  43
ENDBRANCH   3  22
BRANCH   4  45
ATOM     45  O   LIG A   1       4.653   0.601  -2.627  0.00  0.00    -0.506 OA
ATOM     46  H   LIG A   1       5.255  -0.046  -3.029  0.00  0.00    +0.292 HD
ENDBRANCH   4  45
TORSDOF 9
