REMARK  Name = NuBBE_1931
REMARK  5 active torsions:
REMARK  status: ('A' for Active; 'I' for Inactive)
REMARK    1  A    between atoms: C_1  and  C_2
REMARK    2  A    between atoms: C_2  and  C_3
REMARK    3  A    between atoms: C_10  and  C_20
REMARK    4  A    between atoms: C_10  and  O_21
REMARK    5  A    between atoms: C_15  and  C_17
REMARK                            x       y       z     vdW  Elec       q    Type
REMARK                         _______ _______ _______ _____ _____    ______ ____
ROOT
ATOM      1  C   LIG A   1      -1.672  -1.736  -0.652  0.00  0.00    +0.011 C 
ATOM      2  C   LIG A   1      -0.205  -2.046  -0.448  0.00  0.00    -0.028 C 
ATOM      3  C   LIG A   1      -0.015  -3.526  -0.189  0.00  0.00    +0.011 C 
ATOM      4  C   LIG A   1       0.710  -1.092   0.309  0.00  0.00    +0.002 C 
ATOM      5  C   LIG A   1       0.954  -1.313  -1.172  0.00  0.00    -0.001 C 
ATOM      6  C   LIG A   1       0.656  -0.452  -2.363  0.00  0.00    +0.007 C 
ATOM      7  C   LIG A   1       0.865   1.069  -2.355  0.00  0.00    +0.035 C 
ATOM      8  C   LIG A   1       0.800   1.894  -1.053  0.00  0.00    +0.066 C 
ATOM      9  C   LIG A   1      -0.203   1.274  -0.054  0.00  0.00    +0.024 C 
ATOM     10  C   LIG A   1       0.422   0.250   0.891  0.00  0.00    +0.002 C 
ATOM     11  C   LIG A   1      -0.340   0.310   2.230  0.00  0.00    -0.010 C 
ATOM     12  C   LIG A   1      -0.870  -0.990   2.833  0.00  0.00    +0.008 C 
ATOM     13  C   LIG A   1      -1.415   1.386   2.056  0.00  0.00    +0.004 C 
ATOM     14  C   LIG A   1      -1.029   2.207   0.828  0.00  0.00    +0.007 C 
ATOM     15  C   LIG A   1       2.230   2.106  -0.520  0.00  0.00    +0.041 C 
ENDROOT
BRANCH   8  16
ATOM     16  O   LIG A   1       0.364   3.213  -1.405  0.00  0.00    -0.389 OA
ATOM     17  H   LIG A   1      -0.536   3.137  -1.810  0.00  0.00    +0.210 HD
ENDBRANCH   8  16
TORSDOF 1
