REMARK  Name = NuBBE_1827
REMARK  9 active torsions:
REMARK  status: ('A' for Active; 'I' for Inactive)
REMARK    1  A    between atoms: C_1  and  C_2
REMARK    2  A    between atoms: C_4  and  C_38
REMARK    3  A    between atoms: C_8  and  C_35
REMARK    4  A    between atoms: C_11  and  C_34
REMARK    5  A    between atoms: C_17  and  C_18
REMARK    6  A    between atoms: C_17  and  C_33
REMARK    7  A    between atoms: C_22  and  C_31
REMARK    8  A    between atoms: C_27  and  C_30
REMARK    9  A    between atoms: C_35  and  O_36
REMARK                            x       y       z     vdW  Elec       q    Type
REMARK                         _______ _______ _______ _____ _____    ______ ____
ROOT
ATOM      1  C   LIG A   1       2.671  -0.857   0.100  0.00  0.00    +0.008 C 
ATOM      2  C   LIG A   1       2.950  -0.420  -1.341  0.00  0.00    -0.007 C 
ATOM      3  C   LIG A   1       4.142  -1.254  -1.860  0.00  0.00    -0.011 C 
ATOM      4  C   LIG A   1       3.673  -2.660  -2.215  0.00  0.00    +0.004 C 
ATOM      5  C   LIG A   1       2.666  -2.652  -3.344  0.00  0.00    +0.018 C 
ATOM      6  C   LIG A   1       1.465  -1.664  -3.212  0.00  0.00    +0.071 C 
ATOM      7  C   LIG A   1       0.195  -2.396  -2.697  0.00  0.00    +0.019 C 
ATOM      8  C   LIG A   1      -0.204  -2.063  -1.268  0.00  0.00    +0.012 C 
ATOM      9  C   LIG A   1      -0.596  -0.570  -1.027  0.00  0.00    -0.005 C 
ATOM     10  C   LIG A   1      -0.664  -0.243   0.493  0.00  0.00    -0.063 C 
ATOM     11  C   LIG A   1      -0.873  -1.171   1.452  0.00  0.00    -0.026 C 
ATOM     12  C   LIG A   1      -1.111  -0.791   2.887  0.00  0.00    +0.032 C 
ATOM     13  C   LIG A   1      -2.022   0.445   2.905  0.00  0.00    +0.012 C 
ATOM     14  C   LIG A   1      -2.687   0.771   4.275  0.00  0.00    +0.027 C 
ATOM     15  C   LIG A   1      -1.739   0.605   5.477  0.00  0.00    +0.019 C 
ATOM     16  C   LIG A   1      -3.244   2.202   4.234  0.00  0.00    +0.139 C 
ATOM     17  C   LIG A   1      -3.588   2.792   2.877  0.00  0.00    +0.075 C 
ATOM     18  C   LIG A   1      -2.508   2.617   1.800  0.00  0.00    +0.015 C 
ATOM     19  C   LIG A   1      -1.348   1.670   2.195  0.00  0.00    -0.021 C 
ATOM     20  C   LIG A   1      -0.467   1.197   0.963  0.00  0.00    +0.021 C 
ATOM     21  C   LIG A   1      -0.368   2.196  -0.193  0.00  0.00    +0.009 C 
ATOM     22  C   LIG A   1       0.723   1.730  -1.152  0.00  0.00    +0.008 C 
ATOM     23  C   LIG A   1       0.382   0.391  -1.882  0.00  0.00    -0.019 C 
ATOM     24  C   LIG A   1       1.744  -0.344  -2.365  0.00  0.00    +0.016 C 
ATOM     25  C   LIG A   1      -0.352   0.885  -3.182  0.00  0.00    +0.012 C 
ATOM     26  C   LIG A   1      -0.376   2.463   3.114  0.00  0.00    +0.012 C 
ATOM     27  O   LIG A   1      -3.507   2.826   5.264  0.00  0.00    -0.297 OA
ATOM     28  C   LIG A   1      -3.896  -0.159   4.509  0.00  0.00    +0.019 C 
ATOM     29  C   LIG A   1      -2.097  -0.454  -1.456  0.00  0.00    +0.016 C 
ATOM     30  C   LIG A   1       4.877  -0.564  -3.014  0.00  0.00    +0.008 C 
ENDROOT
BRANCH   6  31
ATOM     31  C   LIG A   1       1.240  -1.285  -4.698  0.00  0.00    +0.311 C 
ATOM     32  O   LIG A   1       1.692  -0.318  -5.288  0.00  0.00    -0.250 OA
BRANCH  31  33
ATOM     33  O   LIG A   1       0.566  -2.219  -5.401  0.00  0.00    -0.480 OA
ATOM     34  H   LIG A   1       0.575  -1.871  -6.317  0.00  0.00    +0.295 HD
ENDBRANCH  31  33
ENDBRANCH   6  31
TORSDOF 2
