REMARK  Name = NuBBE_1254
REMARK  8 active torsions:
REMARK  status: ('A' for Active; 'I' for Inactive)
REMARK    1  A    between atoms: C_2  and  C_3
REMARK    2  A    between atoms: C_4  and  C_5
REMARK    3  A    between atoms: C_6  and  O_7
REMARK    4  A    between atoms: O_7  and  C_8
REMARK    5  A    between atoms: C_10  and  O_11
REMARK    6  A    between atoms: O_11  and  C_12
REMARK    7  A    between atoms: C_14  and  O_15
REMARK    8  A    between atoms: O_15  and  C_16
REMARK                            x       y       z     vdW  Elec       q    Type
REMARK                         _______ _______ _______ _____ _____    ______ ____
ROOT
ATOM      1  C   LIG A   1      -0.266  -0.797   0.071  0.00  0.00    +0.059 A 
ATOM      2  C   LIG A   1      -0.871   0.431   0.416  0.00  0.00    +0.134 A 
ATOM      3  C   LIG A   1      -0.240   1.636   0.088  0.00  0.00    +0.092 A 
ATOM      4  C   LIG A   1       0.955   1.644  -0.626  0.00  0.00    +0.127 A 
ATOM      5  C   LIG A   1       1.537   0.433  -1.005  0.00  0.00    +0.092 A 
ATOM      6  C   LIG A   1       0.943  -0.790  -0.662  0.00  0.00    +0.134 A 
ENDROOT
BRANCH   1   8
ATOM      7  C   LIG A   1      -0.694  -2.717   1.589  0.00  0.00    +0.043 C 
ATOM      8  C   LIG A   1      -0.926  -2.070   0.439  0.00  0.00    +0.018 C 
BRANCH   7  10
ATOM      9  O   LIG A   1      -1.216  -4.581   2.945  0.00  0.00    -0.296 OA
ATOM     10  C   LIG A   1      -1.406  -3.977   1.898  0.00  0.00    +0.251 C 
ENDBRANCH   7  10
ENDBRANCH   1   8
BRANCH   2  11
ATOM     11  O   LIG A   1      -2.067   0.388   1.096  0.00  0.00    -0.494 OA
ATOM     12  C   LIG A   1      -2.936   1.502   0.898  0.00  0.00    +0.277 C 
ENDBRANCH   2  11
BRANCH   4  13
ATOM     13  O   LIG A   1       1.638   2.769  -1.011  0.00  0.00    -0.495 OA
ATOM     14  C   LIG A   1       1.069   4.017  -0.623  0.00  0.00    +0.277 C 
ENDBRANCH   4  13
BRANCH   6  15
ATOM     15  O   LIG A   1       1.456  -2.014  -1.021  0.00  0.00    -0.494 OA
ATOM     16  C   LIG A   1       2.692  -2.029  -1.731  0.00  0.00    +0.277 C 
ENDBRANCH   6  15
TORSDOF 5
