REMARK  Name = NuBBE_2173
REMARK  9 active torsions:
REMARK  status: ('A' for Active; 'I' for Inactive)
REMARK    1  A    between atoms: C_6  and  O_7
REMARK    2  A    between atoms: O_7  and  C_8
REMARK    3  A    between atoms: C_8  and  C_9
REMARK    4  A    between atoms: C_10  and  C_11
REMARK    5  A    between atoms: C_10  and  C_12
REMARK    6  A    between atoms: C_17  and  C_18
REMARK    7  A    between atoms: C_20  and  O_21
REMARK    8  A    between atoms: C_22  and  O_23
REMARK    9  A    between atoms: O_23  and  C_24
REMARK                            x       y       z     vdW  Elec       q    Type
REMARK                         _______ _______ _______ _____ _____    ______ ____
ROOT
ATOM      1  O   LIG A   1      -2.552   1.138   0.093  0.00  0.00    -0.286 OA
ATOM      2  C   LIG A   1      -1.424   0.950   0.536  0.00  0.00    +0.200 A 
ATOM      3  C   LIG A   1      -0.729  -0.317   0.256  0.00  0.00    +0.065 A 
ATOM      4  C   LIG A   1      -1.317  -1.287  -0.563  0.00  0.00    +0.019 A 
ATOM      5  C   LIG A   1      -0.642  -2.481  -0.823  0.00  0.00    +0.046 A 
ATOM      6  C   LIG A   1       0.623  -2.705  -0.266  0.00  0.00    +0.124 A 
ATOM      7  C   LIG A   1       1.197  -1.729   0.557  0.00  0.00    +0.092 A 
ATOM      8  C   LIG A   1       0.523  -0.537   0.814  0.00  0.00    +0.142 A 
ATOM      9  O   LIG A   1       1.143   0.379   1.619  0.00  0.00    -0.462 OA
ATOM     10  C   LIG A   1       0.512   1.583   1.826  0.00  0.00    +0.208 A 
ATOM     11  C   LIG A   1      -0.695   1.962   1.368  0.00  0.00    +0.064 A 
ENDROOT
BRANCH  11  12
ATOM     12  C   LIG A   1      -1.239   3.316   1.647  0.00  0.00    -0.008 A 
ATOM     13  C   LIG A   1      -2.052   3.971   0.707  0.00  0.00    +0.058 A 
ATOM     14  C   LIG A   1      -2.587   5.243   0.958  0.00  0.00    +0.159 A 
ATOM     15  C   LIG A   1      -2.309   5.904   2.154  0.00  0.00    +0.161 A 
ATOM     16  C   LIG A   1      -1.509   5.258   3.100  0.00  0.00    +0.050 A 
ATOM     17  C   LIG A   1      -0.980   3.985   2.853  0.00  0.00    +0.012 A 
BRANCH  14  18
ATOM     18  O   LIG A   1      -3.406   5.796   0.012  0.00  0.00    -0.503 OA
ATOM     19  H   LIG A   1      -3.590   5.131  -0.673  0.00  0.00    +0.292 HD
ENDBRANCH  14  18
BRANCH  15  20
ATOM     20  O   LIG A   1      -2.782   7.121   2.566  0.00  0.00    -0.491 OA
ATOM     21  C   LIG A   1      -3.057   8.077   1.550  0.00  0.00    +0.277 C 
ENDBRANCH  15  20
ENDBRANCH  11  12
BRANCH   6  22
ATOM     22  O   LIG A   1       1.381  -3.825  -0.431  0.00  0.00    -0.488 OA
BRANCH  22  23
ATOM     23  C   LIG A   1       0.925  -4.800  -1.365  0.00  0.00    +0.256 C 
BRANCH  23  24
ATOM     24  C   LIG A   1       1.980  -5.864  -1.438  0.00  0.00    +0.012 C 
ATOM     25  C   LIG A   1       3.019  -5.929  -2.294  0.00  0.00    -0.076 C 
ATOM     26  C   LIG A   1       3.329  -4.895  -3.341  0.00  0.00    +0.038 C 
ATOM     27  C   LIG A   1       4.009  -7.061  -2.224  0.00  0.00    +0.038 C 
ENDBRANCH  23  24
ENDBRANCH  22  23
ENDBRANCH   6  22
TORSDOF 6
