@<TRIPOS>MOLECULE
NuBBE_1842
 54 56 0 0 0
SMALL
GASTEIGER

@<TRIPOS>ATOM
      1 C          -0.0591    1.0361    1.5992 C.3     1  LIG1       -0.0589
      2 C           0.6313    0.8616    0.2246 C.3     1  LIG1       -0.0225
      3 C           0.6327   -0.6571   -0.2255 C.3     1  LIG1        0.0005
      4 H           1.2756   -0.6965   -1.1204 H       1  LIG1        0.0338
      5 C          -0.7369   -1.2217   -0.6876 C.3     1  LIG1        0.1276
      6 O          -0.4744   -2.1063   -1.8027 O.3     1  LIG1       -0.3807
      7 C          -1.7197   -0.2075   -1.2893 C.2     1  LIG1        0.1652
      8 O          -2.6870   -0.6037   -1.9529 O.2     1  LIG1       -0.2943
      9 C          -1.5557    1.2637   -1.0065 C.3     1  LIG1        0.0125
     10 C          -0.0784    1.6666   -0.9225 C.3     1  LIG1       -0.0234
     11 H           0.3890    1.3012   -1.8522 H       1  LIG1        0.0315
     12 C           0.1553    3.2240   -0.9628 C.3     1  LIG1       -0.0312
     13 C          -0.2084    3.7613   -2.3739 C.3     1  LIG1       -0.0595
     14 C          -0.7025    4.0295    0.0338 C.3     1  LIG1       -0.0595
     15 C           1.6528    3.5437   -0.7399 C.3     1  LIG1       -0.0476
     16 C           2.2534    2.8474    0.4723 C.3     1  LIG1       -0.0521
     17 C           2.1042    1.3356    0.3587 C.3     1  LIG1       -0.0470
     18 C          -1.4316   -2.0482    0.4077 C.3     1  LIG1       -0.0079
     19 C          -0.5990   -3.2726    0.9013 C.3     1  LIG1       -0.0113
     20 C           0.9148   -3.0610    0.6227 C.3     1  LIG1       -0.0437
     21 C           1.3341   -1.6013    0.7887 C.3     1  LIG1       -0.0459
     22 C          -1.1634   -4.5558    0.2889 C.2     1  LIG1       -0.0851
     23 C          -0.5036   -5.5269   -0.3571 C.2     1  LIG1       -0.1021
     24 C          -0.8140   -3.4127    2.4275 C.3     1  LIG1       -0.0560
     25 H          -1.0719    0.6317    1.6194 H       1  LIG1        0.0235
     26 H          -0.1306    2.0785    1.9027 H       1  LIG1        0.0235
     27 H           0.4990    0.5466    2.4029 H       1  LIG1        0.0235
     28 H          -1.3476   -2.3848   -2.1467 H       1  LIG1        0.2108
     29 H          -2.1099    1.5009   -0.0945 H       1  LIG1        0.0346
     30 H          -2.0469    1.7925   -1.8295 H       1  LIG1        0.0346
     31 H           0.3182    3.2084   -3.1599 H       1  LIG1        0.0235
     32 H           0.0696    4.8172   -2.4762 H       1  LIG1        0.0235
     33 H          -1.2819    3.6922   -2.5755 H       1  LIG1        0.0235
     34 H          -0.4194    3.8689    1.0733 H       1  LIG1        0.0235
     35 H          -1.7685    3.8050   -0.0695 H       1  LIG1        0.0235
     36 H          -0.5892    5.1064   -0.1440 H       1  LIG1        0.0235
     37 H           1.8000    4.6268   -0.6406 H       1  LIG1        0.0271
     38 H           2.2268    3.2403   -1.6264 H       1  LIG1        0.0271
     39 H           1.7997    3.2163    1.3975 H       1  LIG1        0.0266
     40 H           3.3197    3.0963    0.5341 H       1  LIG1        0.0266
     41 H           2.5790    0.8712    1.2317 H       1  LIG1        0.0271
     42 H           2.6802    1.0017   -0.5148 H       1  LIG1        0.0271
     43 H          -2.4104   -2.3908    0.0436 H       1  LIG1        0.0305
     44 H          -1.6677   -1.3901    1.2513 H       1  LIG1        0.0305
     45 H           1.1852   -3.3675   -0.3946 H       1  LIG1        0.0274
     46 H           1.5156   -3.6889    1.2933 H       1  LIG1        0.0274
     47 H           2.4202   -1.5278    0.6520 H       1  LIG1        0.0269
     48 H           1.1418   -1.3084    1.8223 H       1  LIG1        0.0269
     49 H          -2.2384   -4.6983    0.4127 H       1  LIG1        0.0572
     50 H           0.5667   -5.5015   -0.5275 H       1  LIG1        0.0532
     51 H          -1.0367   -6.3933   -0.7382 H       1  LIG1        0.0532
     52 H          -0.2761   -4.2802    2.8287 H       1  LIG1        0.0238
     53 H          -1.8756   -3.5402    2.6724 H       1  LIG1        0.0238
     54 H          -0.4602   -2.5282    2.9682 H       1  LIG1        0.0238
@<TRIPOS>BOND
     1     2     3    1
     2     3     5    1
     3     5     7    1
     4     7     9    1
     5     9    10    1
     6     2    10    1
     7    10    12    1
     8    12    15    1
     9    15    16    1
    10    16    17    1
    11     2    17    1
    12     5    18    1
    13    18    19    1
    14    19    20    1
    15    20    21    1
    16     3    21    1
    17    22    23    2
    18     1     2    1
    19     3     4    1
    20     5     6    1
    21     7     8    2
    22    10    11    1
    23    12    13    1
    24    12    14    1
    25    19    24    1
    26    19    22    1
    27     1    25    1
    28     1    26    1
    29     1    27    1
    30     6    28    1
    31     9    29    1
    32     9    30    1
    33    13    31    1
    34    13    32    1
    35    13    33    1
    36    14    34    1
    37    14    35    1
    38    14    36    1
    39    15    37    1
    40    15    38    1
    41    16    39    1
    42    16    40    1
    43    17    41    1
    44    17    42    1
    45    18    43    1
    46    18    44    1
    47    20    45    1
    48    20    46    1
    49    21    47    1
    50    21    48    1
    51    22    49    1
    52    23    50    1
    53    23    51    1
    54    24    52    1
    55    24    53    1
    56    24    54    1
