@<TRIPOS>MOLECULE
NuBBE_1400
 48 50 0 0 0
SMALL
GASTEIGER

@<TRIPOS>ATOM
      1 O          -3.7542    0.5985   -0.8023 O.2     1  LIG1       -0.2871
      2 C          -2.6426    0.2001   -1.1083 C.ar    1  LIG1        0.1898
      3 C          -1.4404    1.0677   -1.0447 C.ar    1  LIG1        0.0486
      4 C          -0.1817    0.5198   -1.3644 C.ar    1  LIG1        0.0531
      5 N          -0.0649   -0.8498   -1.6616 N.ar    1  LIG1       -0.3433
      6 C          -1.2103   -1.6289   -1.8232 C.ar    1  LIG1        0.0229
      7 C          -2.4526   -1.1875   -1.5866 C.ar    1  LIG1        0.0051
      8 C          -0.9536   -3.0526   -2.2469 C.3     1  LIG1       -0.0119
      9 C           0.0396   -3.7351   -1.2947 C.3     1  LIG1       -0.0432
     10 C           1.1291   -2.7888   -0.7190 C.3     1  LIG1       -0.0224
     11 H           2.0886   -3.3210   -0.7633 H       1  LIG1        0.0318
     12 C           1.2492   -1.5145   -1.5817 C.3     1  LIG1        0.0264
     13 C           0.8591   -2.4736    0.7804 C.3     1  LIG1       -0.0451
     14 C           1.8985   -1.5480    1.4348 C.3     1  LIG1       -0.0345
     15 C           1.5921   -1.2943    2.8858 C.2     1  LIG1       -0.0879
     16 C           0.8711   -0.2838    3.4038 C.2     1  LIG1       -0.0882
     17 C           0.2210    0.8586    2.6722 C.3     1  LIG1       -0.0376
     18 C          -1.2935    0.8985    2.8275 C.3     1  LIG1       -0.0618
     19 C           0.9080    1.3978   -1.3878 C.ar    1  LIG1       -0.0340
     20 C           0.7696    2.7421   -1.0352 C.ar    1  LIG1       -0.0180
     21 C          -0.4733    3.2553   -0.6748 C.ar    1  LIG1        0.1209
     22 C          -1.5835    2.4137   -0.6760 C.ar    1  LIG1       -0.0072
     23 O          -0.7001    4.5512   -0.3009 O.3     1  LIG1       -0.4951
     24 C           0.2779    5.4905   -0.7394 C.3     1  LIG1        0.0788
     25 H          -3.3399   -1.7973   -1.6891 H       1  LIG1        0.0673
     26 H          -1.8760   -3.6415   -2.3096 H       1  LIG1        0.0328
     27 H          -0.5340   -3.0382   -3.2628 H       1  LIG1        0.0328
     28 H           0.5288   -4.5459   -1.8500 H       1  LIG1        0.0272
     29 H          -0.5151   -4.2209   -0.4828 H       1  LIG1        0.0272
     30 H           1.5811   -1.7735   -2.5945 H       1  LIG1        0.0494
     31 H           2.0391   -0.8891   -1.1625 H       1  LIG1        0.0494
     32 H          -0.1373   -2.0292    0.8943 H       1  LIG1        0.0271
     33 H           0.8349   -3.4218    1.3351 H       1  LIG1        0.0271
     34 H           1.9706   -0.5923    0.9109 H       1  LIG1        0.0307
     35 H           2.8941   -2.0047    1.3638 H       1  LIG1        0.0307
     36 H           2.0314   -2.0076    3.5828 H       1  LIG1        0.0569
     37 H           0.7601   -0.2528    4.4877 H       1  LIG1        0.0569
     38 H           0.4663    0.8472    1.6089 H       1  LIG1        0.0305
     39 H           0.6354    1.7892    3.0771 H       1  LIG1        0.0305
     40 H          -1.7719    0.0788    2.2815 H       1  LIG1        0.0233
     41 H          -1.6825    1.8400    2.4233 H       1  LIG1        0.0233
     42 H          -1.5985    0.8389    3.8773 H       1  LIG1        0.0233
     43 H           1.8948    1.0693   -1.6955 H       1  LIG1        0.0639
     44 H           1.6633    3.3563   -1.0466 H       1  LIG1        0.0655
     45 H          -2.5617    2.8042   -0.4044 H       1  LIG1        0.0662
     46 H          -0.0656    6.4923   -0.4684 H       1  LIG1        0.0660
     47 H           0.3898    5.4539   -1.8290 H       1  LIG1        0.0660
     48 H           1.2397    5.3288   -0.2411 H       1  LIG1        0.0660
@<TRIPOS>BOND
     1     1     2    2
     2     2     3   ar
     3     3     4   ar
     4     4     5   ar
     5     5     6   ar
     6     6     7   ar
     7     2     7   ar
     8     6     8    1
     9     8     9    1
    10     9    10    1
    11    10    12    1
    12     5    12    1
    13    13    14    1
    14    14    15    1
    15    15    16    2
    16    16    17    1
    17    17    18    1
    18     4    19   ar
    19    19    20   ar
    20    20    21   ar
    21    21    22   ar
    22     3    22   ar
    23    21    23    1
    24    23    24    1
    25    10    13    1
    26    10    11    1
    27     7    25    1
    28     8    26    1
    29     8    27    1
    30     9    28    1
    31     9    29    1
    32    12    30    1
    33    12    31    1
    34    13    32    1
    35    13    33    1
    36    14    34    1
    37    14    35    1
    38    15    36    1
    39    16    37    1
    40    17    38    1
    41    17    39    1
    42    18    40    1
    43    18    41    1
    44    18    42    1
    45    19    43    1
    46    20    44    1
    47    22    45    1
    48    24    46    1
    49    24    47    1
    50    24    48    1
