REMARK  Name = NuBBE_1496
REMARK  5 active torsions:
REMARK  status: ('A' for Active; 'I' for Inactive)
REMARK    1  A    between atoms: C_1  and  C_2
REMARK    2  A    between atoms: C_1  and  C_3
REMARK    3  A    between atoms: C_1  and  C_4
REMARK    4  A    between atoms: C_11  and  C_13
REMARK    5  A    between atoms: C_14  and  C_18
REMARK                            x       y       z     vdW  Elec       q    Type
REMARK                         _______ _______ _______ _____ _____    ______ ____
ROOT
ATOM      1  C   LIG A   1      -0.567  -0.728  -0.576  0.00  0.00    +0.002 C 
ATOM      2  C   LIG A   1       0.038   0.354   0.378  0.00  0.00    +0.041 C 
ATOM      3  C   LIG A   1       1.562   0.259   0.358  0.00  0.00    -0.063 C 
ATOM      4  C   LIG A   1       2.348   1.298   0.019  0.00  0.00    -0.022 C 
ATOM      5  C   LIG A   1       1.835   2.659  -0.351  0.00  0.00    +0.057 C 
ATOM      6  C   LIG A   1       0.337   2.791  -0.260  0.00  0.00    -0.072 C 
ATOM      7  C   LIG A   1      -0.456   1.755   0.070  0.00  0.00    -0.020 C 
ATOM      8  C   LIG A   1      -0.215   4.157  -0.545  0.00  0.00    +0.039 C 
ATOM      9  C   LIG A   1       2.152  -1.096   0.688  0.00  0.00    +0.012 C 
ATOM     10  C   LIG A   1       1.523  -2.160  -0.218  0.00  0.00    +0.008 C 
ATOM     11  C   LIG A   1      -0.006  -2.127  -0.218  0.00  0.00    +0.005 C 
ATOM     12  C   LIG A   1       2.002  -1.435   2.174  0.00  0.00    +0.012 C 
ENDROOT
BRANCH   1  13
ATOM     13  C   LIG A   1      -2.129  -0.723  -0.646  0.00  0.00    -0.013 C 
ATOM     14  C   LIG A   1      -2.666  -1.710  -1.690  0.00  0.00    +0.007 C 
ATOM     15  C   LIG A   1      -2.816  -0.980   0.699  0.00  0.00    +0.007 C 
ENDBRANCH   1  13
TORSDOF 1
