@<TRIPOS>MOLECULE
NuBBE_2233
 58 61 0 0 0
SMALL
GASTEIGER

@<TRIPOS>ATOM
      1 C          -1.3809    0.8539    1.5026 C.3     1  LIG1       -0.0589
      2 C           0.0525    0.6415    0.9369 C.3     1  LIG1       -0.0221
      3 C           0.8135   -0.2848    1.9713 C.3     1  LIG1       -0.0301
      4 C           0.2522   -1.7239    1.9333 C.3     1  LIG1       -0.0487
      5 C           0.1752   -2.3580    0.5519 C.3     1  LIG1       -0.0464
      6 C          -0.4477   -1.4941   -0.5566 C.3     1  LIG1       -0.0183
      7 C          -1.9887   -1.6508   -0.6687 C.3     1  LIG1       -0.0257
      8 C           0.0470   -0.0054   -0.5065 C.3     1  LIG1        0.0078
      9 H           1.1074   -0.0811   -0.7686 H       1  LIG1        0.0347
     10 C          -0.5035    0.8655   -1.6931 C.3     1  LIG1        0.1074
     11 H           0.2097    1.6826   -1.8514 H       1  LIG1        0.0737
     12 O          -1.8194    1.4101   -1.4556 O.3     1  LIG1       -0.4612
     13 C          -1.9655    2.7596   -1.6156 C.2     1  LIG1        0.3042
     14 C          -3.4074    3.1698   -1.5315 C.3     1  LIG1        0.0332
     15 O          -1.0678    3.5565   -1.8257 O.2     1  LIG1       -0.2512
     16 C          -0.5527    0.0848   -3.0284 C.3     1  LIG1       -0.0088
     17 C          -0.9530   -1.3908   -2.8890 C.3     1  LIG1       -0.0163
     18 H          -0.9451   -1.8868   -3.8654 H       1  LIG1        0.0347
     19 C          -0.0076   -2.0849   -1.9211 C.3     1  LIG1       -0.0400
     20 C          -2.2538   -1.5767   -2.1557 C.2     1  LIG1       -0.0729
     21 C          -3.4446   -1.7768   -2.7329 C.2     1  LIG1       -0.0992
     22 H           0.5128    0.0999    2.9597 H       1  LIG1        0.0311
     23 C           2.3959   -0.1880    2.0244 C.3     1  LIG1       -0.0315
     24 C           2.8919   -0.6941    3.4075 C.3     1  LIG1       -0.0595
     25 C           3.1493   -1.0240    0.9724 C.3     1  LIG1       -0.0595
     26 C           2.8578    1.2844    1.9137 C.3     1  LIG1       -0.0476
     27 C           2.2250    2.0214    0.7473 C.3     1  LIG1       -0.0521
     28 C           0.7147    2.0472    0.9190 C.3     1  LIG1       -0.0469
     29 H          -1.9171   -0.0821    1.6657 H       1  LIG1        0.0235
     30 H          -2.0015    1.4889    0.8719 H       1  LIG1        0.0235
     31 H          -1.3416    1.3476    2.4819 H       1  LIG1        0.0235
     32 H          -0.7554   -1.7281    2.3658 H       1  LIG1        0.0268
     33 H           0.8316   -2.3815    2.5898 H       1  LIG1        0.0268
     34 H          -0.3668   -3.3090    0.6382 H       1  LIG1        0.0271
     35 H           1.1835   -2.6505    0.2442 H       1  LIG1        0.0271
     36 H          -2.5480   -0.8753   -0.1473 H       1  LIG1        0.0315
     37 H          -2.3163   -2.6274   -0.2929 H       1  LIG1        0.0315
     38 H          -3.5166    3.9526   -0.7761 H       1  LIG1        0.0342
     39 H          -4.0490    2.3297   -1.2539 H       1  LIG1        0.0342
     40 H          -3.7230    3.5467   -2.5082 H       1  LIG1        0.0342
     41 H           0.4495    0.1145   -3.4765 H       1  LIG1        0.0307
     42 H          -1.2313    0.5818   -3.7327 H       1  LIG1        0.0307
     43 H           1.0473   -1.8935   -2.1502 H       1  LIG1        0.0277
     44 H          -0.1528   -3.1744   -1.9469 H       1  LIG1        0.0277
     45 H          -3.5560   -1.7705   -3.8127 H       1  LIG1        0.0534
     46 H          -4.3333   -1.9640   -2.1384 H       1  LIG1        0.0534
     47 H           2.4072   -0.1518    4.2273 H       1  LIG1        0.0235
     48 H           3.9734   -0.5472    3.5149 H       1  LIG1        0.0235
     49 H           2.6956   -1.7609    3.5503 H       1  LIG1        0.0235
     50 H           2.8505   -0.7996   -0.0508 H       1  LIG1        0.0235
     51 H           3.0241   -2.0970    1.1446 H       1  LIG1        0.0235
     52 H           4.2289   -0.8354    1.0269 H       1  LIG1        0.0235
     53 H           3.9505    1.3393    1.8242 H       1  LIG1        0.0271
     54 H           2.6076    1.8205    2.8397 H       1  LIG1        0.0271
     55 H           2.5133    1.5719   -0.2079 H       1  LIG1        0.0266
     56 H           2.6019    3.0510    0.7303 H       1  LIG1        0.0266
     57 H           0.2805    2.6792    0.1426 H       1  LIG1        0.0271
     58 H           0.4955    2.5673    1.8620 H       1  LIG1        0.0271
@<TRIPOS>BOND
     1     2     3    1
     2     3     4    1
     3     4     5    1
     4     5     6    1
     5     6     7    1
     6     6     8    1
     7     2     8    1
     8     8    10    1
     9    12    13    1
    10    13    14    1
    11    13    15    2
    12    10    16    1
    13    16    17    1
    14    17    19    1
    15     6    19    1
    16    17    20    1
    17     7    20    1
    18     3    23    1
    19    23    26    1
    20    26    27    1
    21    27    28    1
    22     2    28    1
    23     1     2    1
    24     3    22    1
    25     8     9    1
    26    10    11    1
    27    10    12    1
    28    17    18    1
    29    20    21    2
    30    23    24    1
    31    23    25    1
    32     1    29    1
    33     1    30    1
    34     1    31    1
    35     4    32    1
    36     4    33    1
    37     5    34    1
    38     5    35    1
    39     7    36    1
    40     7    37    1
    41    14    38    1
    42    14    39    1
    43    14    40    1
    44    16    41    1
    45    16    42    1
    46    19    43    1
    47    19    44    1
    48    21    45    1
    49    21    46    1
    50    24    47    1
    51    24    48    1
    52    24    49    1
    53    25    50    1
    54    25    51    1
    55    25    52    1
    56    26    53    1
    57    26    54    1
    58    27    55    1
    59    27    56    1
    60    28    57    1
    61    28    58    1
