@<TRIPOS>MOLECULE
NuBBE_1554
 79 82 0 0 0
SMALL
GASTEIGER

@<TRIPOS>ATOM
      1 C          -1.6344    0.4792   -0.6282 C.3     1  LIG1       -0.0553
      2 C          -0.1006    0.2418   -0.5672 C.3     1  LIG1       -0.0051
      3 C           0.2097   -1.2111   -0.9854 C.2     1  LIG1       -0.0633
      4 C           0.9740   -2.0498   -0.2410 C.2     1  LIG1       -0.0635
      5 C           1.6914   -1.5705    1.0081 C.3     1  LIG1       -0.0304
      6 C           1.8215   -0.0586    1.0775 C.3     1  LIG1       -0.0428
      7 C           0.4637    0.6522    0.8467 C.3     1  LIG1       -0.0191
      8 C           0.7707    2.2081    0.7320 C.3     1  LIG1       -0.0219
      9 C           0.0406    3.1707    1.7176 C.3     1  LIG1        0.0599
     10 H          -1.0442    3.0372    1.5980 H       1  LIG1        0.0416
     11 C           0.4703    2.8021    3.1209 C.2     1  LIG1        0.3081
     12 O          -0.5560    2.7967    3.9957 O.3     1  LIG1       -0.4804
     13 O           1.5890    2.5170    3.4917 O.2     1  LIG1       -0.2507
     14 C           0.4053    4.6582    1.4848 C.3     1  LIG1       -0.0364
     15 C          -0.3007    5.6889    2.3894 C.3     1  LIG1       -0.0338
     16 C          -1.7861    5.8285    2.1496 C.2     1  LIG1       -0.0853
     17 C          -2.3846    6.7479    1.3617 C.2     1  LIG1       -0.0796
     18 C          -1.6407    7.7624    0.5377 C.3     1  LIG1       -0.0440
     19 C          -3.8814    6.8364    1.2036 C.3     1  LIG1       -0.0440
     20 H           1.8461    2.3493    0.9203 H       1  LIG1        0.0314
     21 C           0.5774    2.5604   -0.7554 C.3     1  LIG1       -0.0481
     22 C           0.6124    1.2360   -1.5040 C.3     1  LIG1       -0.0431
     23 C          -0.4858    0.2150    1.9886 C.3     1  LIG1       -0.0585
     24 C           1.2049   -3.5329   -0.6243 C.3     1  LIG1       -0.0067
     25 C           0.0880   -4.0016   -1.6245 C.3     1  LIG1       -0.0198
     26 C           0.0880   -5.5124   -2.0267 C.3     1  LIG1        0.0270
     27 C          -1.2765   -5.8637   -2.6757 C.3     1  LIG1       -0.0528
     28 C           0.2316   -6.3729   -0.7594 C.2     1  LIG1        0.1392
     29 C           1.2037   -5.9228    0.3064 C.3     1  LIG1        0.0072
     30 C           1.0740   -4.4422    0.6233 C.3     1  LIG1       -0.0369
     31 O          -0.3217   -7.4699   -0.6493 O.2     1  LIG1       -0.2968
     32 C           1.1812   -5.9244   -3.0226 C.3     1  LIG1       -0.0528
     33 H          -0.8614   -3.8720   -1.0743 H       1  LIG1        0.0318
     34 C           0.0121   -3.0257   -2.8049 C.3     1  LIG1       -0.0448
     35 C          -0.4091   -1.6478   -2.3034 C.3     1  LIG1       -0.0306
     36 C           2.6398   -3.5984   -1.1970 C.3     1  LIG1       -0.0555
     37 H          -2.0099    0.4606   -1.6570 H       1  LIG1        0.0238
     38 H          -1.9226    1.4492   -0.2107 H       1  LIG1        0.0238
     39 H          -2.1776   -0.2933   -0.0703 H       1  LIG1        0.0238
     40 H           1.1712   -1.9477    1.8959 H       1  LIG1        0.0310
     41 H           2.7065   -1.9761    1.0595 H       1  LIG1        0.0310
     42 H           2.5627    0.2632    0.3333 H       1  LIG1        0.0274
     43 H           2.2387    0.2195    2.0536 H       1  LIG1        0.0274
     44 H          -0.1300    2.5390    4.8399 H       1  LIG1        0.2951
     45 H           0.2106    4.9338    0.4432 H       1  LIG1        0.0276
     46 H           1.4868    4.7769    1.6385 H       1  LIG1        0.0276
     47 H           0.1865    6.6604    2.2370 H       1  LIG1        0.0308
     48 H          -0.1259    5.4623    3.4483 H       1  LIG1        0.0308
     49 H          -2.4093    5.1439    2.7258 H       1  LIG1        0.0571
     50 H          -0.6190    7.4481    0.3132 H       1  LIG1        0.0274
     51 H          -1.6160    8.7244    1.0585 H       1  LIG1        0.0274
     52 H          -2.1378    7.9108   -0.4275 H       1  LIG1        0.0274
     53 H          -4.4085    5.9964    1.6646 H       1  LIG1        0.0274
     54 H          -4.1424    6.8391    0.1385 H       1  LIG1        0.0274
     55 H          -4.2573    7.7670    1.6430 H       1  LIG1        0.0274
     56 H           1.3709    3.2250   -1.1163 H       1  LIG1        0.0269
     57 H          -0.3782    3.0660   -0.9311 H       1  LIG1        0.0269
     58 H           1.6520    0.9351   -1.6870 H       1  LIG1        0.0274
     59 H           0.1289    1.3272   -2.4829 H       1  LIG1        0.0274
     60 H          -0.0047    0.2896    2.9683 H       1  LIG1        0.0235
     61 H          -0.7863   -0.8344    1.8843 H       1  LIG1        0.0235
     62 H          -1.4099    0.7979    2.0169 H       1  LIG1        0.0235
     63 H          -2.1110   -5.5967   -2.0170 H       1  LIG1        0.0239
     64 H          -1.3611   -6.9383   -2.8777 H       1  LIG1        0.0239
     65 H          -1.4202   -5.3551   -3.6336 H       1  LIG1        0.0239
     66 H           2.2171   -6.1786   -0.0150 H       1  LIG1        0.0342
     67 H           0.9985   -6.4945    1.2192 H       1  LIG1        0.0342
     68 H           0.0979   -4.2669    1.0988 H       1  LIG1        0.0278
     69 H           1.8313   -4.1938    1.3764 H       1  LIG1        0.0278
     70 H           0.9670   -6.9136   -3.4455 H       1  LIG1        0.0239
     71 H           2.1642   -6.0228   -2.5615 H       1  LIG1        0.0239
     72 H           1.2570   -5.2261   -3.8612 H       1  LIG1        0.0239
     73 H          -0.7192   -3.3440   -3.5537 H       1  LIG1        0.0271
     74 H           0.9699   -2.9549   -3.3300 H       1  LIG1        0.0271
     75 H          -1.4995   -1.6657   -2.1864 H       1  LIG1        0.0310
     76 H          -0.1823   -0.9180   -3.0882 H       1  LIG1        0.0310
     77 H           3.3817   -3.2249   -0.4830 H       1  LIG1        0.0238
     78 H           2.7511   -2.9919   -2.1013 H       1  LIG1        0.0238
     79 H           2.9655   -4.6089   -1.4298 H       1  LIG1        0.0238
@<TRIPOS>BOND
     1     1     2    1
     2     2     3    1
     3     3     4    2
     4     4     5    1
     5     5     6    1
     6     6     7    1
     7     7     8    1
     8     8     9    1
     9     9    10    1
    10     9    11    1
    11    11    12    1
    12    11    13    2
    13     9    14    1
    14    14    15    1
    15    15    16    1
    16    16    17    2
    17    17    18    1
    18    17    19    1
    19     8    20    1
    20     8    21    1
    21    21    22    1
    22     2    22    1
    23     2     7    1
    24     7    23    1
    25     4    24    1
    26    24    25    1
    27    25    26    1
    28    26    27    1
    29    26    28    1
    30    28    29    1
    31    29    30    1
    32    28    31    2
    33    26    32    1
    34    25    33    1
    35    25    34    1
    36    34    35    1
    37     3    35    1
    38    30    24    1
    39    24    36    1
    40     1    37    1
    41     1    38    1
    42     1    39    1
    43     5    40    1
    44     5    41    1
    45     6    42    1
    46     6    43    1
    47    12    44    1
    48    14    45    1
    49    14    46    1
    50    15    47    1
    51    15    48    1
    52    16    49    1
    53    18    50    1
    54    18    51    1
    55    18    52    1
    56    19    53    1
    57    19    54    1
    58    19    55    1
    59    21    56    1
    60    21    57    1
    61    22    58    1
    62    22    59    1
    63    23    60    1
    64    23    61    1
    65    23    62    1
    66    27    63    1
    67    27    64    1
    68    27    65    1
    69    29    66    1
    70    29    67    1
    71    30    68    1
    72    30    69    1
    73    32    70    1
    74    32    71    1
    75    32    72    1
    76    34    73    1
    77    34    74    1
    78    35    75    1
    79    35    76    1
    80    36    77    1
    81    36    78    1
    82    36    79    1
