REMARK  Name = NuBBE_2446
REMARK  10 active torsions:
REMARK  status: ('A' for Active; 'I' for Inactive)
REMARK    1  A    between atoms: O_1  and  C_2
REMARK    2  A    between atoms: O_1  and  C_3
REMARK    3  A    between atoms: C_7  and  O_11
REMARK    4  A    between atoms: C_9  and  C_10
REMARK    5  A    between atoms: O_11  and  C_12
REMARK    6  A    between atoms: C_15  and  C_17
REMARK    7  A    between atoms: C_17  and  O_18
REMARK    8  A    between atoms: C_19  and  O_27
REMARK    9  A    between atoms: C_21  and  O_26
REMARK   10  A    between atoms: C_23  and  O_25
REMARK                            x       y       z     vdW  Elec       q    Type
REMARK                         _______ _______ _______ _____ _____    ______ ____
ROOT
ATOM      1  O   LIG A   1       0.423   1.722  -0.884  0.00  0.00    -0.461 OA
ENDROOT
BRANCH   1   6
ATOM      2  C   LIG A   1      -1.941  -3.297  -2.183  0.00  0.00    +0.138 A 
ATOM      3  C   LIG A   1      -1.390  -1.944  -1.935  0.00  0.00    +0.062 A 
ATOM      4  C   LIG A   1      -0.130  -1.893  -1.324  0.00  0.00    +0.146 A 
ATOM      5  C   LIG A   1       0.502  -0.708  -0.959  0.00  0.00    +0.092 A 
ATOM      6  C   LIG A   1      -0.122   0.504  -1.192  0.00  0.00    +0.128 A 
ATOM      7  C   LIG A   1      -1.359   0.503  -1.842  0.00  0.00    +0.050 A 
ATOM      8  C   LIG A   1      -1.988  -0.702  -2.253  0.00  0.00    -0.033 A 
ATOM      9  C   LIG A   1      -3.272  -0.568  -3.031  0.00  0.00    +0.045 C 
ATOM     10  O   LIG A   1       0.638  -3.042  -1.063  0.00  0.00    -0.422 OA
ATOM     11  C   LIG A   1       0.206  -4.288  -1.454  0.00  0.00    +0.341 A 
ATOM     12  O   LIG A   1       0.895  -5.286  -1.341  0.00  0.00    -0.245 OA
ATOM     13  C   LIG A   1      -1.164  -4.369  -1.965  0.00  0.00    +0.138 A 
BRANCH   2  14
ATOM     14  O   LIG A   1      -3.259  -3.354  -2.585  0.00  0.00    -0.494 OA
ATOM     15  C   LIG A   1      -3.827  -4.644  -2.801  0.00  0.00    +0.277 C 
ENDBRANCH   2  14
ENDBRANCH   1   6
BRANCH   1  16
ATOM     16  C   LIG A   1       1.333   1.737   0.236  0.00  0.00    +0.339 C 
ATOM     17  O   LIG A   1       0.610   1.378   1.420  0.00  0.00    -0.331 OA
ATOM     18  C   LIG A   1       1.381   1.473   2.612  0.00  0.00    +0.179 C 
ATOM     19  C   LIG A   1       1.744   2.945   2.843  0.00  0.00    +0.177 C 
ATOM     20  C   LIG A   1       2.632   3.390   1.681  0.00  0.00    +0.180 C 
ATOM     21  C   LIG A   1       1.977   3.142   0.320  0.00  0.00    +0.214 C 
BRANCH  21  22
ATOM     22  O   LIG A   1       2.997   3.276  -0.693  0.00  0.00    -0.383 OA
ATOM     23  H   LIG A   1       3.427   4.136  -0.522  0.00  0.00    +0.210 HD
ENDBRANCH  21  22
BRANCH  20  24
ATOM     24  O   LIG A   1       2.943   4.788   1.810  0.00  0.00    -0.386 OA
ATOM     25  H   LIG A   1       3.123   4.919   2.764  0.00  0.00    +0.210 HD
ENDBRANCH  20  24
BRANCH  19  26
ATOM     26  O   LIG A   1       2.468   3.169   4.056  0.00  0.00    -0.387 OA
ATOM     27  H   LIG A   1       1.998   2.674   4.763  0.00  0.00    +0.210 HD
ENDBRANCH  19  26
BRANCH  18  28
ATOM     28  C   LIG A   1       0.564   0.883   3.767  0.00  0.00    +0.190 C 
BRANCH  28  29
ATOM     29  O   LIG A   1       1.290   0.944   4.992  0.00  0.00    -0.392 OA
ATOM     30  H   LIG A   1       1.884   0.170   5.013  0.00  0.00    +0.209 HD
ENDBRANCH  28  29
ENDBRANCH  18  28
ENDBRANCH   1  16
TORSDOF 8
