REMARK  Name = NuBBE_2205
REMARK  16 active torsions:
REMARK  status: ('A' for Active; 'I' for Inactive)
REMARK    1  A    between atoms: C_1  and  C_3
REMARK    2  A    between atoms: C_1  and  C_7
REMARK    3  A    between atoms: C_4  and  C_5
REMARK    4  A    between atoms: C_4  and  C_6
REMARK    5  A    between atoms: C_9  and  C_10
REMARK    6  A    between atoms: C_10  and  O_11
REMARK    7  A    between atoms: C_10  and  C_27
REMARK    8  A    between atoms: O_11  and  C_12
REMARK    9  A    between atoms: C_12  and  C_13
REMARK   10  A    between atoms: C_12  and  C_14
REMARK   11  A    between atoms: C_16  and  C_17
REMARK   12  A    between atoms: C_17  and  C_19
REMARK   13  A    between atoms: C_20  and  C_21
REMARK   14  A    between atoms: C_20  and  C_22
REMARK   15  A    between atoms: C_23  and  O_26
REMARK   16  A    between atoms: C_30  and  O_31
REMARK                            x       y       z     vdW  Elec       q    Type
REMARK                         _______ _______ _______ _____ _____    ______ ____
ROOT
ATOM      1  O   LIG A   1      -0.204  -0.533  -0.625  0.00  0.00    -0.365 OA
ENDROOT
BRANCH   1   2
ATOM      2  C   LIG A   1      -1.384  -0.614   0.186  0.00  0.00    +0.146 C 
ATOM      3  C   LIG A   1      -1.240  -1.626   1.325  0.00  0.00    +0.043 C 
BRANCH   2   6
ATOM      4  C   LIG A   1      -3.270   2.462   1.553  0.00  0.00    +0.063 A 
ATOM      5  C   LIG A   1      -2.986   1.183   1.028  0.00  0.00    +0.021 A 
ATOM      6  C   LIG A   1      -1.667   0.779   0.738  0.00  0.00    -0.018 A 
ATOM      7  C   LIG A   1      -0.627   1.684   0.990  0.00  0.00    +0.010 A 
ATOM      8  C   LIG A   1      -0.891   2.952   1.513  0.00  0.00    +0.046 A 
ATOM      9  C   LIG A   1      -2.204   3.337   1.800  0.00  0.00    +0.128 A 
BRANCH   4  10
ATOM     10  C   LIG A   1      -4.702   2.772   1.858  0.00  0.00    +0.190 C 
ATOM     11  O   LIG A   1      -5.458   1.857   2.178  0.00  0.00    -0.287 OA
BRANCH  10  12
ATOM     12  C   LIG A   1      -5.193   4.170   1.651  0.00  0.00    +0.050 C 
ATOM     13  C   LIG A   1      -6.344   4.707   2.109  0.00  0.00    -0.072 C 
ATOM     14  C   LIG A   1      -7.357   4.027   2.991  0.00  0.00    +0.039 C 
ATOM     15  C   LIG A   1      -6.702   6.129   1.754  0.00  0.00    +0.039 C 
ENDBRANCH  10  12
ENDBRANCH   4  10
BRANCH   9  16
ATOM     16  O   LIG A   1      -2.413   4.570   2.351  0.00  0.00    -0.506 OA
ATOM     17  H   LIG A   1      -1.556   5.014   2.475  0.00  0.00    +0.292 HD
ENDBRANCH   9  16
ENDBRANCH   2   6
ENDBRANCH   1   2
BRANCH   1  18
ATOM     18  C   LIG A   1       0.260  -1.735  -1.240  0.00  0.00    +0.146 C 
ATOM     19  C   LIG A   1      -0.775  -2.357  -2.173  0.00  0.00    +0.043 C 
BRANCH  18  20
ATOM     20  C   LIG A   1       1.541  -1.381  -1.984  0.00  0.00    -0.018 A 
ATOM     21  C   LIG A   1       2.753  -2.007  -1.637  0.00  0.00    +0.021 A 
ATOM     22  C   LIG A   1       3.958  -1.696  -2.294  0.00  0.00    +0.063 A 
ATOM     23  C   LIG A   1       3.943  -0.705  -3.286  0.00  0.00    +0.128 A 
ATOM     24  C   LIG A   1       2.745  -0.098  -3.662  0.00  0.00    +0.046 A 
ATOM     25  C   LIG A   1       1.551  -0.440  -3.022  0.00  0.00    +0.010 A 
BRANCH  22  26
ATOM     26  C   LIG A   1       5.223  -2.449  -2.009  0.00  0.00    +0.190 C 
ATOM     27  O   LIG A   1       6.123  -2.456  -2.829  0.00  0.00    -0.287 OA
BRANCH  26  28
ATOM     28  C   LIG A   1       5.327  -3.132  -0.680  0.00  0.00    +0.050 C 
ATOM     29  C   LIG A   1       6.137  -4.155  -0.343  0.00  0.00    -0.072 C 
ATOM     30  C   LIG A   1       7.157  -4.805  -1.237  0.00  0.00    +0.039 C 
ATOM     31  C   LIG A   1       6.033  -4.744   1.040  0.00  0.00    +0.039 C 
ENDBRANCH  26  28
ENDBRANCH  22  26
BRANCH  23  32
ATOM     32  O   LIG A   1       5.071  -0.255  -3.921  0.00  0.00    -0.506 OA
ATOM     33  H   LIG A   1       5.835  -0.779  -3.600  0.00  0.00    +0.292 HD
ENDBRANCH  23  32
ENDBRANCH  18  20
ENDBRANCH   1  18
TORSDOF 10
