REMARK  Name = NuBBE_2523
REMARK  10 active torsions:
REMARK  status: ('A' for Active; 'I' for Inactive)
REMARK    1  A    between atoms: O_1  and  C_2
REMARK    2  A    between atoms: O_1  and  C_3
REMARK    3  A    between atoms: C_6  and  O_13
REMARK    4  A    between atoms: C_7  and  O_11
REMARK    5  A    between atoms: C_8  and  O_9
REMARK    6  A    between atoms: O_9  and  C_10
REMARK    7  A    between atoms: O_11  and  C_12
REMARK    8  A    between atoms: C_17  and  C_19
REMARK    9  A    between atoms: C_21  and  O_22
REMARK   10  A    between atoms: C_23  and  O_26
REMARK                            x       y       z     vdW  Elec       q    Type
REMARK                         _______ _______ _______ _____ _____    ______ ____
ROOT
ATOM      1  C   UNL A   1      -0.579   1.718  -0.105  0.00  0.00    +0.209 A 
ATOM      2  C   UNL A   1       0.199   0.555  -0.110  0.00  0.00    +0.188 A 
ATOM      3  C   UNL A   1       1.592   0.668  -0.165  0.00  0.00    +0.113 A 
ATOM      4  C   UNL A   1       2.203   1.940  -0.239  0.00  0.00    +0.177 A 
ATOM      5  C   UNL A   1       1.427   3.118  -0.284  0.00  0.00    +0.208 A 
ATOM      6  C   UNL A   1       0.026   3.011  -0.199  0.00  0.00    +0.211 A 
ATOM      7  C   UNL A   1       2.381  -0.577  -0.215  0.00  0.00    +0.197 A 
ATOM      8  O   UNL A   1       3.608  -0.546  -0.240  0.00  0.00    -0.287 OA
ATOM      9  C   UNL A   1       1.652  -1.857  -0.236  0.00  0.00    +0.098 A 
ATOM     10  C   UNL A   1       0.319  -1.825  -0.201  0.00  0.00    +0.140 A 
ATOM     11  O   UNL A   1      -0.428  -0.672  -0.126  0.00  0.00    -0.451 OA
ENDROOT
BRANCH  10  12
ATOM     12  C   UNL A   1      -0.463  -3.072  -0.224  0.00  0.00    +0.021 A 
ATOM     13  C   UNL A   1      -0.765  -3.736   0.976  0.00  0.00    +0.060 A 
ATOM     14  C   UNL A   1      -1.414  -4.970   0.943  0.00  0.00    +0.159 A 
ATOM     15  C   UNL A   1      -1.785  -5.535  -0.283  0.00  0.00    +0.158 A 
ATOM     16  C   UNL A   1      -1.530  -4.875  -1.474  0.00  0.00    +0.050 A 
ATOM     17  C   UNL A   1      -0.865  -3.640  -1.445  0.00  0.00    +0.015 A 
BRANCH  14  18
ATOM     18  O   UNL A   1      -1.702  -5.675   2.072  0.00  0.00    -0.503 OA
ATOM     19  H   UNL A   1      -1.376  -5.172   2.838  0.00  0.00    +0.292 HD
ENDBRANCH  14  18
BRANCH  15  20
ATOM     20  O   UNL A   1      -2.395  -6.760  -0.310  0.00  0.00    -0.503 OA
ATOM     21  H   UNL A   1      -2.425  -7.041   0.624  0.00  0.00    +0.292 HD
ENDBRANCH  15  20
ENDBRANCH  10  12
BRANCH   1  22
ATOM     22  O   UNL A   1      -1.958   1.743  -0.128  0.00  0.00    -0.488 OA
ATOM     23  C   UNL A   1      -2.676   0.663   0.447  0.00  0.00    +0.277 C 
ENDBRANCH   1  22
BRANCH   6  24
ATOM     24  O   UNL A   1      -0.916   4.008  -0.267  0.00  0.00    -0.488 OA
ATOM     25  C   UNL A   1      -0.593   5.377  -0.155  0.00  0.00    +0.277 C 
ENDBRANCH   6  24
BRANCH   5  26
ATOM     26  O   UNL A   1       2.044   4.261  -0.741  0.00  0.00    -0.488 OA
ATOM     27  C   UNL A   1       2.411   5.223   0.247  0.00  0.00    +0.277 C 
ENDBRANCH   5  26
BRANCH   4  28
ATOM     28  O   UNL A   1       3.574   2.057  -0.329  0.00  0.00    -0.503 OA
ATOM     29  H   UNL A   1       3.974   1.155  -0.346  0.00  0.00    +0.292 HD
ENDBRANCH   4  28
TORSDOF 7
