REMARK  Name = NuBBE_152
REMARK  9 active torsions:
REMARK  status: ('A' for Active; 'I' for Inactive)
REMARK    1  A    between atoms: C_1  and  C_2
REMARK    2  A    between atoms: C_2  and  C_3
REMARK    3  A    between atoms: C_6  and  C_7
REMARK    4  A    between atoms: C_7  and  C_8
REMARK    5  A    between atoms: C_9  and  C_10
REMARK    6  A    between atoms: C_9  and  C_11
REMARK    7  A    between atoms: C_13  and  C_14
REMARK    8  A    between atoms: C_14  and  O_15
REMARK    9  A    between atoms: O_15  and  C_16
REMARK                            x       y       z     vdW  Elec       q    Type
REMARK                         _______ _______ _______ _____ _____    ______ ____
ROOT
ATOM      1  C   LIG A   1      -3.595   1.738  -1.933  0.00  0.00    +0.060 C 
ATOM      2  C   LIG A   1      -2.070   1.802  -1.792  0.00  0.00    +0.123 C 
ATOM      3  C   LIG A   1      -1.412   1.739  -3.174  0.00  0.00    +0.060 C 
ATOM      4  O   LIG A   1      -1.682   0.603  -1.088  0.00  0.00    -0.481 OA
ATOM      5  C   LIG A   1      -0.779   0.695  -0.064  0.00  0.00    +0.132 A 
ATOM      6  C   LIG A   1      -0.285  -0.509   0.474  0.00  0.00    -0.001 A 
ATOM      7  C   LIG A   1       0.631  -0.453   1.542  0.00  0.00    +0.022 A 
ATOM      8  C   LIG A   1       1.018   0.777   2.086  0.00  0.00    +0.060 A 
ATOM      9  C   LIG A   1       0.516   1.962   1.541  0.00  0.00    +0.026 A 
ATOM     10  C   LIG A   1      -0.379   1.925   0.471  0.00  0.00    +0.018 A 
ATOM     11  C   LIG A   1      -0.909   3.171  -0.054  0.00  0.00    +0.011 C 
ATOM     12  C   LIG A   1      -1.701   3.105  -1.124  0.00  0.00    +0.020 C 
ENDROOT
BRANCH   8  13
ATOM     13  C   LIG A   1       1.911   0.791   3.282  0.00  0.00    +0.339 C 
ATOM     14  O   LIG A   1       2.336  -0.208   3.825  0.00  0.00    -0.245 OA
BRANCH  13  15
ATOM     15  O   LIG A   1       2.107   2.075   3.677  0.00  0.00    -0.465 OA
ATOM     16  C   LIG A   1       2.800   2.260   4.907  0.00  0.00    +0.280 C 
ENDBRANCH  13  15
ENDBRANCH   8  13
BRANCH   6  17
ATOM     17  C   LIG A   1      -0.716  -1.860  -0.056  0.00  0.00    +0.066 C 
BRANCH  17  18
ATOM     18  C   LIG A   1       0.156  -2.357  -1.178  0.00  0.00    -0.023 C 
ATOM     19  C   LIG A   1       0.871  -3.500  -1.228  0.00  0.00    -0.079 C 
ATOM     20  C   LIG A   1       0.971  -4.506  -0.115  0.00  0.00    +0.038 C 
ATOM     21  C   LIG A   1       1.648  -3.871  -2.465  0.00  0.00    +0.038 C 
ENDBRANCH  17  18
ENDBRANCH   6  17
TORSDOF 4
