@<TRIPOS>MOLECULE
NuBBE_2102
 59 62 0 0 0
SMALL
GASTEIGER

@<TRIPOS>ATOM
      1 O          -2.5352   -0.6756   -1.3438 O.3     1  LIG1       -0.3707
      2 C          -3.7827   -1.2500   -0.9644 C.3     1  LIG1        0.0374
      3 C          -1.4213   -0.8296   -0.4368 C.3     1  LIG1        0.1304
      4 C          -0.1493   -0.1703   -1.1553 C.3     1  LIG1        0.0216
      5 C           1.0285   -1.1603   -0.8624 C.3     1  LIG1       -0.0258
      6 C           0.4705   -2.1500    0.1991 C.3     1  LIG1        0.0086
      7 C          -0.9681   -2.3217   -0.3013 C.3     1  LIG1        0.0934
      8 O          -1.7010   -3.1612    0.5815 O.3     1  LIG1       -0.3883
      9 C           1.2260   -3.5026    0.2643 C.3     1  LIG1       -0.0265
     10 C           2.7143   -3.3986    0.5869 C.2     1  LIG1       -0.0905
     11 C           3.7199   -3.9302   -0.1773 C.2     1  LIG1       -0.1026
     12 C           0.4568   -1.4962    1.6340 C.3     1  LIG1       -0.0154
     13 C          -0.4817   -0.2921    1.8823 C.3     1  LIG1        0.0876
     14 C          -1.7189   -0.2686    0.9695 C.3     1  LIG1        0.1131
     15 O          -2.7800   -1.0360    1.5987 O.3     1  LIG1       -0.3863
     16 O          -0.9908   -0.2594    3.2330 O.3     1  LIG1       -0.3771
     17 C          -0.0009   -0.1291    4.2401 C.3     1  LIG1        0.0369
     18 C           1.4587   -1.7994   -2.1998 C.3     1  LIG1       -0.0612
     19 C           0.2239    1.3094   -0.9874 C.ar    1  LIG1       -0.0340
     20 C           1.5629    1.7545   -1.0680 C.ar    1  LIG1       -0.0124
     21 C           1.8492    3.1031   -0.9661 C.ar    1  LIG1        0.1702
     22 C           0.8620    4.0414   -0.8310 C.ar    1  LIG1        0.2075
     23 C          -0.4710    3.6714   -0.8157 C.ar    1  LIG1        0.1656
     24 C          -0.7812    2.2979   -0.8970 C.ar    1  LIG1       -0.0125
     25 O          -1.3926    4.6737   -0.7037 O.3     1  LIG1       -0.4913
     26 C          -2.6604    4.4031   -1.2891 C.3     1  LIG1        0.0790
     27 O           1.3699    5.3068   -0.7779 O.3     1  LIG1       -0.4489
     28 C           2.7843    5.0496   -0.8854 C.3     1  LIG1        0.2334
     29 O           3.0959    3.6477   -1.0153 O.3     1  LIG1       -0.4525
     30 H          -4.4375   -1.2435   -1.8434 H       1  LIG1        0.0524
     31 H          -4.2738   -0.6427   -0.1976 H       1  LIG1        0.0524
     32 H          -3.6892   -2.2870   -0.6340 H       1  LIG1        0.0524
     33 H          -0.3730   -0.2195   -2.2330 H       1  LIG1        0.0381
     34 H           1.9132   -0.6852   -0.4330 H       1  LIG1        0.0311
     35 H          -1.0097   -2.8133   -1.2796 H       1  LIG1        0.0629
     36 H          -2.3370   -2.5949    1.0849 H       1  LIG1        0.2099
     37 H           1.0953   -4.0600   -0.6586 H       1  LIG1        0.0314
     38 H           0.7790   -4.1232    1.0539 H       1  LIG1        0.0314
     39 H           2.9469   -2.8887    1.5439 H       1  LIG1        0.0566
     40 H           3.4678   -4.4486   -1.0845 H       1  LIG1        0.0532
     41 H           4.7451   -3.8154    0.1584 H       1  LIG1        0.0532
     42 H           1.4758   -1.1536    1.8750 H       1  LIG1        0.0297
     43 H           0.2314   -2.2780    2.3705 H       1  LIG1        0.0297
     44 H           0.0842    0.6341    1.7216 H       1  LIG1        0.0623
     45 H          -2.1335    0.7412    0.9128 H       1  LIG1        0.0649
     46 H          -2.9532   -0.5586    2.4511 H       1  LIG1        0.2100
     47 H           0.6145   -1.0303    4.3059 H       1  LIG1        0.0524
     48 H          -0.5144   -0.0030    5.1978 H       1  LIG1        0.0524
     49 H           0.6199    0.7501    4.0545 H       1  LIG1        0.0524
     50 H           0.6480   -2.3699   -2.6651 H       1  LIG1        0.0233
     51 H           2.3097   -2.4707   -2.0813 H       1  LIG1        0.0233
     52 H           1.7655   -1.0269   -2.9143 H       1  LIG1        0.0233
     53 H           2.3997    1.0873   -1.2416 H       1  LIG1        0.0658
     54 H          -1.8178    1.9738   -0.9138 H       1  LIG1        0.0658
     55 H          -3.2756    5.3024   -1.1888 H       1  LIG1        0.0660
     56 H          -3.1810    3.5959   -0.7648 H       1  LIG1        0.0660
     57 H          -2.5559    4.1791   -2.3567 H       1  LIG1        0.0660
     58 H           3.2869    5.4412    0.0077 H       1  LIG1        0.1166
     59 H           3.1809    5.5804   -1.7598 H       1  LIG1        0.1166
@<TRIPOS>BOND
     1     1     2    1
     2     1     3    1
     3     3     4    1
     4     4     5    1
     5     5     6    1
     6     6     7    1
     7     3     7    1
     8     7     8    1
     9     6     9    1
    10     9    10    1
    11    10    11    2
    12     6    12    1
    13    12    13    1
    14    13    14    1
    15     3    14    1
    16    14    15    1
    17    13    16    1
    18    16    17    1
    19     5    18    1
    20     4    19    1
    21    19    20   ar
    22    20    21   ar
    23    21    22   ar
    24    22    23   ar
    25    23    24   ar
    26    19    24   ar
    27    23    25    1
    28    25    26    1
    29    22    27    1
    30    27    28    1
    31    28    29    1
    32    21    29    1
    33     2    30    1
    34     2    31    1
    35     2    32    1
    36     4    33    1
    37     5    34    1
    38     7    35    1
    39     8    36    1
    40     9    37    1
    41     9    38    1
    42    10    39    1
    43    11    40    1
    44    11    41    1
    45    12    42    1
    46    12    43    1
    47    13    44    1
    48    14    45    1
    49    15    46    1
    50    17    47    1
    51    17    48    1
    52    17    49    1
    53    18    50    1
    54    18    51    1
    55    18    52    1
    56    20    53    1
    57    24    54    1
    58    26    55    1
    59    26    56    1
    60    26    57    1
    61    28    58    1
    62    28    59    1
