REMARK  Name = NuBBE_2506
REMARK  11 active torsions:
REMARK  status: ('A' for Active; 'I' for Inactive)
REMARK    1  A    between atoms: C_1  and  C_2
REMARK    2  A    between atoms: C_2  and  O_4
REMARK    3  A    between atoms: O_4  and  C_5
REMARK    4  A    between atoms: C_6  and  C_7
REMARK    5  A    between atoms: C_7  and  C_8
REMARK    6  A    between atoms: C_7  and  C_9
REMARK    7  A    between atoms: C_13  and  O_14
REMARK    8  A    between atoms: O_14  and  C_15
REMARK    9  A    between atoms: C_15  and  C_16
REMARK   10  A    between atoms: C_22  and  C_23
REMARK   11  A    between atoms: C_22  and  C_24
REMARK                            x       y       z     vdW  Elec       q    Type
REMARK                         _______ _______ _______ _____ _____    ______ ____
ROOT
ATOM      1  C   LIG A   1      -1.849  -1.261  -0.464  0.00  0.00    +0.177 A 
ATOM      2  C   LIG A   1      -1.417  -2.337   0.355  0.00  0.00    +0.002 A 
ATOM      3  C   LIG A   1      -0.124  -2.271   0.869  0.00  0.00    +0.014 A 
ATOM      4  C   LIG A   1       0.684  -1.161   0.629  0.00  0.00    -0.011 A 
ATOM      5  C   LIG A   1       0.269  -0.044  -0.154  0.00  0.00    +0.013 A 
ATOM      6  C   LIG A   1      -1.008  -0.133  -0.770  0.00  0.00    +0.178 A 
ATOM      7  C   LIG A   1       1.440   1.016  -0.176  0.00  0.00    +0.026 C 
ATOM      8  C   LIG A   1       1.242   2.290  -1.020  0.00  0.00    +0.014 C 
ATOM      9  C   LIG A   1       2.231   3.429  -0.709  0.00  0.00    +0.001 C 
ATOM     10  C   LIG A   1       2.226   3.796   0.771  0.00  0.00    +0.007 C 
ATOM     11  C   LIG A   1       2.657   2.615   1.660  0.00  0.00    -0.031 C 
ATOM     12  C   LIG A   1       2.466   3.041   3.139  0.00  0.00    +0.011 C 
ATOM     13  C   LIG A   1       4.171   2.362   1.465  0.00  0.00    +0.011 C 
ATOM     14  C   LIG A   1       1.726   1.387   1.353  0.00  0.00    +0.010 C 
ATOM     15  C   LIG A   1       2.136   0.116   2.143  0.00  0.00    +0.041 C 
ATOM     16  C   LIG A   1       2.077  -1.087   1.214  0.00  0.00    +0.149 C 
ATOM     17  O   LIG A   1       3.030  -0.885   0.162  0.00  0.00    -0.371 OA
ATOM     18  C   LIG A   1       2.646   0.183  -0.725  0.00  0.00    +0.172 C 
ENDROOT
BRANCH   2  19
ATOM     19  C   LIG A   1      -2.278  -3.568   0.638  0.00  0.00    +0.017 C 
ATOM     20  C   LIG A   1      -2.007  -4.693  -0.368  0.00  0.00    +0.012 C 
ATOM     21  C   LIG A   1      -2.098  -4.131   2.058  0.00  0.00    +0.012 C 
ENDBRANCH   2  19
BRANCH   1  22
ATOM     22  O   LIG A   1      -3.130  -1.535  -1.085  0.00  0.00    -0.422 OA
BRANCH  22  24
ATOM     23  C   LIG A   1      -5.183  -1.632  -2.267  0.00  0.00    +0.136 C 
ATOM     24  C   LIG A   1      -4.206  -0.746  -1.520  0.00  0.00    +0.309 C 
ATOM     25  O   LIG A   1      -4.340   0.441  -1.341  0.00  0.00    -0.251 OA
ENDBRANCH  22  24
ENDBRANCH   1  22
BRANCH   6  26
ATOM     26  O   LIG A   1      -1.431   0.854  -1.692  0.00  0.00    -0.422 OA
BRANCH  26  27
ATOM     27  C   LIG A   1      -1.836   0.367  -2.938  0.00  0.00    +0.309 C 
ATOM     28  C   LIG A   1      -2.501   1.409  -3.797  0.00  0.00    +0.136 C 
ATOM     29  O   LIG A   1      -1.720  -0.794  -3.325  0.00  0.00    -0.251 OA
ENDBRANCH  26  27
ENDBRANCH   6  26
TORSDOF 5
