@<TRIPOS>MOLECULE
NuBBE_2446
 46 48 0 0 0
SMALL
GASTEIGER

@<TRIPOS>ATOM
      1 O          -3.2591   -3.3539   -2.5849 O.3     1  LIG1       -0.4942
      2 C          -3.8270   -4.6444   -2.8007 C.3     1  LIG1        0.0788
      3 C          -1.9409   -3.2970   -2.1827 C.ar    1  LIG1        0.1378
      4 C          -1.3897   -1.9437   -1.9351 C.ar    1  LIG1        0.0623
      5 C          -0.1300   -1.8934   -1.3238 C.ar    1  LIG1        0.1463
      6 C           0.5019   -0.7076   -0.9586 C.ar    1  LIG1        0.0233
      7 C          -0.1220    0.5042   -1.1918 C.ar    1  LIG1        0.1278
      8 C          -1.3588    0.5034   -1.8416 C.ar    1  LIG1       -0.0160
      9 C          -1.9883   -0.7024   -2.2529 C.ar    1  LIG1       -0.0328
     10 C          -3.2723   -0.5680   -3.0314 C.3     1  LIG1       -0.0388
     11 O           0.4235    1.7223   -0.8843 O.3     1  LIG1       -0.4607
     12 C           1.3335    1.7372    0.2364 C.3     1  LIG1        0.2308
     13 H           2.1500    1.0251    0.0686 H       1  LIG1        0.1084
     14 O           0.6101    1.3779    1.4203 O.3     1  LIG1       -0.3313
     15 C           1.3809    1.4731    2.6124 C.3     1  LIG1        0.1140
     16 H           2.2964    0.8729    2.5176 H       1  LIG1        0.0647
     17 C           0.5636    0.8830    3.7665 C.3     1  LIG1        0.0731
     18 O           1.2897    0.9437    4.9920 O.3     1  LIG1       -0.3924
     19 C           1.7442    2.9445    2.8434 C.3     1  LIG1        0.1120
     20 H           0.8436    3.5703    2.8756 H       1  LIG1        0.0647
     21 C           2.6324    3.3903    1.6813 C.3     1  LIG1        0.1152
     22 H           3.6008    2.8752    1.7357 H       1  LIG1        0.0648
     23 C           1.9766    3.1416    0.3201 C.3     1  LIG1        0.1454
     24 H           1.2324    3.9161    0.1050 H       1  LIG1        0.0683
     25 O           2.9969    3.2759   -0.6928 O.3     1  LIG1       -0.3829
     26 O           2.9429    4.7876    1.8095 O.3     1  LIG1       -0.3864
     27 O           2.4684    3.1693    4.0559 O.3     1  LIG1       -0.3865
     28 O           0.6384   -3.0420   -1.0635 O.2     1  LIG1       -0.4218
     29 C           0.2065   -4.2878   -1.4544 C.ar    1  LIG1        0.3408
     30 O           0.8953   -5.2860   -1.3411 O.2     1  LIG1       -0.2451
     31 C          -1.1641   -4.3692   -1.9651 C.ar    1  LIG1        0.0652
     32 H          -3.8048   -5.2428   -1.8829 H       1  LIG1        0.0660
     33 H          -3.3106   -5.1635   -3.6155 H       1  LIG1        0.0660
     34 H          -4.8731   -4.5162   -3.0911 H       1  LIG1        0.0660
     35 H           1.4856   -0.7815   -0.5141 H       1  LIG1        0.0691
     36 H          -1.8410    1.4605   -2.0406 H       1  LIG1        0.0657
     37 H          -3.3310    0.4144   -3.5160 H       1  LIG1        0.0278
     38 H          -4.1415   -0.6785   -2.3769 H       1  LIG1        0.0278
     39 H          -3.3201   -1.2938   -3.8486 H       1  LIG1        0.0278
     40 H           0.2956   -0.1599    3.5604 H       1  LIG1        0.0584
     41 H          -0.3758    1.4307    3.8952 H       1  LIG1        0.0584
     42 H           1.8844    0.1701    5.0129 H       1  LIG1        0.2095
     43 H           3.4273    4.1364   -0.5218 H       1  LIG1        0.2102
     44 H           3.1226    4.9186    2.7639 H       1  LIG1        0.2100
     45 H           1.9979    2.6744    4.7632 H       1  LIG1        0.2100
     46 H          -1.4917   -5.3872   -2.1236 H       1  LIG1        0.0726
@<TRIPOS>BOND
     1     1     2    1
     2     1     3    1
     3     3     4   ar
     4     4     5   ar
     5     5     6   ar
     6     6     7   ar
     7     7     8   ar
     8     8     9   ar
     9     4     9   ar
    10     9    10    1
    11     7    11    1
    12    11    12    1
    13    12    13    1
    14    12    14    1
    15    14    15    1
    16    15    16    1
    17    15    17    1
    18    17    18    1
    19    15    19    1
    20    19    21    1
    21    21    22    1
    22    21    23    1
    23    12    23    1
    24    21    26    1
    25     5    28   ar
    26    28    29   ar
    27    29    30    2
    28    29    31   ar
    29     3    31   ar
    30    19    27    1
    31    19    20    1
    32    23    25    1
    33    23    24    1
    34     2    32    1
    35     2    33    1
    36     2    34    1
    37     6    35    1
    38     8    36    1
    39    10    37    1
    40    10    38    1
    41    10    39    1
    42    17    40    1
    43    17    41    1
    44    18    42    1
    45    25    43    1
    46    26    44    1
    47    27    45    1
    48    31    46    1
