@<TRIPOS>MOLECULE
NuBBE_275
 29 29 0 0 0
SMALL
GASTEIGER

@<TRIPOS>ATOM
      1 C          -3.2756    1.1567   -0.4868 C.3     1  LIG1       -0.0360
      2 C          -1.7738    1.3011   -0.4753 C.ar    1  LIG1       -0.0051
      3 C          -1.1370    2.5530   -0.4950 C.ar    1  LIG1        0.1235
      4 O          -1.7944    3.7511   -0.4844 O.3     1  LIG1       -0.5064
      5 C           0.2519    2.6641   -0.5348 C.ar    1  LIG1        0.0224
      6 C           1.0405    1.5210   -0.5549 C.ar    1  LIG1        0.1346
      7 O           2.3993    1.6529   -0.6527 O.3     1  LIG1       -0.5058
      8 C           0.4470    0.2542   -0.4930 C.ar    1  LIG1        0.1036
      9 C           1.3119   -0.9503   -0.4646 C.2     1  LIG1        0.3430
     10 O           2.1762   -0.8245    0.5776 O.3     1  LIG1       -0.4613
     11 C           2.9284   -1.9988    0.8978 C.3     1  LIG1        0.0900
     12 C           2.0756   -2.9085    1.7622 C.3     1  LIG1       -0.0306
     13 O           1.1514   -1.9320   -1.1643 O.2     1  LIG1       -0.2448
     14 C          -0.9655    0.1278   -0.4377 C.ar    1  LIG1       -0.0266
     15 C          -1.6277   -1.2315   -0.3698 C.3     1  LIG1       -0.0384
     16 H          -3.8093    2.0962   -0.6362 H       1  LIG1        0.0279
     17 H          -3.6216    0.7346    0.4620 H       1  LIG1        0.0279
     18 H          -3.5813    0.5021   -1.3105 H       1  LIG1        0.0279
     19 H          -2.7473    3.6179   -0.3867 H       1  LIG1        0.2921
     20 H           0.6976    3.6540   -0.5609 H       1  LIG1        0.0691
     21 H           2.6372    2.5918   -0.5760 H       1  LIG1        0.2922
     22 H           3.8141   -1.6777    1.4566 H       1  LIG1        0.0695
     23 H           3.2808   -2.5065   -0.0072 H       1  LIG1        0.0695
     24 H           1.8269   -2.4094    2.7050 H       1  LIG1        0.0262
     25 H           2.5965   -3.8430    1.9813 H       1  LIG1        0.0262
     26 H           1.1243   -3.1408    1.2727 H       1  LIG1        0.0262
     27 H          -0.9663   -2.0154    0.0055 H       1  LIG1        0.0278
     28 H          -1.9914   -1.5202   -1.3610 H       1  LIG1        0.0278
     29 H          -2.4684   -1.2198    0.3312 H       1  LIG1        0.0278
@<TRIPOS>BOND
     1     1     2    1
     2     2     3   ar
     3     3     4    1
     4     3     5   ar
     5     5     6   ar
     6     6     7    1
     7     6     8   ar
     8     8     9    1
     9     9    10    1
    10    10    11    1
    11    11    12    1
    12     9    13    2
    13     8    14   ar
    14     2    14   ar
    15    14    15    1
    16     1    16    1
    17     1    17    1
    18     1    18    1
    19     4    19    1
    20     5    20    1
    21     7    21    1
    22    11    22    1
    23    11    23    1
    24    12    24    1
    25    12    25    1
    26    12    26    1
    27    15    27    1
    28    15    28    1
    29    15    29    1
