@<TRIPOS>MOLECULE
NuBBE_1145
 71 75 0 0 0
SMALL
GASTEIGER

@<TRIPOS>ATOM
      1 C           0.4087    1.2514   -1.6368 C.3     1  LIG1       -0.0521
      2 C          -0.2106    0.2296   -0.6444 C.3     1  LIG1        0.0300
      3 C           0.5264    0.2852    0.7367 C.3     1  LIG1       -0.0194
      4 H          -0.0367   -0.3827    1.3938 H       1  LIG1        0.0319
      5 C           0.4359    1.6820    1.5074 C.3     1  LIG1       -0.0061
      6 C           1.5980    2.6260    1.1216 C.3     1  LIG1       -0.0555
      7 C          -0.9780    2.3589    1.2521 C.3     1  LIG1       -0.0164
      8 H          -0.8994    2.9965    0.3619 H       1  LIG1        0.0320
      9 C          -2.0246    1.2639    0.9106 C.3     1  LIG1       -0.0103
     10 C          -1.7317    0.4981   -0.3965 C.3     1  LIG1        0.1126
     11 H          -2.2554   -0.4659   -0.3290 H       1  LIG1        0.0743
     12 O          -2.2921    1.2433   -1.5058 O.3     1  LIG1       -0.4606
     13 C          -3.6336    1.1159   -1.7042 C.2     1  LIG1        0.3042
     14 O          -4.3910    0.4250   -1.0382 O.2     1  LIG1       -0.2512
     15 C          -4.0769    2.0087   -2.8216 C.3     1  LIG1        0.0332
     16 C          -1.4911    3.3002    2.4156 C.3     1  LIG1        0.0311
     17 C          -0.6588    4.5929    2.5423 C.3     1  LIG1       -0.0525
     18 C          -2.9557    3.7486    2.1972 C.3     1  LIG1       -0.0525
     19 C          -1.3914    2.5680    3.7524 C.2     1  LIG1        0.1617
     20 O          -2.1941    2.7202    4.6706 O.2     1  LIG1       -0.2921
     21 C          -0.2023    1.7225    3.9898 C.2     1  LIG1       -0.0221
     22 C           0.6217    1.3752    2.9945 C.2     1  LIG1       -0.0742
     23 C           1.9352   -0.3512    0.6624 C.3     1  LIG1       -0.0477
     24 C           2.0177   -1.7091   -0.0709 C.3     1  LIG1       -0.0433
     25 C           0.6907   -2.2936   -0.5720 C.3     1  LIG1       -0.0069
     26 C          -0.0433   -1.1675   -1.2806 C.2     1  LIG1       -0.0576
     27 C          -0.3533   -1.4948   -2.5440 C.2     1  LIG1       -0.0833
     28 C           0.1653   -2.8196   -2.9672 C.3     1  LIG1       -0.0305
     29 C           0.7745   -3.4205   -1.6843 C.3     1  LIG1       -0.0221
     30 H           0.0497   -4.1979   -1.3893 H       1  LIG1        0.0316
     31 C           2.0579   -4.2483   -1.9656 C.3     1  LIG1        0.0072
     32 H           1.7190   -5.0518   -2.6373 H       1  LIG1        0.0342
     33 C           2.7047   -4.9028   -0.7599 C.3     1  LIG1        0.0511
     34 C           4.0422   -4.2441   -0.6556 C.2     1  LIG1        0.3075
     35 O           4.8160   -4.3729    0.2829 O.2     1  LIG1       -0.2508
     36 O           4.2972   -3.4827   -1.7497 O.3     1  LIG1       -0.4643
     37 C           3.2059   -3.5440   -2.6647 C.3     1  LIG1        0.0960
     38 C          -0.1413   -2.9037    0.5856 C.3     1  LIG1       -0.0555
     39 H           0.1819    2.2839   -1.3670 H       1  LIG1        0.0239
     40 H           0.0323    1.1355   -2.6589 H       1  LIG1        0.0239
     41 H           1.4979    1.1461   -1.6939 H       1  LIG1        0.0239
     42 H           2.5760    2.1748    1.3224 H       1  LIG1        0.0238
     43 H           1.5938    3.5563    1.6901 H       1  LIG1        0.0238
     44 H           1.5793    2.9108    0.0693 H       1  LIG1        0.0238
     45 H          -3.0187    1.7034    0.8146 H       1  LIG1        0.0304
     46 H          -2.0860    0.5496    1.7413 H       1  LIG1        0.0304
     47 H          -5.0662    1.6920   -3.1640 H       1  LIG1        0.0342
     48 H          -3.3861    1.9297   -3.6648 H       1  LIG1        0.0342
     49 H          -4.1299    3.0408   -2.4665 H       1  LIG1        0.0342
     50 H          -0.4981    5.0598    1.5650 H       1  LIG1        0.0239
     51 H           0.3086    4.4271    3.0228 H       1  LIG1        0.0239
     52 H          -1.1659    5.3296    3.1782 H       1  LIG1        0.0239
     53 H          -3.1018    4.1421    1.1853 H       1  LIG1        0.0239
     54 H          -3.2445    4.5378    2.9024 H       1  LIG1        0.0239
     55 H          -3.6683    2.9341    2.3674 H       1  LIG1        0.0239
     56 H          -0.0214    1.4322    5.0187 H       1  LIG1        0.0649
     57 H           1.5045    0.8010    3.2732 H       1  LIG1        0.0579
     58 H           2.3341   -0.4925    1.6732 H       1  LIG1        0.0269
     59 H           2.6335    0.3295    0.1628 H       1  LIG1        0.0269
     60 H           2.5142   -2.4193    0.5981 H       1  LIG1        0.0274
     61 H           2.6943   -1.5547   -0.9176 H       1  LIG1        0.0274
     62 H          -0.8482   -0.8362   -3.2469 H       1  LIG1        0.0572
     63 H           0.8942   -2.6873   -3.7717 H       1  LIG1        0.0310
     64 H          -0.6446   -3.4495   -3.3497 H       1  LIG1        0.0310
     65 H           2.8639   -5.9720   -0.9331 H       1  LIG1        0.0381
     66 H           2.1424   -4.7656    0.1634 H       1  LIG1        0.0381
     67 H           3.5390   -4.1174   -3.5377 H       1  LIG1        0.0700
     68 H           2.9708   -2.5315   -3.0009 H       1  LIG1        0.0700
     69 H          -0.2903   -2.2502    1.4421 H       1  LIG1        0.0238
     70 H           0.3443   -3.8013    0.9820 H       1  LIG1        0.0238
     71 H          -1.1406   -3.1976    0.2405 H       1  LIG1        0.0238
@<TRIPOS>BOND
     1     1     2    1
     2     2     3    1
     3     3     4    1
     4     3     5    1
     5     5     6    1
     6     5     7    1
     7     7     8    1
     8     7     9    1
     9     9    10    1
    10    10    11    1
    11     2    10    1
    12    10    12    1
    13    12    13    1
    14    13    14    2
    15    13    15    1
    16     7    16    1
    17    16    17    1
    18    16    18    1
    19    16    19    1
    20    19    20    2
    21    19    21    1
    22    21    22    2
    23     5    22    1
    24     3    23    1
    25    23    24    1
    26    24    25    1
    27    25    26    1
    28     2    26    1
    29    26    27    2
    30    27    28    1
    31    28    29    1
    32    25    29    1
    33    31    33    1
    34    33    34    1
    35    34    35    2
    36    34    36    1
    37    36    37    1
    38    31    37    1
    39    25    38    1
    40    29    30    1
    41    31    29    1
    42    31    32    1
    43     1    39    1
    44     1    40    1
    45     1    41    1
    46     6    42    1
    47     6    43    1
    48     6    44    1
    49     9    45    1
    50     9    46    1
    51    15    47    1
    52    15    48    1
    53    15    49    1
    54    17    50    1
    55    17    51    1
    56    17    52    1
    57    18    53    1
    58    18    54    1
    59    18    55    1
    60    21    56    1
    61    22    57    1
    62    23    58    1
    63    23    59    1
    64    24    60    1
    65    24    61    1
    66    27    62    1
    67    28    63    1
    68    28    64    1
    69    33    65    1
    70    33    66    1
    71    37    67    1
    72    37    68    1
    73    38    69    1
    74    38    70    1
    75    38    71    1
