@<TRIPOS>MOLECULE
NuBBE_2090
 39 40 0 0 0
SMALL
GASTEIGER

@<TRIPOS>ATOM
      1 O          -1.3902   -2.0446   -1.5217 O.2     1  LIG1       -0.2708
      2 C          -1.6508   -1.0298   -0.9053 C.2     1  LIG1        0.2369
      3 N          -2.6493   -0.1378   -1.2230 N.am    1  LIG1       -0.3116
      4 C          -3.4923   -0.2905   -2.3977 C.3     1  LIG1        0.0142
      5 C          -4.4971    0.8669   -2.5444 C.3     1  LIG1       -0.0311
      6 C          -5.3674    0.6896   -3.7913 C.3     1  LIG1       -0.0612
      7 C          -5.4011    1.0048   -1.3161 C.3     1  LIG1       -0.0612
      8 C          -0.9078   -0.5917    0.3091 C.2     1  LIG1        0.0001
      9 C           0.4246   -0.5343    0.4283 C.2     1  LIG1       -0.0568
     10 C           1.4056   -0.8924   -0.5724 C.2     1  LIG1       -0.0610
     11 C           2.7380   -0.7979   -0.4321 C.2     1  LIG1       -0.0545
     12 C           3.4478   -0.3186    0.7579 C.ar    1  LIG1       -0.0213
     13 C           3.8338   -1.2324    1.7474 C.ar    1  LIG1       -0.0090
     14 C           4.5206   -0.7470    2.8404 C.ar    1  LIG1        0.1668
     15 O           4.9639   -1.4863    3.8926 O.3     1  LIG1       -0.4526
     16 C           5.5748   -0.4631    4.7054 C.3     1  LIG1        0.2332
     17 O           5.5279    0.8493    4.1071 O.3     1  LIG1       -0.4526
     18 C           4.8337    0.5860    2.9678 C.ar    1  LIG1        0.1663
     19 C           4.4581    1.5131    2.0199 C.ar    1  LIG1       -0.0156
     20 C           3.7449    1.0531    0.9067 C.ar    1  LIG1       -0.0509
     21 H          -2.7684    0.6789   -0.6440 H       1  LIG1        0.1490
     22 H          -4.0025   -1.2577   -2.3282 H       1  LIG1        0.0465
     23 H          -2.8354   -0.3306   -3.2757 H       1  LIG1        0.0465
     24 H          -3.9314    1.8013   -2.6563 H       1  LIG1        0.0311
     25 H          -6.0557   -0.1557   -3.6804 H       1  LIG1        0.0233
     26 H          -4.7589    0.5200   -4.6848 H       1  LIG1        0.0233
     27 H          -5.9713    1.5879   -3.9655 H       1  LIG1        0.0233
     28 H          -5.9794    0.0904   -1.1473 H       1  LIG1        0.0233
     29 H          -6.1045    1.8342   -1.4453 H       1  LIG1        0.0233
     30 H          -4.8235    1.2118   -0.4104 H       1  LIG1        0.0233
     31 H          -1.5261   -0.2825    1.1444 H       1  LIG1        0.0669
     32 H           0.8194   -0.1652    1.3743 H       1  LIG1        0.0619
     33 H           1.0287   -1.2913   -1.5140 H       1  LIG1        0.0618
     34 H           3.3826   -1.1183   -1.2484 H       1  LIG1        0.0623
     35 H           3.6037   -2.2890    1.6645 H       1  LIG1        0.0661
     36 H           6.6216   -0.7351    4.8828 H       1  LIG1        0.1166
     37 H           5.0543   -0.4233    5.6695 H       1  LIG1        0.1166
     38 H           4.7077    2.5617    2.1356 H       1  LIG1        0.0655
     39 H           3.4218    1.7659    0.1507 H       1  LIG1        0.0625
@<TRIPOS>BOND
     1     1     2    2
     2     2     3   am
     3     3     4    1
     4     4     5    1
     5     5     6    1
     6     5     7    1
     7     2     8    1
     8     8     9    2
     9     9    10    1
    10    10    11    2
    11    11    12    1
    12    12    13   ar
    13    13    14   ar
    14    14    15    1
    15    15    16    1
    16    16    17    1
    17    14    18   ar
    18    17    18    1
    19    18    19   ar
    20    19    20   ar
    21    12    20   ar
    22     3    21    1
    23     4    22    1
    24     4    23    1
    25     5    24    1
    26     6    25    1
    27     6    26    1
    28     6    27    1
    29     7    28    1
    30     7    29    1
    31     7    30    1
    32     8    31    1
    33     9    32    1
    34    10    33    1
    35    11    34    1
    36    13    35    1
    37    16    36    1
    38    16    37    1
    39    19    38    1
    40    20    39    1
