REMARK  Name = NuBBE_1739
REMARK  4 active torsions:
REMARK  status: ('A' for Active; 'I' for Inactive)
REMARK    1  A    between atoms: C_1  and  C_2
REMARK    2  A    between atoms: C_1  and  C_3
REMARK    3  A    between atoms: C_1  and  C_4
REMARK    4  A    between atoms: C_10  and  C_14
REMARK                            x       y       z     vdW  Elec       q    Type
REMARK                         _______ _______ _______ _____ _____    ______ ____
ROOT
ATOM      1  C   LIG A   1       0.280   1.000  -0.174  0.00  0.00    +0.101 C 
ATOM      2  C   LIG A   1       1.544   1.377   0.814  0.00  0.00    +0.182 C 
ATOM      3  O   LIG A   1       0.886   2.256  -0.091  0.00  0.00    -0.362 OA
ATOM      4  C   LIG A   1       1.116   0.010   1.368  0.00  0.00    +0.182 C 
ATOM      5  C   LIG A   1       1.267  -1.273   0.521  0.00  0.00    +0.096 C 
ATOM      6  C   LIG A   1       1.560  -0.994  -0.926  0.00  0.00    +0.040 C 
ATOM      7  C   LIG A   1       0.650   0.159  -1.386  0.00  0.00    +0.041 C 
ATOM      8  O   LIG A   1       2.253  -0.888   1.471  0.00  0.00    -0.362 OA
ATOM      9  C   LIG A   1       0.566  -2.538   0.878  0.00  0.00    +0.044 C 
ENDROOT
BRANCH   1  10
ATOM     10  C   LIG A   1      -1.213   1.195   0.160  0.00  0.00    +0.017 C 
ATOM     11  C   LIG A   1      -1.917   2.013  -0.932  0.00  0.00    +0.010 C 
ATOM     12  C   LIG A   1      -1.982  -0.106   0.394  0.00  0.00    +0.010 C 
ENDBRANCH   1  10
TORSDOF 1
