REMARK  Name = NuBBE_961
REMARK  16 active torsions:
REMARK  status: ('A' for Active; 'I' for Inactive)
REMARK    1  A    between atoms: C_3  and  C_4
REMARK    2  A    between atoms: C_5  and  C_7
REMARK    3  A    between atoms: C_7  and  C_8
REMARK    4  A    between atoms: C_8  and  O_9
REMARK    5  A    between atoms: O_9  and  C_10
REMARK    6  A    between atoms: C_12  and  C_13
REMARK    7  A    between atoms: C_12  and  C_14
REMARK    8  A    between atoms: C_15  and  O_17
REMARK    9  A    between atoms: O_17  and  C_18
REMARK   10  A    between atoms: C_18  and  C_19
REMARK   11  A    between atoms: C_19  and  C_20
REMARK   12  A    between atoms: C_20  and  C_21
REMARK   13  A    between atoms: C_22  and  C_23
REMARK   14  A    between atoms: C_28  and  C_31
REMARK   15  A    between atoms: C_35  and  C_37
REMARK   16  A    between atoms: C_39  and  O_40
REMARK                            x       y       z     vdW  Elec       q    Type
REMARK                         _______ _______ _______ _____ _____    ______ ____
ROOT
ATOM      1  C   LIG A   1      -1.660   0.084  -1.775  0.00  0.00    +0.028 C 
ATOM      2  C   LIG A   1      -1.475  -1.511  -1.815  0.00  0.00    +0.037 C 
ATOM      3  C   LIG A   1      -1.948  -2.032  -3.192  0.00  0.00    +0.020 C 
ATOM      4  C   LIG A   1      -2.226  -2.271  -0.615  0.00  0.00    +0.021 C 
ATOM      5  C   LIG A   1      -1.534  -2.204   0.839  0.00  0.00    -0.004 C 
ATOM      6  C   LIG A   1      -1.764  -3.497   1.667  0.00  0.00    +0.014 C 
ATOM      7  C   LIG A   1      -2.272  -1.096   1.647  0.00  0.00    +0.014 C 
ATOM      8  C   LIG A   1       0.040  -2.033   0.855  0.00  0.00    +0.139 C 
ATOM      9  C   LIG A   1      -0.768   0.798  -0.778  0.00  0.00    -0.064 C 
ATOM     10  C   LIG A   1      -0.910   2.294  -0.638  0.00  0.00    +0.035 C 
ATOM     11  C   LIG A   1      -0.422   2.921  -1.953  0.00  0.00    +0.016 C 
ATOM     12  C   LIG A   1      -1.351   2.370  -3.087  0.00  0.00    +0.012 C 
ATOM     13  C   LIG A   1      -1.433   0.812  -3.140  0.00  0.00    +0.009 C 
ATOM     14  C   LIG A   1       1.037   2.537  -2.315  0.00  0.00    +0.016 C 
ATOM     15  C   LIG A   1      -2.325   2.750  -0.266  0.00  0.00    +0.129 C 
ATOM     16  C   LIG A   1      -2.694   4.160  -0.647  0.00  0.00    +0.308 C 
ATOM     17  O   LIG A   1      -1.869   4.860  -1.451  0.00  0.00    -0.456 OA
ATOM     18  C   LIG A   1      -0.506   4.464  -1.740  0.00  0.00    +0.220 C 
ATOM     19  O   LIG A   1      -3.767   4.642  -0.291  0.00  0.00    -0.251 OA
ATOM     20  C   LIG A   1       0.262   0.199  -0.170  0.00  0.00    -0.014 C 
ATOM     21  C   LIG A   1       0.591  -1.245  -0.325  0.00  0.00    +0.108 C 
ATOM     22  C   LIG A   1       0.018  -1.748  -1.635  0.00  0.00    +0.149 C 
ATOM     23  O   LIG A   1       0.735  -2.237  -2.506  0.00  0.00    -0.296 OA
ENDROOT
BRANCH  18  24
ATOM     24  C   LIG A   1       0.386   5.058  -0.671  0.00  0.00    +0.079 C 
ATOM     25  C   LIG A   1       0.133   5.429   0.593  0.00  0.00    +0.061 C 
ATOM     26  C   LIG A   1       1.333   5.974   1.252  0.00  0.00    +0.334 C 
ATOM     27  O   LIG A   1       2.325   5.960   0.249  0.00  0.00    -0.428 OA
ATOM     28  C   LIG A   1       1.792   5.438  -0.900  0.00  0.00    +0.341 C 
ATOM     29  O   LIG A   1       2.384   5.317  -1.939  0.00  0.00    -0.245 OA
BRANCH  26  30
ATOM     30  O   LIG A   1       1.100   7.285   1.708  0.00  0.00    -0.354 OA
ATOM     31  H   LIG A   1       0.787   7.797   0.945  0.00  0.00    +0.214 HD
ENDBRANCH  26  30
ENDBRANCH  18  24
BRANCH   4  32
ATOM     32  C   LIG A   1      -2.789  -3.690  -0.967  0.00  0.00    +0.125 C 
BRANCH  32  33
ATOM     33  C   LIG A   1      -1.782  -4.732  -1.394  0.00  0.00    +0.307 C 
ATOM     34  O   LIG A   1      -0.576  -4.564  -1.466  0.00  0.00    -0.251 OA
BRANCH  33  35
ATOM     35  O   LIG A   1      -2.446  -5.857  -1.775  0.00  0.00    -0.468 OA
ATOM     36  C   LIG A   1      -1.730  -6.627  -2.737  0.00  0.00    +0.280 C 
ENDBRANCH  33  35
ENDBRANCH  32  33
ENDBRANCH   4  32
BRANCH   8  37
ATOM     37  O   LIG A   1       0.428  -1.475   2.150  0.00  0.00    -0.367 OA
BRANCH  37  38
ATOM     38  C   LIG A   1       1.821  -1.277   2.361  0.00  0.00    +0.239 C 
BRANCH  38  39
ATOM     39  C   LIG A   1       2.295  -0.727   3.740  0.00  0.00    +0.184 C 
ATOM     40  O   LIG A   1       1.553  -0.089   4.488  0.00  0.00    -0.290 OA
BRANCH  39  41
ATOM     41  C   LIG A   1       3.752  -0.929   4.126  0.00  0.00    -0.010 C 
ATOM     42  C   LIG A   1       4.147  -0.760   5.571  0.00  0.00    +0.047 C 
ATOM     43  C   LIG A   1       4.646  -1.245   3.167  0.00  0.00    -0.024 C 
ATOM     44  C   LIG A   1       6.111  -1.485   3.342  0.00  0.00    +0.035 C 
ENDBRANCH  39  41
ENDBRANCH  38  39
ENDBRANCH  37  38
ENDBRANCH   8  37
TORSDOF 9
