REMARK  Name = NuBBE_569
REMARK  6 active torsions:
REMARK  status: ('A' for Active; 'I' for Inactive)
REMARK    1  A    between atoms: C_3  and  C_4
REMARK    2  A    between atoms: C_9  and  C_10
REMARK    3  A    between atoms: C_9  and  O_14
REMARK    4  A    between atoms: C_10  and  C_11
REMARK    5  A    between atoms: C_15  and  C_16
REMARK    6  A    between atoms: C_25  and  C_27
REMARK                            x       y       z     vdW  Elec       q    Type
REMARK                         _______ _______ _______ _____ _____    ______ ____
ROOT
ATOM      1  O   LIG A   1      -4.109   1.039   2.147  0.00  0.00    -0.288 OA
ATOM      2  C   LIG A   1      -3.150   0.285   2.117  0.00  0.00    +0.202 C 
ATOM      3  C   LIG A   1      -1.693   0.659   2.255  0.00  0.00    +0.171 C 
ATOM      4  C   LIG A   1      -1.448   1.540   3.469  0.00  0.00    +0.064 C 
ATOM      5  C   LIG A   1      -1.139   1.215   0.933  0.00  0.00    +0.088 C 
ATOM      6  C   LIG A   1       0.376   1.080   0.805  0.00  0.00    +0.134 C 
ATOM      7  O   LIG A   1       0.845   2.044  -0.194  0.00  0.00    -0.342 OA
ATOM      8  C   LIG A   1       1.884   1.420  -1.012  0.00  0.00    +0.215 C 
ATOM      9  C   LIG A   1       1.371  -0.009  -1.099  0.00  0.00    +0.130 C 
ATOM     10  C   LIG A   1       0.217  -0.158  -2.106  0.00  0.00    +0.029 C 
ATOM     11  C   LIG A   1       2.274  -1.193  -1.260  0.00  0.00    +0.319 C 
ATOM     12  O   LIG A   1       3.133  -1.347  -2.111  0.00  0.00    -0.250 OA
ATOM     13  C   LIG A   1       1.031  -0.218   0.371  0.00  0.00    +0.081 C 
ATOM     14  C   LIG A   1       0.825  -1.703   0.543  0.00  0.00    +0.184 C 
ATOM     15  O   LIG A   1       1.861  -2.187  -0.386  0.00  0.00    -0.460 OA
ATOM     16  C   LIG A   1      -0.485  -2.428   0.190  0.00  0.00    +0.056 C 
ATOM     17  C   LIG A   1      -1.366  -2.800   1.411  0.00  0.00    +0.055 C 
ATOM     18  C   LIG A   1      -2.382  -3.876   1.012  0.00  0.00    +0.016 C 
ATOM     19  C   LIG A   1      -1.998  -1.538   1.920  0.00  0.00    +0.105 C 
ATOM     20  O   LIG A   1      -1.095  -0.633   2.471  0.00  0.00    -0.482 OA
ATOM     21  C   LIG A   1      -3.264  -1.136   1.807  0.00  0.00    +0.091 C 
ENDROOT
BRANCH   8  22
ATOM     22  C   LIG A   1       2.065   2.162  -2.325  0.00  0.00    +0.144 C 
ATOM     23  C   LIG A   1       3.066   1.609  -3.301  0.00  0.00    +0.049 C 
ATOM     24  C   LIG A   1       1.032   3.158  -2.817  0.00  0.00    +0.201 C 
ATOM     25  O   LIG A   1       2.225   3.587  -2.148  0.00  0.00    -0.363 OA
ENDBRANCH   8  22
BRANCH   8  26
ATOM     26  O   LIG A   1       3.093   1.529  -0.272  0.00  0.00    -0.361 OA
ATOM     27  H   LIG A   1       3.358   2.462  -0.379  0.00  0.00    +0.213 HD
ENDBRANCH   8  26
TORSDOF 2
