@<TRIPOS>MOLECULE
NuBBE_2082
 43 45 0 0 0
SMALL
GASTEIGER

@<TRIPOS>ATOM
      1 O          -5.7078    1.0734    0.1996 O.3     1  LIG1       -0.5061
      2 C          -4.3567    1.2771    0.0836 C.ar    1  LIG1        0.1261
      3 C          -3.7776    1.0698   -1.1809 C.ar    1  LIG1        0.0328
      4 C          -4.6306    0.6682   -2.3549 C.3     1  LIG1       -0.0328
      5 C          -2.3841    1.2227   -1.3062 C.ar    1  LIG1        0.1264
      6 O          -1.7423    0.9980   -2.4966 O.3     1  LIG1       -0.5061
      7 C          -1.5855    1.6106   -0.2203 C.ar    1  LIG1       -0.0052
      8 C          -0.0875    1.7965   -0.3545 C.3     1  LIG1       -0.0239
      9 C           0.7071    0.5142   -0.0741 C.3     1  LIG1       -0.0448
     10 C           2.2177    0.7565   -0.2033 C.3     1  LIG1       -0.0238
     11 C           3.0360   -0.4894    0.0640 C.ar    1  LIG1       -0.0022
     12 C           3.3520   -1.3521   -1.0010 C.ar    1  LIG1       -0.0095
     13 C           4.0763   -2.4947   -0.7308 C.ar    1  LIG1        0.1667
     14 O           4.4504   -3.4350   -1.6397 O.3     1  LIG1       -0.4526
     15 C           5.1332   -4.3802   -0.7899 C.3     1  LIG1        0.2332
     16 O           5.1895   -3.9708    0.5930 O.3     1  LIG1       -0.4525
     17 C           4.4988   -2.7999    0.5424 C.ar    1  LIG1        0.1697
     18 C           4.2235   -1.9800    1.6127 C.ar    1  LIG1        0.0256
     19 C           3.4830   -0.8208    1.3636 C.ar    1  LIG1        0.1237
     20 O           3.1781    0.0244    2.3962 O.3     1  LIG1       -0.5064
     21 C          -2.2023    1.8274    1.0215 C.ar    1  LIG1       -0.0487
     22 C          -3.5879    1.6735    1.1890 C.ar    1  LIG1       -0.0083
     23 C          -4.1907    1.9241    2.5428 C.3     1  LIG1       -0.0362
     24 H          -5.9628    1.1002    1.1340 H       1  LIG1        0.2922
     25 H          -5.7023    0.7750   -2.1614 H       1  LIG1        0.0280
     26 H          -4.4386   -0.3775   -2.6148 H       1  LIG1        0.0280
     27 H          -4.4119    1.3039   -3.2197 H       1  LIG1        0.0280
     28 H          -2.3659    0.6147   -3.1311 H       1  LIG1        0.2922
     29 H           0.2340    2.5895    0.3334 H       1  LIG1        0.0314
     30 H           0.1486    2.1743   -1.3573 H       1  LIG1        0.0314
     31 H           0.3971   -0.2747   -0.7712 H       1  LIG1        0.0272
     32 H           0.4750    0.1467    0.9336 H       1  LIG1        0.0272
     33 H           2.5324    1.5577    0.4768 H       1  LIG1        0.0314
     34 H           2.4497    1.1238   -1.2117 H       1  LIG1        0.0314
     35 H           3.0344   -1.1347   -2.0166 H       1  LIG1        0.0659
     36 H           6.1569   -4.5098   -1.1595 H       1  LIG1        0.1166
     37 H           4.6147   -5.3443   -0.8494 H       1  LIG1        0.1166
     38 H           4.5724   -2.2463    2.6038 H       1  LIG1        0.0692
     39 H           3.5971   -0.3131    3.2054 H       1  LIG1        0.2921
     40 H          -1.5886    2.1249    1.8704 H       1  LIG1        0.0625
     41 H          -3.4696    2.3836    3.2270 H       1  LIG1        0.0279
     42 H          -4.5253    0.9813    2.9870 H       1  LIG1        0.0279
     43 H          -5.0398    2.6115    2.4647 H       1  LIG1        0.0279
@<TRIPOS>BOND
     1     1     2    1
     2     2     3   ar
     3     3     4    1
     4     3     5   ar
     5     5     6    1
     6     5     7   ar
     7     7     8    1
     8     8     9    1
     9     9    10    1
    10    10    11    1
    11    11    12   ar
    12    12    13   ar
    13    13    14    1
    14    14    15    1
    15    15    16    1
    16    13    17   ar
    17    16    17    1
    18    17    18   ar
    19    18    19   ar
    20    11    19   ar
    21    19    20    1
    22     7    21   ar
    23    21    22   ar
    24     2    22   ar
    25    22    23    1
    26     1    24    1
    27     4    25    1
    28     4    26    1
    29     4    27    1
    30     6    28    1
    31     8    29    1
    32     8    30    1
    33     9    31    1
    34     9    32    1
    35    10    33    1
    36    10    34    1
    37    12    35    1
    38    15    36    1
    39    15    37    1
    40    18    38    1
    41    20    39    1
    42    21    40    1
    43    23    41    1
    44    23    42    1
    45    23    43    1
