@<TRIPOS>MOLECULE
NuBBE_124
 75 79 0 0 0
SMALL
GASTEIGER

@<TRIPOS>ATOM
      1 O           6.6687    9.9723    2.1956 O.3     1  LIG1       -0.5068
      2 C           5.8743    8.8656    2.1904 C.ar    1  LIG1        0.1169
      3 C           4.7157    8.8026    1.4268 C.ar    1  LIG1       -0.0195
      4 C           3.9299    7.6412    1.4556 C.ar    1  LIG1       -0.0476
      5 C           4.2879    6.5384    2.2521 C.ar    1  LIG1        0.0176
      6 C           3.4656    5.3114    2.2710 C.ar    1  LIG1        0.1392
      7 O           2.7621    5.0582    1.0977 O.2     1  LIG1       -0.4544
      8 C           2.0793    3.8717    0.9766 C.ar    1  LIG1        0.1465
      9 C           1.9798    2.9306    1.9934 C.ar    1  LIG1        0.1091
     10 C           1.3041    1.7163    1.7696 C.ar    1  LIG1        0.1769
     11 O           1.2457    0.7522    2.7498 O.3     1  LIG1       -0.5027
     12 C           0.6985    1.4488    0.5209 C.ar    1  LIG1        0.2074
     13 O           0.0664    0.2260    0.3979 O.3     1  LIG1       -0.4535
     14 C           0.0362   -0.4103   -0.8978 C.3     1  LIG1        0.2311
     15 H          -0.5483    0.1956   -1.5905 H       1  LIG1        0.1084
     16 O          -0.7150   -1.6574   -0.7933 O.3     1  LIG1       -0.3313
     17 C          -0.8628   -2.3020   -2.0834 C.3     1  LIG1        0.1144
     18 H          -1.4036   -1.6088   -2.7416 H       1  LIG1        0.0647
     19 C           0.5311   -2.6567   -2.6650 C.3     1  LIG1        0.1120
     20 H           0.6275   -3.7314   -2.8562 H       1  LIG1        0.0647
     21 C           1.6465   -2.2086   -1.7042 C.3     1  LIG1        0.1152
     22 H           2.6193   -2.3580   -2.1873 H       1  LIG1        0.0648
     23 O           1.6252   -3.0053   -0.5189 O.3     1  LIG1       -0.3864
     24 O           0.7104   -1.9737   -3.9205 O.3     1  LIG1       -0.3865
     25 C          -1.7179   -3.5861   -1.9392 C.3     1  LIG1        0.0796
     26 O          -3.0302   -3.2728   -1.4576 O.3     1  LIG1       -0.3461
     27 C          -3.8776   -4.4304   -1.2989 C.3     1  LIG1        0.1879
     28 H          -4.0479   -4.8795   -2.2858 H       1  LIG1        0.0937
     29 C          -5.2249   -3.9018   -0.7325 C.3     1  LIG1        0.1341
     30 H          -5.7440   -3.3027   -1.4888 H       1  LIG1        0.0671
     31 C          -6.1262   -5.0302   -0.2362 C.3     1  LIG1        0.1140
     32 H          -6.5605   -5.5781   -1.0809 H       1  LIG1        0.0648
     33 C          -5.3482   -5.9957    0.6581 C.3     1  LIG1        0.1095
     34 H          -5.0182   -5.4831    1.5706 H       1  LIG1        0.0646
     35 O          -6.2148   -7.0600    1.0577 O.3     1  LIG1       -0.3866
     36 C          -4.1409   -6.5098   -0.1302 C.3     1  LIG1        0.0873
     37 H          -4.4706   -6.9951   -1.0595 H       1  LIG1        0.0621
     38 C          -3.3678   -7.5521    0.6735 C.3     1  LIG1       -0.0361
     39 O          -3.2693   -5.4131   -0.4518 O.3     1  LIG1       -0.3431
     40 O          -7.2247   -4.4953    0.5222 O.3     1  LIG1       -0.3864
     41 O          -5.0167   -3.0043    0.3817 O.3     1  LIG1       -0.3841
     42 C           1.4843   -0.7122   -1.3959 C.3     1  LIG1        0.1454
     43 H           2.2155   -0.4216   -0.6349 H       1  LIG1        0.0683
     44 O           1.8134    0.0560   -2.5727 O.3     1  LIG1       -0.3829
     45 C           0.7695    2.4378   -0.4803 C.ar    1  LIG1        0.1688
     46 O           0.0860    2.2549   -1.6524 O.3     1  LIG1       -0.4912
     47 C           0.6801    2.8294   -2.8145 C.3     1  LIG1        0.0790
     48 C           1.4618    3.6352   -0.2449 C.ar    1  LIG1        0.0270
     49 C           3.3947    4.5017    3.3449 C.ar    1  LIG1        0.0288
     50 C           2.5983    3.2679    3.2747 C.ar    1  LIG1        0.1967
     51 O           2.4662    2.5343    4.2582 O.2     1  LIG1       -0.2869
     52 C           5.4748    6.6322    3.0011 C.ar    1  LIG1       -0.0476
     53 C           6.2596    7.7895    2.9752 C.ar    1  LIG1       -0.0195
     54 H           6.2847   10.6373    1.6011 H       1  LIG1        0.2921
     55 H           4.4068    9.6405    0.8091 H       1  LIG1        0.0654
     56 H           3.0263    7.6168    0.8496 H       1  LIG1        0.0626
     57 H           1.6498    1.1105    3.5723 H       1  LIG1        0.2923
     58 H           0.8129   -2.7678   -0.0216 H       1  LIG1        0.2100
     59 H           0.4974   -2.6079   -4.6308 H       1  LIG1        0.2100
     60 H          -1.8145   -4.0696   -2.9195 H       1  LIG1        0.0587
     61 H          -1.2265   -4.2729   -1.2426 H       1  LIG1        0.0587
     62 H          -6.9988   -6.6180    1.4416 H       1  LIG1        0.2100
     63 H          -4.0162   -8.3753    0.9939 H       1  LIG1        0.0255
     64 H          -2.9083   -7.1046    1.5604 H       1  LIG1        0.0255
     65 H          -2.5590   -7.9791    0.0718 H       1  LIG1        0.0255
     66 H          -6.8317   -3.7564    1.0358 H       1  LIG1        0.2100
     67 H          -4.3201   -2.3835    0.0807 H       1  LIG1        0.2101
     68 H           1.4917   -0.4514   -3.3493 H       1  LIG1        0.2102
     69 H           0.3581    2.2440   -3.6805 H       1  LIG1        0.0660
     70 H           1.7760    2.8051   -2.7869 H       1  LIG1        0.0660
     71 H           0.3179    3.8532   -2.9401 H       1  LIG1        0.0660
     72 H           1.5134    4.4082   -1.0043 H       1  LIG1        0.0692
     73 H           3.9022    4.6899    4.2812 H       1  LIG1        0.0693
     74 H           5.8196    5.8022    3.6125 H       1  LIG1        0.0626
     75 H           7.1700    7.8450    3.5660 H       1  LIG1        0.0654
@<TRIPOS>BOND
     1     1     2    1
     2     2     3   ar
     3     3     4   ar
     4     4     5   ar
     5     5     6    1
     6     6     7   ar
     7     7     8   ar
     8     8     9   ar
     9     9    10   ar
    10    10    11    1
    11    10    12   ar
    12    12    13    1
    13    13    14    1
    14    14    15    1
    15    14    16    1
    16    16    17    1
    17    17    19    1
    18    19    20    1
    19    19    21    1
    20    19    24    1
    21    25    26    1
    22    26    27    1
    23    27    28    1
    24    27    29    1
    25    29    31    1
    26    31    32    1
    27    31    33    1
    28    33    36    1
    29    36    37    1
    30    36    38    1
    31    36    39    1
    32    27    39    1
    33    31    40    1
    34    14    42    1
    35    21    42    1
    36    12    45   ar
    37    45    46    1
    38    46    47    1
    39    45    48   ar
    40     8    48   ar
    41     6    49   ar
    42    49    50   ar
    43     9    50   ar
    44    50    51    2
    45     5    52   ar
    46    52    53   ar
    47     2    53   ar
    48    33    35    1
    49    33    34    1
    50    17    25    1
    51    17    18    1
    52    21    23    1
    53    21    22    1
    54    29    41    1
    55    29    30    1
    56    42    44    1
    57    42    43    1
    58     1    54    1
    59     3    55    1
    60     4    56    1
    61    11    57    1
    62    23    58    1
    63    24    59    1
    64    25    60    1
    65    25    61    1
    66    35    62    1
    67    38    63    1
    68    38    64    1
    69    38    65    1
    70    40    66    1
    71    41    67    1
    72    44    68    1
    73    47    69    1
    74    47    70    1
    75    47    71    1
    76    48    72    1
    77    49    73    1
    78    52    74    1
    79    53    75    1
