REMARK  Name = NuBBE_1215
REMARK  9 active torsions:
REMARK  status: ('A' for Active; 'I' for Inactive)
REMARK    1  A    between atoms: C_4  and  C_18
REMARK    2  A    between atoms: C_8  and  O_9
REMARK    3  A    between atoms: O_9  and  C_10
REMARK    4  A    between atoms: C_11  and  O_12
REMARK    5  A    between atoms: O_12  and  C_13
REMARK    6  A    between atoms: C_14  and  O_15
REMARK    7  A    between atoms: O_15  and  C_16
REMARK    8  A    between atoms: C_21  and  O_24
REMARK    9  A    between atoms: O_24  and  C_25
REMARK                            x       y       z     vdW  Elec       q    Type
REMARK                         _______ _______ _______ _____ _____    ______ ____
ROOT
ATOM      1  O   LIG A   1      -3.753  -0.240   0.181  0.00  0.00    -0.287 OA
ATOM      2  C   LIG A   1      -2.536  -0.245   0.191  0.00  0.00    +0.197 A 
ATOM      3  C   LIG A   1      -1.825  -1.542   0.206  0.00  0.00    +0.098 A 
ATOM      4  C   LIG A   1      -0.489  -1.570   0.110  0.00  0.00    +0.139 A 
ATOM      5  O   LIG A   1       0.283  -0.437  -0.038  0.00  0.00    -0.454 OA
ATOM      6  C   LIG A   1      -0.318   0.789   0.029  0.00  0.00    +0.146 A 
ATOM      7  C   LIG A   1      -1.691   0.973   0.166  0.00  0.00    +0.109 A 
ATOM      8  C   LIG A   1      -2.184   2.278   0.284  0.00  0.00    +0.179 A 
ATOM      9  C   LIG A   1      -1.301   3.392   0.249  0.00  0.00    +0.204 A 
ATOM     10  C   LIG A   1       0.086   3.174   0.105  0.00  0.00    +0.169 A 
ATOM     11  C   LIG A   1       0.563   1.869  -0.000  0.00  0.00    +0.096 A 
ENDROOT
BRANCH   4  12
ATOM     12  C   LIG A   1       0.305  -2.813   0.143  0.00  0.00    +0.018 A 
ATOM     13  C   LIG A   1      -0.115  -3.953   0.840  0.00  0.00    +0.015 A 
ATOM     14  C   LIG A   1       0.700  -5.088   0.908  0.00  0.00    +0.046 A 
ATOM     15  C   LIG A   1       1.951  -5.101   0.291  0.00  0.00    +0.120 A 
ATOM     16  C   LIG A   1       2.376  -3.974  -0.408  0.00  0.00    +0.046 A 
ATOM     17  C   LIG A   1       1.562  -2.844  -0.479  0.00  0.00    +0.015 A 
BRANCH  15  18
ATOM     18  O   LIG A   1       2.672  -6.255   0.440  0.00  0.00    -0.495 OA
ATOM     19  C   LIG A   1       3.961  -6.257  -0.164  0.00  0.00    +0.277 C 
ENDBRANCH  15  18
ENDBRANCH   4  12
BRANCH   8  20
ATOM     20  O   LIG A   1      -3.498   2.490   0.631  0.00  0.00    -0.490 OA
ATOM     21  C   LIG A   1      -4.333   2.734  -0.499  0.00  0.00    +0.277 C 
ENDBRANCH   8  20
BRANCH   9  22
ATOM     22  O   LIG A   1      -1.924   4.614   0.367  0.00  0.00    -0.488 OA
ATOM     23  C   LIG A   1      -1.130   5.792   0.309  0.00  0.00    +0.277 C 
ENDBRANCH   9  22
BRANCH  10  24
ATOM     24  O   LIG A   1       0.953   4.230   0.195  0.00  0.00    -0.491 OA
ATOM     25  C   LIG A   1       2.161   4.153  -0.552  0.00  0.00    +0.277 C 
ENDBRANCH  10  24
TORSDOF 5
