@<TRIPOS>MOLECULE
NuBBE_2427
 38 40 0 0 0
SMALL
GASTEIGER

@<TRIPOS>ATOM
      1 O          -0.5924   -1.3708   -0.4814 O.2     1  LIG1       -0.4544
      2 C          -1.7364   -2.1275   -0.5944 C.ar    1  LIG1        0.1462
      3 C          -2.9332   -1.7914    0.0363 C.ar    1  LIG1        0.1055
      4 C          -2.9681   -0.5751    0.8475 C.ar    1  LIG1        0.1966
      5 O          -3.9914   -0.2261    1.4333 O.2     1  LIG1       -0.2869
      6 C          -1.7349    0.2131    0.9271 C.ar    1  LIG1        0.0288
      7 C          -0.6374   -0.2057    0.2774 C.ar    1  LIG1        0.1395
      8 C           0.6354    0.5595    0.3297 C.ar    1  LIG1        0.0245
      9 C           0.6305    1.9606    0.4614 C.ar    1  LIG1       -0.0054
     10 C           1.8224    2.6836    0.5134 C.ar    1  LIG1        0.1656
     11 O           1.9284    4.0453    0.6664 O.3     1  LIG1       -0.4913
     12 C           0.7127    4.7764    0.7802 C.3     1  LIG1        0.0790
     13 C           3.0469    2.0084    0.4120 C.ar    1  LIG1        0.2010
     14 O           4.1894    2.7623    0.5018 O.3     1  LIG1       -0.5009
     15 C           3.0884    0.6222    0.2561 C.ar    1  LIG1        0.1656
     16 O           4.2085   -0.1625    0.1684 O.3     1  LIG1       -0.4913
     17 C           5.3583    0.4416   -0.4168 C.3     1  LIG1        0.0790
     18 C           1.8783   -0.0910    0.2324 C.ar    1  LIG1       -0.0054
     19 C          -4.0644   -2.6025   -0.1119 C.ar    1  LIG1        0.1347
     20 O          -5.2656   -2.3249    0.4839 O.3     1  LIG1       -0.5058
     21 C          -4.0040   -3.7516   -0.8938 C.ar    1  LIG1        0.0223
     22 C          -2.8055   -4.0789   -1.5228 C.ar    1  LIG1        0.1239
     23 O          -2.7013   -5.1942   -2.3010 O.3     1  LIG1       -0.5065
     24 C          -1.6720   -3.2789   -1.3797 C.ar    1  LIG1        0.0231
     25 H          -1.7883    1.1081    1.5315 H       1  LIG1        0.0693
     26 H          -0.3178    2.4822    0.5219 H       1  LIG1        0.0662
     27 H           0.9695    5.8286    0.9338 H       1  LIG1        0.0660
     28 H           0.1316    4.4465    1.6477 H       1  LIG1        0.0660
     29 H           0.1261    4.7050   -0.1416 H       1  LIG1        0.0660
     30 H           3.8828    3.6781    0.6518 H       1  LIG1        0.2924
     31 H           6.0876   -0.3518   -0.6090 H       1  LIG1        0.0660
     32 H           5.8402    1.1447    0.2678 H       1  LIG1        0.0660
     33 H           5.1184    0.9106   -1.3775 H       1  LIG1        0.0660
     34 H           1.9231   -1.1751    0.1368 H       1  LIG1        0.0662
     35 H          -5.1664   -1.4956    1.0051 H       1  LIG1        0.2922
     36 H          -4.8903   -4.3695   -0.9988 H       1  LIG1        0.0691
     37 H          -3.5610   -5.6487   -2.3152 H       1  LIG1        0.2921
     38 H          -0.7481   -3.5554   -1.8798 H       1  LIG1        0.0691
@<TRIPOS>BOND
     1     1     2   ar
     2     2     3   ar
     3     3     4   ar
     4     4     5    2
     5     4     6   ar
     6     6     7   ar
     7     1     7   ar
     8     7     8    1
     9     8     9   ar
    10     9    10   ar
    11    10    11    1
    12    11    12    1
    13    10    13   ar
    14    13    14    1
    15    13    15   ar
    16    15    16    1
    17    16    17    1
    18    15    18   ar
    19     8    18   ar
    20     3    19   ar
    21    19    20    1
    22    19    21   ar
    23    21    22   ar
    24    22    23    1
    25    22    24   ar
    26     2    24   ar
    27     6    25    1
    28     9    26    1
    29    12    27    1
    30    12    28    1
    31    12    29    1
    32    14    30    1
    33    17    31    1
    34    17    32    1
    35    17    33    1
    36    18    34    1
    37    20    35    1
    38    21    36    1
    39    23    37    1
    40    24    38    1
