@<TRIPOS>MOLECULE
NuBBE_971
 23 23 0 0 0
SMALL
GASTEIGER

@<TRIPOS>ATOM
      1 O           0.9483   -2.4448    1.7422 O.2     1  LIG1       -0.2709
      2 C          -0.1339   -1.9861    1.4076 C.2     1  LIG1        0.2367
      3 N          -1.3501   -2.5108    1.7742 N.am    1  LIG1       -0.3149
      4 C          -1.4333   -3.6832    2.6048 C.3     1  LIG1        0.0003
      5 H          -2.2078   -2.0980    1.4365 H       1  LIG1        0.1487
      6 C          -0.2758   -0.7816    0.5534 C.2     1  LIG1        0.0007
      7 C           0.8045   -0.1434    0.0775 C.2     1  LIG1       -0.0497
      8 C           0.7228    1.0615   -0.7622 C.ar    1  LIG1       -0.0249
      9 C           1.7116    1.2928   -1.7270 C.ar    1  LIG1       -0.0546
     10 C           1.6669    2.4350   -2.5322 C.ar    1  LIG1       -0.0612
     11 C           0.6394    3.3628   -2.3743 C.ar    1  LIG1       -0.0617
     12 C          -0.3377    3.1561   -1.4046 C.ar    1  LIG1       -0.0612
     13 C          -0.2907    2.0171   -0.5977 C.ar    1  LIG1       -0.0546
     14 H          -0.9123   -3.4982    3.5479 H       1  LIG1        0.0426
     15 H          -0.9655   -4.5249    2.0878 H       1  LIG1        0.0426
     16 H          -2.4868   -3.9005    2.7963 H       1  LIG1        0.0426
     17 H          -1.2786   -0.4434    0.3310 H       1  LIG1        0.0669
     18 H           1.8034   -0.5200    0.2916 H       1  LIG1        0.0625
     19 H           2.5225    0.5813   -1.8681 H       1  LIG1        0.0623
     20 H           2.4359    2.6000   -3.2826 H       1  LIG1        0.0618
     21 H           0.6041    4.2501   -3.0009 H       1  LIG1        0.0618
     22 H          -1.1342    3.8829   -1.2692 H       1  LIG1        0.0618
     23 H          -1.0525    1.8954    0.1677 H       1  LIG1        0.0623
@<TRIPOS>BOND
     1     1     2    2
     2     2     3   am
     3     3     4    1
     4     3     5    1
     5     2     6    1
     6     6     7    2
     7     7     8    1
     8     8     9   ar
     9     9    10   ar
    10    10    11   ar
    11    11    12   ar
    12    12    13   ar
    13     8    13   ar
    14     4    14    1
    15     4    15    1
    16     4    16    1
    17     6    17    1
    18     7    18    1
    19     9    19    1
    20    10    20    1
    21    11    21    1
    22    12    22    1
    23    13    23    1
