@<TRIPOS>MOLECULE
NuBBE_1084
 61 61 0 0 0
SMALL
GASTEIGER

@<TRIPOS>ATOM
      1 C          -0.0042   -2.2327   -4.4982 C.3     1  LIG1       -0.0624
      2 C          -0.7383   -2.0371   -3.1605 C.3     1  LIG1       -0.0436
      3 C          -0.3799   -3.1699   -2.1658 C.3     1  LIG1       -0.0504
      4 C          -1.1264   -3.0656   -0.8228 C.3     1  LIG1       -0.0526
      5 C          -0.7398   -4.1763    0.1637 C.3     1  LIG1       -0.0507
      6 C          -1.4609   -4.0707    1.5282 C.3     1  LIG1       -0.0467
      7 C          -2.9804   -4.2137    1.4122 C.3     1  LIG1       -0.0627
      8 C          -0.9375   -5.1377    2.4946 C.3     1  LIG1       -0.0627
      9 C          -0.4991   -0.6160   -2.5947 C.3     1  LIG1       -0.0463
     10 C           0.9691   -0.3239   -2.2632 C.3     1  LIG1       -0.0240
     11 C           1.1983    1.0555   -1.6965 C.ar    1  LIG1       -0.0049
     12 C           1.2065    1.3342   -0.3211 C.ar    1  LIG1        0.1232
     13 O           0.8935    0.3611    0.5868 O.3     1  LIG1       -0.5062
     14 C           1.5438    2.6042    0.1732 C.ar    1  LIG1       -0.0049
     15 C           1.5418    2.9063    1.6583 C.3     1  LIG1       -0.0240
     16 C           0.1802    3.4149    2.1695 C.3     1  LIG1       -0.0466
     17 C           0.1684    3.7379    3.6824 C.3     1  LIG1       -0.0464
     18 C          -1.1996    4.2684    4.1303 C.3     1  LIG1       -0.0627
     19 C           0.5272    2.5251    4.5428 C.3     1  LIG1       -0.0627
     20 C           1.8692    3.6172   -0.7471 C.ar    1  LIG1       -0.0411
     21 C           1.8247    3.3656   -2.1232 C.ar    1  LIG1        0.0596
     22 C           2.1558    4.4697   -3.0664 C.2     1  LIG1        0.3368
     23 O           2.0732    4.0822   -4.3610 O.3     1  LIG1       -0.4771
     24 O           2.4614    5.5906   -2.7637 O.2     1  LIG1       -0.2451
     25 C           1.4793    2.0973   -2.5895 C.ar    1  LIG1       -0.0411
     26 H          -0.0771   -3.2673   -4.8487 H       1  LIG1        0.0232
     27 H           1.0617   -1.9960   -4.4325 H       1  LIG1        0.0232
     28 H          -0.4386   -1.5872   -5.2705 H       1  LIG1        0.0232
     29 H          -1.8122   -2.1244   -3.3770 H       1  LIG1        0.0298
     30 H           0.7022   -3.1876   -1.9930 H       1  LIG1        0.0268
     31 H          -0.6304   -4.1334   -2.6300 H       1  LIG1        0.0268
     32 H          -2.2037   -3.0911   -1.0188 H       1  LIG1        0.0265
     33 H          -0.9028   -2.1087   -0.3435 H       1  LIG1        0.0265
     34 H           0.3430   -4.1197    0.3375 H       1  LIG1        0.0268
     35 H          -0.9366   -5.1568   -0.2861 H       1  LIG1        0.0268
     36 H          -1.2409   -3.0889    1.9677 H       1  LIG1        0.0295
     37 H          -3.2514   -5.0692    0.7847 H       1  LIG1        0.0232
     38 H          -3.4317   -3.3140    0.9834 H       1  LIG1        0.0232
     39 H          -3.4362   -4.3659    2.3977 H       1  LIG1        0.0232
     40 H          -1.2092   -6.1440    2.1582 H       1  LIG1        0.0232
     41 H          -1.3649   -4.9926    3.4938 H       1  LIG1        0.0232
     42 H           0.1514   -5.0883    2.5911 H       1  LIG1        0.0232
     43 H          -1.1166   -0.4667   -1.7012 H       1  LIG1        0.0271
     44 H          -0.8696    0.1222   -3.3187 H       1  LIG1        0.0271
     45 H           1.5808   -0.4089   -3.1694 H       1  LIG1        0.0314
     46 H           1.3764   -1.0706   -1.5737 H       1  LIG1        0.0314
     47 H           0.1652   -0.1608    0.2115 H       1  LIG1        0.2922
     48 H           2.3185    3.6501    1.8763 H       1  LIG1        0.0314
     49 H           1.8450    2.0017    2.1968 H       1  LIG1        0.0314
     50 H          -0.5994    2.6757    1.9443 H       1  LIG1        0.0271
     51 H          -0.0909    4.3236    1.6147 H       1  LIG1        0.0271
     52 H           0.9081    4.5258    3.8735 H       1  LIG1        0.0296
     53 H          -1.9918    3.5320    3.9563 H       1  LIG1        0.0232
     54 H          -1.4642    5.1893    3.6013 H       1  LIG1        0.0232
     55 H          -1.1916    4.4960    5.2033 H       1  LIG1        0.0232
     56 H          -0.1670    1.6972    4.3638 H       1  LIG1        0.0232
     57 H           0.4841    2.7789    5.6077 H       1  LIG1        0.0232
     58 H           1.5428    2.1745    4.3419 H       1  LIG1        0.0232
     59 H           2.1566    4.6020   -0.3854 H       1  LIG1        0.0629
     60 H           2.3118    4.8865   -4.8629 H       1  LIG1        0.2954
     61 H           1.4525    1.9001   -3.6626 H       1  LIG1        0.0629
@<TRIPOS>BOND
     1     1     2    1
     2     2     3    1
     3     3     4    1
     4     4     5    1
     5     5     6    1
     6     6     7    1
     7     6     8    1
     8     2     9    1
     9     9    10    1
    10    10    11    1
    11    11    12   ar
    12    12    13    1
    13    12    14   ar
    14    14    15    1
    15    15    16    1
    16    16    17    1
    17    17    18    1
    18    17    19    1
    19    14    20   ar
    20    20    21   ar
    21    21    22    1
    22    22    23    1
    23    22    24    2
    24    21    25   ar
    25    11    25   ar
    26     1    26    1
    27     1    27    1
    28     1    28    1
    29     2    29    1
    30     3    30    1
    31     3    31    1
    32     4    32    1
    33     4    33    1
    34     5    34    1
    35     5    35    1
    36     6    36    1
    37     7    37    1
    38     7    38    1
    39     7    39    1
    40     8    40    1
    41     8    41    1
    42     8    42    1
    43     9    43    1
    44     9    44    1
    45    10    45    1
    46    10    46    1
    47    13    47    1
    48    15    48    1
    49    15    49    1
    50    16    50    1
    51    16    51    1
    52    17    52    1
    53    18    53    1
    54    18    54    1
    55    18    55    1
    56    19    56    1
    57    19    57    1
    58    19    58    1
    59    20    59    1
    60    23    60    1
    61    25    61    1
