@<TRIPOS>MOLECULE
NuBBE_682
 59 62 0 0 0
SMALL
GASTEIGER

@<TRIPOS>ATOM
      1 O          -0.7937    1.0527   -4.6283 O.2     1  LIG1       -0.2451
      2 C          -0.8079    0.1512   -3.8207 C.2     1  LIG1        0.3425
      3 O          -1.5827   -0.9929   -3.8958 O.3     1  LIG1       -0.4434
      4 C          -1.1282   -1.9200   -2.9033 C.3     1  LIG1        0.2095
      5 C          -0.7078   -0.9585   -1.8048 C.3     1  LIG1        0.1871
      6 C          -0.0408    0.1079   -2.5392 C.2     1  LIG1        0.1133
      7 C           1.0011    0.7582   -2.0030 C.2     1  LIG1        0.1205
      8 C           1.7944    1.8535   -2.7135 C.3     1  LIG1        0.0402
      9 C           3.0450    1.3142   -3.4665 C.3     1  LIG1        0.0618
     10 O           4.0189    0.7799   -2.5666 O.3     1  LIG1       -0.3914
     11 C           2.7203    0.2149   -4.4710 C.3     1  LIG1       -0.0383
     12 C           2.1860    2.9866   -1.7437 C.3     1  LIG1       -0.0532
     13 O           1.4572    0.4673   -0.7177 O.2     1  LIG1       -0.4538
     14 O          -1.8783   -0.2995   -1.2414 O.3     1  LIG1       -0.3760
     15 C           0.1296   -1.6384   -0.7381 C.3     1  LIG1        0.2037
     16 C           0.8190   -0.5514    0.1067 C.3     1  LIG1        0.2787
     17 O          -0.0802    0.0046    1.0728 O.2     1  LIG1       -0.4504
     18 C          -0.5881   -1.0103    1.8883 C.2     1  LIG1        0.1252
     19 C          -0.8235   -0.6337    3.2659 C.2     1  LIG1       -0.0234
     20 C          -0.6681    0.5993    3.7770 C.2     1  LIG1       -0.0777
     21 C          -0.9862    0.9451    5.2137 C.3     1  LIG1       -0.0256
     22 H          -1.3262    0.0423    5.7385 H       1  LIG1        0.0340
     23 C           0.2853    1.4362    5.9112 C.3     1  LIG1       -0.0590
     24 C          -2.0897    2.0145    5.3405 C.3     1  LIG1       -0.0499
     25 C          -3.4281    1.6178    4.7302 C.3     1  LIG1       -0.0648
     26 C          -0.9161   -2.2362    1.4221 C.2     1  LIG1       -0.0120
     27 O           1.1469   -2.5114   -1.2480 O.3     1  LIG1       -0.3742
     28 C          -0.8802   -2.4999   -0.0108 C.2     1  LIG1        0.0197
     29 C          -1.8585   -3.1560   -0.6885 C.2     1  LIG1        0.0938
     30 CL         -3.1103   -4.0561    0.1008 Cl      1  LIG1       -0.0794
     31 C          -0.0724   -2.7806   -3.6347 C.3     1  LIG1       -0.0141
     32 C          -2.0543   -2.9460   -2.1982 C.2     1  LIG1        0.2210
     33 O          -2.8948   -3.5896   -2.8269 O.2     1  LIG1       -0.2867
     34 H           1.1414    2.3168   -3.4626 H       1  LIG1        0.0402
     35 H           3.5195    2.1393   -4.0129 H       1  LIG1        0.0597
     36 H           4.4289    1.5282   -2.0985 H       1  LIG1        0.2098
     37 H           2.3297   -0.6717   -3.9670 H       1  LIG1        0.0255
     38 H           3.6278   -0.1196   -4.9846 H       1  LIG1        0.0255
     39 H           1.9986    0.5533   -5.2194 H       1  LIG1        0.0255
     40 H           2.9341    2.6744   -1.0056 H       1  LIG1        0.0237
     41 H           1.3137    3.3530   -1.1916 H       1  LIG1        0.0237
     42 H           2.6076    3.8340   -2.2965 H       1  LIG1        0.0237
     43 H          -1.5910    0.3650   -0.5832 H       1  LIG1        0.2110
     44 H           1.6584   -0.9935    0.6622 H       1  LIG1        0.1241
     45 H          -1.1835   -1.4272    3.9193 H       1  LIG1        0.0651
     46 H          -0.3102    1.4127    3.1480 H       1  LIG1        0.0576
     47 H           1.0945    0.7025    5.8272 H       1  LIG1        0.0235
     48 H           0.0981    1.6057    6.9771 H       1  LIG1        0.0235
     49 H           0.6394    2.3795    5.4793 H       1  LIG1        0.0235
     50 H          -1.7601    2.9569    4.8857 H       1  LIG1        0.0268
     51 H          -2.2542    2.2228    6.4056 H       1  LIG1        0.0268
     52 H          -3.3596    1.5007    3.6446 H       1  LIG1        0.0230
     53 H          -4.1715    2.3974    4.9308 H       1  LIG1        0.0230
     54 H          -3.7990    0.6826    5.1606 H       1  LIG1        0.0230
     55 H          -1.3755   -2.9728    2.0766 H       1  LIG1        0.0658
     56 H           1.9468   -1.9852   -1.4517 H       1  LIG1        0.2110
     57 H          -0.4691   -3.1226   -4.5990 H       1  LIG1        0.0274
     58 H           0.2146   -3.6819   -3.0827 H       1  LIG1        0.0274
     59 H           0.8326   -2.2161   -3.8690 H       1  LIG1        0.0274
@<TRIPOS>BOND
     1     2     3    1
     2     3     4    1
     3     4     5    1
     4     5     6    1
     5     2     6    1
     6     6     7    2
     7     8     9    1
     8     9    10    1
     9     9    11    1
    10     8    12    1
    11     7    13    1
    12     5    15    1
    13    15    16    1
    14    13    16    1
    15    16    17    1
    16    17    18    1
    17    19    20    2
    18    20    21    1
    19    21    22    1
    20    21    23    1
    21    21    24    1
    22    24    25    1
    23    18    26    2
    24    15    28    1
    25    26    28    1
    26    28    29    2
    27     4    32    1
    28    29    32    1
    29     1     2    2
    30     4    31    1
    31     5    14    1
    32     7     8    1
    33    15    27    1
    34    18    19    1
    35    29    30    1
    36    32    33    2
    37     8    34    1
    38     9    35    1
    39    10    36    1
    40    11    37    1
    41    11    38    1
    42    11    39    1
    43    12    40    1
    44    12    41    1
    45    12    42    1
    46    14    43    1
    47    16    44    1
    48    19    45    1
    49    20    46    1
    50    23    47    1
    51    23    48    1
    52    23    49    1
    53    24    50    1
    54    24    51    1
    55    25    52    1
    56    25    53    1
    57    25    54    1
    58    26    55    1
    59    27    56    1
    60    31    57    1
    61    31    58    1
    62    31    59    1
