REMARK  Name = NuBBE_1351
REMARK  6 active torsions:
REMARK  status: ('A' for Active; 'I' for Inactive)
REMARK    1  A    between atoms: C_1  and  C_2
REMARK    2  A    between atoms: C_5  and  C_6
REMARK    3  A    between atoms: C_11  and  C_15
REMARK    4  A    between atoms: C_15  and  O_16
REMARK    5  A    between atoms: C_15  and  C_17
REMARK    6  A    between atoms: C_15  and  C_18
REMARK                            x       y       z     vdW  Elec       q    Type
REMARK                         _______ _______ _______ _____ _____    ______ ____
ROOT
ATOM      1  C   LIG A   1      -1.028   1.592   2.202  0.00  0.00    +0.008 C 
ATOM      2  C   LIG A   1      -1.377   1.700   0.709  0.00  0.00    -0.004 C 
ATOM      3  C   LIG A   1      -0.893   0.499  -0.188  0.00  0.00    -0.006 C 
ATOM      4  C   LIG A   1      -1.071   0.838  -1.687  0.00  0.00    -0.070 C 
ATOM      5  C   LIG A   1      -0.979  -0.274  -2.707  0.00  0.00    +0.039 C 
ATOM      6  C   LIG A   1      -1.286   2.096  -2.118  0.00  0.00    -0.027 C 
ATOM      7  C   LIG A   1      -1.354   3.304  -1.238  0.00  0.00    +0.027 C 
ATOM      8  C   LIG A   1      -0.851   3.041   0.174  0.00  0.00    +0.008 C 
ATOM      9  C   LIG A   1       0.599   0.121   0.069  0.00  0.00    +0.017 C 
ATOM     10  C   LIG A   1       0.577  -1.205   0.842  0.00  0.00    +0.021 C 
ATOM     11  C   LIG A   1      -0.663  -1.906   0.286  0.00  0.00    +0.007 C 
ATOM     12  C   LIG A   1      -1.690  -0.782   0.203  0.00  0.00    +0.012 C 
ENDROOT
BRANCH  10  13
ATOM     13  C   LIG A   1       1.885  -2.031   0.809  0.00  0.00    +0.063 C 
ATOM     14  C   LIG A   1       2.279  -2.557  -0.575  0.00  0.00    +0.041 C 
ATOM     15  C   LIG A   1       3.049  -1.222   1.395  0.00  0.00    +0.041 C 
BRANCH  13  16
ATOM     16  O   LIG A   1       1.713  -3.165   1.670  0.00  0.00    -0.389 OA
ATOM     17  H   LIG A   1       1.054  -3.754   1.267  0.00  0.00    +0.210 HD
ENDBRANCH  13  16
ENDBRANCH  10  13
TORSDOF 2
