REMARK  Name = NuBBE_1062
REMARK  9 active torsions:
REMARK  status: ('A' for Active; 'I' for Inactive)
REMARK    1  A    between atoms: C_1  and  C_2
REMARK    2  A    between atoms: C_2  and  C_3
REMARK    3  A    between atoms: C_4  and  O_6
REMARK    4  A    between atoms: C_9  and  C_10
REMARK    5  A    between atoms: C_14  and  C_30
REMARK    6  A    between atoms: C_15  and  C_27
REMARK    7  A    between atoms: C_18  and  C_19
REMARK    8  A    between atoms: C_22  and  C_23
REMARK    9  A    between atoms: C_22  and  C_24
REMARK                            x       y       z     vdW  Elec       q    Type
REMARK                         _______ _______ _______ _____ _____    ______ ____
ROOT
ATOM      1  C   LIG A   1       4.412  -2.115   1.789  0.00  0.00    +0.014 C 
ATOM      2  C   LIG A   1       3.779  -1.436   0.536  0.00  0.00    -0.006 C 
ATOM      3  C   LIG A   1       2.924  -2.536  -0.118  0.00  0.00    +0.014 C 
ATOM      4  C   LIG A   1       4.961  -0.859  -0.287  0.00  0.00    +0.120 C 
ATOM      5  C   LIG A   1       4.535   0.124  -1.373  0.00  0.00    +0.032 C 
ATOM      6  C   LIG A   1       3.643   1.322  -0.812  0.00  0.00    +0.010 C 
ATOM      7  C   LIG A   1       2.308   0.746  -0.167  0.00  0.00    -0.018 C 
ATOM      8  C   LIG A   1       1.715   0.248  -1.522  0.00  0.00    +0.012 C 
ATOM      9  C   LIG A   1       2.945  -0.199   0.933  0.00  0.00    +0.004 C 
ATOM     10  C   LIG A   1       2.068  -0.408   2.126  0.00  0.00    +0.005 C 
ATOM     11  C   LIG A   1       1.717   0.973   2.638  0.00  0.00    +0.008 C 
ATOM     12  C   LIG A   1       0.278   1.466   2.133  0.00  0.00    -0.013 C 
ATOM     13  C   LIG A   1      -1.179   1.014   1.565  0.00  0.00    -0.004 C 
ATOM     14  C   LIG A   1      -1.294  -0.561   1.401  0.00  0.00    +0.012 C 
ATOM     15  C   LIG A   1      -0.822  -0.971  -0.014  0.00  0.00    +0.008 C 
ATOM     16  C   LIG A   1      -1.736  -0.414  -1.157  0.00  0.00    -0.025 C 
ATOM     17  C   LIG A   1      -1.089   0.233  -2.413  0.00  0.00    +0.012 C 
ATOM     18  C   LIG A   1      -2.596   0.683  -0.497  0.00  0.00    +0.022 C 
ATOM     19  C   LIG A   1      -3.765   1.119  -1.359  0.00  0.00    +0.014 C 
ATOM     20  C   LIG A   1      -4.584  -0.158  -1.776  0.00  0.00    -0.034 C 
ATOM     21  C   LIG A   1      -5.731   0.302  -2.671  0.00  0.00    +0.011 C 
ATOM     22  C   LIG A   1      -5.173  -0.907  -0.549  0.00  0.00    +0.011 C 
ATOM     23  C   LIG A   1      -3.708  -1.167  -2.553  0.00  0.00    +0.007 C 
ATOM     24  C   LIG A   1      -2.505  -1.612  -1.732  0.00  0.00    +0.008 C 
ATOM     25  C   LIG A   1      -2.357   1.677   2.447  0.00  0.00    +0.016 C 
ATOM     26  C   LIG A   1      -1.622   1.617   0.230  0.00  0.00    -0.056 C 
ATOM     27  C   LIG A   1      -1.139   2.796  -0.198  0.00  0.00    +0.046 C 
ATOM     28  C   LIG A   1      -0.089   0.733   3.612  0.00  0.00    +0.013 C 
ATOM     29  C   LIG A   1       1.192   1.831   0.633  0.00  0.00    +0.073 C 
ATOM     30  C   LIG A   1       0.354   2.686  -0.340  0.00  0.00    +0.160 C 
ATOM     31  O   LIG A   1       0.892   3.377  -1.237  0.00  0.00    -0.292 OA
ENDROOT
BRANCH   4  32
ATOM     32  O   LIG A   1       5.758  -1.894  -0.846  0.00  0.00    -0.391 OA
ATOM     33  H   LIG A   1       6.429  -2.119  -0.177  0.00  0.00    +0.210 HD
ENDBRANCH   4  32
TORSDOF 1
