@<TRIPOS>MOLECULE
NuBBE_182
 67 68 0 0 0
SMALL
GASTEIGER

@<TRIPOS>ATOM
      1 O          -0.9781   -2.8322    0.3809 O.3     1  LIG1       -0.5067
      2 C          -1.5902   -1.6193    0.3436 C.ar    1  LIG1        0.1179
      3 C          -2.8468   -1.6385   -0.1980 C.ar    1  LIG1       -0.0138
      4 C          -3.6230   -0.5014   -0.0972 C.ar    1  LIG1       -0.0047
      5 C          -5.0615   -0.6381   -0.4504 C.3     1  LIG1       -0.0361
      6 C          -3.0783    0.6843    0.4213 C.ar    1  LIG1        0.1320
      7 O          -3.8737    1.7928    0.3900 O.3     1  LIG1       -0.4811
      8 C          -3.2263    3.0712    0.5586 C.3     1  LIG1        0.1266
      9 C          -2.9422    3.6930   -0.8470 C.3     1  LIG1       -0.0060
     10 C          -2.0093    2.9123   -1.8187 C.3     1  LIG1       -0.0306
     11 C          -0.5705    2.8158   -1.3761 C.2     1  LIG1       -0.0849
     12 C           0.5787    2.6642   -2.0535 C.2     1  LIG1       -0.0762
     13 C           0.6644    2.6472   -3.5430 C.3     1  LIG1       -0.0438
     14 C           1.8888    2.5626   -1.2707 C.3     1  LIG1       -0.0286
     15 C           2.7535    1.3279   -1.5439 C.3     1  LIG1       -0.0303
     16 C           2.1681    0.0127   -1.1466 C.2     1  LIG1       -0.0738
     17 C           2.3210   -0.7315   -0.0642 C.2     1  LIG1        0.0328
     18 C           2.9229   -0.2474    1.1021 C.2     1  LIG1        0.3325
     19 O           2.4228   -0.4970    2.3287 O.3     1  LIG1       -0.4773
     20 O           3.9660    0.3583    1.1228 O.2     1  LIG1       -0.2455
     21 C           1.6700   -2.0752    0.0092 C.3     1  LIG1       -0.0178
     22 C           1.5803   -2.8812    1.3265 C.3     1  LIG1       -0.0303
     23 C           2.9507   -3.3066    1.7343 C.2     1  LIG1       -0.0850
     24 C           3.5695   -4.4298    1.3570 C.2     1  LIG1       -0.0796
     25 C           2.9370   -5.5208    0.5437 C.3     1  LIG1       -0.0440
     26 C           5.0087   -4.6114    1.7321 C.3     1  LIG1       -0.0440
     27 C          -4.2715    3.9034    1.3156 C.3     1  LIG1       -0.0212
     28 C          -1.9885    3.0409    1.4275 C.2     1  LIG1       -0.0406
     29 C          -1.2895    1.9137    1.6140 C.2     1  LIG1       -0.0512
     30 C          -1.7920    0.7064    0.9600 C.ar    1  LIG1        0.0202
     31 C          -1.0358   -0.4584    0.8963 C.ar    1  LIG1       -0.0095
     32 H          -1.1161   -3.2522   -0.4903 H       1  LIG1        0.2921
     33 H          -3.2466   -2.5651   -0.5995 H       1  LIG1        0.0658
     34 H          -5.3107   -1.6959   -0.6016 H       1  LIG1        0.0279
     35 H          -5.2815   -0.0877   -1.3635 H       1  LIG1        0.0279
     36 H          -5.6614   -0.2904    0.3939 H       1  LIG1        0.0279
     37 H          -2.5451    4.7102   -0.7282 H       1  LIG1        0.0310
     38 H          -3.9061    3.7927   -1.3654 H       1  LIG1        0.0310
     39 H          -2.0612    3.4137   -2.7921 H       1  LIG1        0.0309
     40 H          -2.4128    1.9051   -1.9772 H       1  LIG1        0.0309
     41 H          -0.4095    2.8784   -0.3159 H       1  LIG1        0.0572
     42 H          -0.3076    2.8075   -4.0162 H       1  LIG1        0.0274
     43 H           1.0488    1.6871   -3.8953 H       1  LIG1        0.0274
     44 H           1.3304    3.4498   -3.8750 H       1  LIG1        0.0274
     45 H           1.7084    2.6166   -0.1863 H       1  LIG1        0.0313
     46 H           2.4860    3.4502   -1.5095 H       1  LIG1        0.0313
     47 H           3.7194    1.4497   -1.0481 H       1  LIG1        0.0311
     48 H           2.9849    1.2727   -2.6132 H       1  LIG1        0.0311
     49 H           1.4926   -0.4028   -1.9195 H       1  LIG1        0.0577
     50 H           3.1260   -0.3873    2.9845 H       1  LIG1        0.2954
     51 H           2.0479   -2.7420   -0.7891 H       1  LIG1        0.0318
     52 H           0.6791   -1.8469   -0.3624 H       1  LIG1        0.0318
     53 H           0.9461   -3.7668    1.2157 H       1  LIG1        0.0311
     54 H           1.0936   -2.3213    2.1333 H       1  LIG1        0.0311
     55 H           3.5045   -2.5932    2.3358 H       1  LIG1        0.0572
     56 H           1.9359   -5.2689    0.1813 H       1  LIG1        0.0274
     57 H           2.8440   -6.4217    1.1571 H       1  LIG1        0.0274
     58 H           3.5416   -5.7440   -0.3391 H       1  LIG1        0.0274
     59 H           5.3996   -3.7365    2.2661 H       1  LIG1        0.0274
     60 H           5.6194   -4.7346    0.8328 H       1  LIG1        0.0274
     61 H           5.1199   -5.4798    2.3828 H       1  LIG1        0.0274
     62 H          -5.2693    3.7745    0.8805 H       1  LIG1        0.0271
     63 H          -4.0225    4.9686    1.3273 H       1  LIG1        0.0271
     64 H          -4.3504    3.5612    2.3571 H       1  LIG1        0.0271
     65 H          -1.6055    3.9889    1.8001 H       1  LIG1        0.0611
     66 H          -0.3250    1.9202    2.1123 H       1  LIG1        0.0623
     67 H          -0.0216   -0.4279    1.2718 H       1  LIG1        0.0661
@<TRIPOS>BOND
     1     1     2    1
     2     2     3   ar
     3     3     4   ar
     4     4     5    1
     5     4     6   ar
     6     6     7    1
     7     7     8    1
     8     8     9    1
     9     9    10    1
    10    10    11    1
    11    11    12    2
    12    12    13    1
    13    12    14    1
    14    14    15    1
    15    15    16    1
    16    16    17    2
    17    17    18    1
    18    18    19    1
    19    18    20    2
    20    17    21    1
    21    21    22    1
    22    22    23    1
    23    23    24    2
    24    24    25    1
    25    24    26    1
    26     8    27    1
    27     8    28    1
    28    28    29    2
    29     6    30   ar
    30    29    30    1
    31    30    31   ar
    32     2    31   ar
    33     1    32    1
    34     3    33    1
    35     5    34    1
    36     5    35    1
    37     5    36    1
    38     9    37    1
    39     9    38    1
    40    10    39    1
    41    10    40    1
    42    11    41    1
    43    13    42    1
    44    13    43    1
    45    13    44    1
    46    14    45    1
    47    14    46    1
    48    15    47    1
    49    15    48    1
    50    16    49    1
    51    19    50    1
    52    21    51    1
    53    21    52    1
    54    22    53    1
    55    22    54    1
    56    23    55    1
    57    25    56    1
    58    25    57    1
    59    25    58    1
    60    26    59    1
    61    26    60    1
    62    26    61    1
    63    27    62    1
    64    27    63    1
    65    27    64    1
    66    28    65    1
    67    29    66    1
    68    31    67    1
