REMARK  Name = NuBBE_116
REMARK  13 active torsions:
REMARK  status: ('A' for Active; 'I' for Inactive)
REMARK    1  A    between atoms: C_2  and  C_3
REMARK    2  A    between atoms: C_2  and  O_36
REMARK    3  A    between atoms: C_6  and  O_19
REMARK    4  A    between atoms: C_10  and  O_16
REMARK    5  A    between atoms: C_13  and  O_14
REMARK    6  A    between atoms: C_13  and  C_15
REMARK    7  A    between atoms: O_19  and  C_20
REMARK    8  A    between atoms: C_23  and  C_34
REMARK    9  A    between atoms: C_25  and  O_33
REMARK   10  A    between atoms: C_27  and  O_32
REMARK   11  A    between atoms: C_29  and  O_31
REMARK   12  A    between atoms: C_34  and  O_35
REMARK   13  A    between atoms: O_36  and  C_37
REMARK                            x       y       z     vdW  Elec       q    Type
REMARK                         _______ _______ _______ _____ _____    ______ ____
ROOT
ATOM      1  C   LIG A   1       0.815   0.422  -2.428  0.00  0.00    +0.077 C 
ATOM      2  C   LIG A   1      -0.422  -0.024  -2.176  0.00  0.00    +0.201 C 
ATOM      3  O   LIG A   1      -1.154   0.277  -1.055  0.00  0.00    -0.470 OA
ATOM      4  C   LIG A   1      -0.361   0.717   0.057  0.00  0.00    +0.316 C 
ATOM      5  C   LIG A   1       0.639   1.813  -0.323  0.00  0.00    +0.099 C 
ATOM      6  C   LIG A   1       1.523   1.393  -1.516  0.00  0.00    +0.069 C 
ATOM      7  C   LIG A   1       1.877   2.724  -2.225  0.00  0.00    +0.126 C 
ATOM      8  C   LIG A   1       1.237   3.845  -1.412  0.00  0.00    +0.067 C 
ATOM      9  C   LIG A   1       0.051   3.188  -0.706  0.00  0.00    +0.075 C 
ATOM     10  C   LIG A   1      -1.197   3.209  -1.589  0.00  0.00    +0.042 C 
ENDROOT
BRANCH   1  12
ATOM     11  O   LIG A   1       0.868  -0.525  -4.624  0.00  0.00    -0.245 OA
ATOM     12  C   LIG A   1       1.464  -0.050  -3.675  0.00  0.00    +0.338 C 
BRANCH  12  13
ATOM     13  O   LIG A   1       2.799   0.160  -3.591  0.00  0.00    -0.465 OA
ATOM     14  C   LIG A   1       3.529  -0.148  -4.775  0.00  0.00    +0.280 C 
ENDBRANCH  12  13
ENDBRANCH   1  12
BRANCH   9  15
ATOM     15  O   LIG A   1      -0.234   3.944   0.471  0.00  0.00    -0.388 OA
ATOM     16  H   LIG A   1      -1.066   3.623   0.858  0.00  0.00    +0.210 HD
ENDBRANCH   9  15
BRANCH   7  17
ATOM     17  O   LIG A   1       3.287   2.906  -2.272  0.00  0.00    -0.391 OA
ATOM     18  H   LIG A   1       3.464   3.778  -2.664  0.00  0.00    +0.210 HD
ENDBRANCH   7  17
BRANCH   4  19
ATOM     19  O   LIG A   1       0.361  -0.375   0.645  0.00  0.00    -0.309 OA
BRANCH  19  20
ATOM     20  C   LIG A   1      -0.506  -1.404   1.140  0.00  0.00    +0.286 C 
ATOM     21  O   LIG A   1      -1.349  -0.835   2.145  0.00  0.00    -0.340 OA
ATOM     22  C   LIG A   1      -2.189  -1.784   2.795  0.00  0.00    +0.178 C 
ATOM     23  C   LIG A   1      -1.323  -2.792   3.561  0.00  0.00    +0.177 C 
ATOM     24  C   LIG A   1      -0.441  -3.525   2.551  0.00  0.00    +0.179 C 
ATOM     25  C   LIG A   1       0.374  -2.551   1.697  0.00  0.00    +0.201 C 
BRANCH  25  26
ATOM     26  O   LIG A   1       0.982  -3.301   0.629  0.00  0.00    -0.384 OA
ATOM     27  H   LIG A   1       1.428  -4.054   1.065  0.00  0.00    +0.210 HD
ENDBRANCH  25  26
BRANCH  24  28
ATOM     28  O   LIG A   1       0.452  -4.417   3.240  0.00  0.00    -0.386 OA
ATOM     29  H   LIG A   1      -0.103  -4.853   3.921  0.00  0.00    +0.210 HD
ENDBRANCH  24  28
BRANCH  23  30
ATOM     30  O   LIG A   1      -2.090  -3.772   4.265  0.00  0.00    -0.387 OA
ATOM     31  H   LIG A   1      -2.775  -3.282   4.772  0.00  0.00    +0.210 HD
ENDBRANCH  23  30
BRANCH  22  32
ATOM     32  C   LIG A   1      -3.128  -1.011   3.728  0.00  0.00    +0.190 C 
BRANCH  32  33
ATOM     33  O   LIG A   1      -3.999  -1.890   4.433  0.00  0.00    -0.392 OA
ATOM     34  H   LIG A   1      -4.748  -2.091   3.841  0.00  0.00    +0.209 HD
ENDBRANCH  32  33
ENDBRANCH  22  32
ENDBRANCH  19  20
ENDBRANCH   4  19
TORSDOF 11
