REMARK  Name = NuBBE_869
REMARK  5 active torsions:
REMARK  status: ('A' for Active; 'I' for Inactive)
REMARK    1  A    between atoms: CG_7  and  OD_10
REMARK    2  A    between atoms: CA_11  and  CB_16
REMARK    3  A    between atoms: CB_16  and  CG_17
REMARK    4  A    between atoms: CG_17  and  CD1_18
REMARK    5  A    between atoms: CG_17  and  CD2_19
REMARK                            x       y       z     vdW  Elec       q    Type
REMARK                         _______ _______ _______ _____ _____    ______ ____
ROOT
ATOM      1  O   LEU A   2      -1.938  -1.160  -1.484  0.00  0.00    -0.274 OA
ATOM      2  C   LEU A   2      -1.321  -0.757  -0.500  0.00  0.00    +0.237 C 
ATOM      3  N   HYP A   1      -0.640  -1.597   0.354  0.00  0.00    -0.286 N 
ATOM      4  CA  HYP A   1      -0.373  -1.216   1.725  0.00  0.00    +0.164 C 
ATOM      5  CB  HYP A   1       0.592  -2.294   2.195  0.00  0.00    +0.064 C 
ATOM      6  CG  HYP A   1       0.008  -3.546   1.533  0.00  0.00    +0.134 C 
ATOM      7  CD  HYP A   1      -0.580  -3.040   0.203  0.00  0.00    +0.140 C 
ATOM      8  CA  LEU A   2      -0.945   0.739  -0.315  0.00  0.00    +0.159 C 
ATOM      9  N   LEU A   2      -0.570   1.104   1.055  0.00  0.00    -0.302 N 
ATOM     10  C   HYP A   1       0.117   0.220   1.863  0.00  0.00    +0.234 C 
ATOM     11  O   HYP A   1       0.839   0.620   2.769  0.00  0.00    -0.274 OA
ATOM     12  H   LEU A   2      -0.328   2.071   1.228  0.00  0.00    +0.149 HD
ENDROOT
BRANCH   6  13
ATOM     13  OD  HYP A   1      -1.033  -4.065   2.360  0.00  0.00    -0.390 OA
ATOM     14  HD  HYP A   1      -0.618  -4.420   3.167  0.00  0.00    +0.210 HD
ENDBRANCH   6  13
BRANCH   8  15
ATOM     15  CB  LEU A   2       0.202   1.038  -1.302  0.00  0.00    +0.034 C 
BRANCH  15  16
ATOM     16  CG  LEU A   2       0.685   2.502  -1.351  0.00  0.00    -0.015 C 
ATOM     17  CD1 LEU A   2       1.817   2.633  -2.375  0.00  0.00    +0.007 C 
ATOM     18  CD2 LEU A   2      -0.438   3.480  -1.694  0.00  0.00    +0.007 C 
ENDBRANCH  15  16
ENDBRANCH   8  15
TORSDOF 3
