REMARK  Name = NuBBE_855
REMARK  6 active torsions:
REMARK  status: ('A' for Active; 'I' for Inactive)
REMARK    1  A    between atoms: C_3  and  O_4
REMARK    2  A    between atoms: O_4  and  C_5
REMARK    3  A    between atoms: C_7  and  O_8
REMARK    4  A    between atoms: C_12  and  C_13
REMARK    5  A    between atoms: C_17  and  C_19
REMARK    6  A    between atoms: C_19  and  C_20
REMARK                            x       y       z     vdW  Elec       q    Type
REMARK                         _______ _______ _______ _____ _____    ______ ____
ROOT
ATOM      1  O   LIG A   1      -1.322   2.854  -0.649  0.00  0.00    -0.289 OA
ATOM      2  C   LIG A   1      -0.315   2.522  -0.014  0.00  0.00    +0.191 C 
ATOM      3  C   LIG A   1       0.658   3.552   0.594  0.00  0.00    +0.191 C 
ATOM      4  C   LIG A   1       2.022   2.936   0.894  0.00  0.00    +0.079 C 
ATOM      5  C   LIG A   1       1.890   1.639   1.670  0.00  0.00    +0.183 C 
ATOM      6  C   LIG A   1      -0.043   1.063   0.180  0.00  0.00    +0.038 C 
ATOM      7  C   LIG A   1       0.985   0.672   0.966  0.00  0.00    +0.133 C 
ATOM      8  O   LIG A   1       1.359  -0.660   1.137  0.00  0.00    -0.487 OA
ATOM      9  C   LIG A   1       0.852  -1.527   0.114  0.00  0.00    +0.111 C 
ATOM     10  C   LIG A   1       1.701  -1.347  -1.163  0.00  0.00    +0.056 C 
ATOM     11  C   LIG A   1      -0.661  -1.319  -0.025  0.00  0.00    +0.044 C 
ATOM     12  C   LIG A   1      -0.954   0.088  -0.529  0.00  0.00    +0.050 C 
ATOM     13  C   LIG A   1      -1.122  -2.531  -0.846  0.00  0.00    +0.021 C 
ATOM     14  C   LIG A   1      -0.192  -3.669  -0.328  0.00  0.00    +0.012 C 
ATOM     15  C   LIG A   1       0.883  -2.995   0.542  0.00  0.00    +0.049 C 
ENDROOT
BRANCH  13  16
ATOM     16  C   LIG A   1      -2.619  -2.778  -0.798  0.00  0.00    -0.076 C 
ATOM     17  C   LIG A   1      -3.426  -2.096  -1.875  0.00  0.00    +0.038 C 
ATOM     18  C   LIG A   1      -3.235  -3.560   0.105  0.00  0.00    +0.007 C 
ENDBRANCH  13  16
BRANCH   3  19
ATOM     19  O   LIG A   1       0.792   4.640  -0.333  0.00  0.00    -0.372 OA
ATOM     20  C   LIG A   1       1.527   5.747   0.166  0.00  0.00    +0.195 C 
ENDBRANCH   3  19
BRANCH   5  21
ATOM     21  O   LIG A   1       1.358   1.903   2.962  0.00  0.00    -0.384 OA
ATOM     22  H   LIG A   1       1.235   1.036   3.390  0.00  0.00    +0.210 HD
ENDBRANCH   5  21
TORSDOF 3
