@<TRIPOS>MOLECULE
NuBBE_156
 32 33 0 0 0
SMALL
GASTEIGER

@<TRIPOS>ATOM
      1 O          -1.7538   -3.5690    1.6823 O.2     1  LIG1       -0.2450
      2 C          -0.6426   -3.4018    1.2129 C.2     1  LIG1        0.3389
      3 C          -0.1879   -2.1338    0.5869 C.ar    1  LIG1        0.0595
      4 C           0.8634   -2.1079   -0.3361 C.ar    1  LIG1       -0.0443
      5 C           1.2608   -0.8969   -0.9028 C.ar    1  LIG1       -0.0189
      6 C           0.6164    0.2902   -0.5530 C.ar    1  LIG1        0.1245
      7 O           1.0954    1.4171   -1.1600 O.3     1  LIG1       -0.4860
      8 C           0.3443    2.6315   -0.9877 C.3     1  LIG1        0.1054
      9 C          -0.7309    2.7090   -2.0818 C.3     1  LIG1       -0.0252
     10 C          -0.2404    2.7506    0.4280 C.3     1  LIG1       -0.0093
     11 C          -1.1191    1.5544    0.7634 C.3     1  LIG1       -0.0206
     12 C          -0.4267    0.2812    0.3776 C.ar    1  LIG1       -0.0048
     13 C          -0.8400   -0.9413    0.9311 C.ar    1  LIG1       -0.0411
     14 C           1.3480    3.7730   -1.2080 C.3     1  LIG1       -0.0252
     15 O           0.3768   -4.2982    1.2162 O.3     1  LIG1       -0.4645
     16 C           0.0576   -5.5465    1.8305 C.3     1  LIG1        0.0820
     17 H           1.3745   -3.0218   -0.6272 H       1  LIG1        0.0627
     18 H           2.0750   -0.8767   -1.6228 H       1  LIG1        0.0654
     19 H          -1.4216    1.8608   -2.0384 H       1  LIG1        0.0268
     20 H          -0.2726    2.6712   -3.0770 H       1  LIG1        0.0268
     21 H          -1.3133    3.6331   -2.0053 H       1  LIG1        0.0268
     22 H          -0.8104    3.6797    0.5461 H       1  LIG1        0.0307
     23 H           0.5828    2.7838    1.1555 H       1  LIG1        0.0307
     24 H          -2.0761    1.6182    0.2331 H       1  LIG1        0.0316
     25 H          -1.3354    1.5605    1.8383 H       1  LIG1        0.0316
     26 H          -1.6617   -0.9651    1.6456 H       1  LIG1        0.0629
     27 H           1.8120    3.7002   -2.1987 H       1  LIG1        0.0268
     28 H           2.1676    3.7161   -0.4821 H       1  LIG1        0.0268
     29 H           0.8721    4.7549   -1.1187 H       1  LIG1        0.0268
     30 H           0.9380   -6.1913    1.7582 H       1  LIG1        0.0661
     31 H          -0.7706   -6.0307    1.3048 H       1  LIG1        0.0661
     32 H          -0.1816   -5.4046    2.8891 H       1  LIG1        0.0661
@<TRIPOS>BOND
     1     1     2    2
     2     2     3    1
     3     3     4   ar
     4     4     5   ar
     5     5     6   ar
     6     6     7    1
     7     7     8    1
     8     8     9    1
     9     8    10    1
    10    10    11    1
    11    11    12    1
    12     6    12   ar
    13    12    13   ar
    14     3    13   ar
    15     8    14    1
    16     2    15    1
    17    15    16    1
    18     4    17    1
    19     5    18    1
    20     9    19    1
    21     9    20    1
    22     9    21    1
    23    10    22    1
    24    10    23    1
    25    11    24    1
    26    11    25    1
    27    13    26    1
    28    14    27    1
    29    14    28    1
    30    14    29    1
    31    16    30    1
    32    16    31    1
    33    16    32    1
