@<TRIPOS>MOLECULE
NuBBE_1482
 44 45 0 0 0
SMALL
GASTEIGER

@<TRIPOS>ATOM
      1 H          -0.7001    2.2058    0.4023 H       1  LIG1        0.0626
      2 C           0.2328    2.4561   -0.0950 C.ar    1  LIG1       -0.0455
      3 C           0.8344    1.5561   -1.0039 C.ar    1  LIG1        0.0470
      4 C           0.1593    0.2294   -1.2335 C.2     1  LIG1        0.1988
      5 C          -0.6991   -0.5243   -0.2521 C.ar    1  LIG1        0.0710
      6 C          -1.7640   -1.2800   -0.7675 C.ar    1  LIG1       -0.0017
      7 C          -2.4554   -2.1986    0.0317 C.ar    1  LIG1        0.1661
      8 O          -3.5216   -2.9440   -0.4208 O.3     1  LIG1       -0.4913
      9 C          -3.5221   -3.2638   -1.8072 C.3     1  LIG1        0.0790
     10 C          -2.0914   -2.3844    1.3832 C.ar    1  LIG1        0.2073
     11 O          -2.6064   -3.5247    1.9626 O.3     1  LIG1       -0.4884
     12 C          -3.2549   -3.4331    3.2222 C.3     1  LIG1        0.0791
     13 C          -1.0661   -1.5887    1.9476 C.ar    1  LIG1        0.2077
     14 O          -0.7615   -1.8327    3.2689 O.3     1  LIG1       -0.4884
     15 C           0.2802   -1.0713    3.8736 C.3     1  LIG1        0.0791
     16 C          -0.3974   -0.6521    1.1092 C.ar    1  LIG1        0.1734
     17 O           0.6197    0.1256    1.5929 O.3     1  LIG1       -0.5027
     18 O           0.3164   -0.3218   -2.3482 O.2     1  LIG1       -0.2865
     19 C           1.9982    1.9661   -1.7367 C.ar    1  LIG1        0.0836
     20 N           2.5747    1.1714   -2.7532 N.pl3   1  LIG1       -0.3434
     21 C           4.0173    1.1767   -2.9888 C.3     1  LIG1       -0.0023
     22 C           2.4581    3.2818   -1.5052 C.ar    1  LIG1        0.1802
     23 O           3.3900    3.8839   -2.3188 O.3     1  LIG1       -0.5021
     24 C           1.8964    4.1137   -0.5415 C.ar    1  LIG1        0.1601
     25 O           2.3819    5.3791   -0.3715 O.3     1  LIG1       -0.5032
     26 C           0.7915    3.7083    0.1756 C.ar    1  LIG1       -0.0157
     27 H          -2.0142   -1.1609   -1.8182 H       1  LIG1        0.0664
     28 H          -4.3577   -3.9453   -1.9956 H       1  LIG1        0.0660
     29 H          -2.5970   -3.7769   -2.0886 H       1  LIG1        0.0660
     30 H          -3.6870   -2.3755   -2.4244 H       1  LIG1        0.0660
     31 H          -3.2347   -2.4422    3.6792 H       1  LIG1        0.0660
     32 H          -2.7973   -4.1656    3.8970 H       1  LIG1        0.0660
     33 H          -4.3018   -3.7379    3.0943 H       1  LIG1        0.0660
     34 H           0.0401   -0.0021    3.8635 H       1  LIG1        0.0660
     35 H           1.2487   -1.2814    3.4055 H       1  LIG1        0.0660
     36 H           0.3637   -1.3526    4.9266 H       1  LIG1        0.0660
     37 H           0.1985    0.9421    1.9185 H       1  LIG1        0.2923
     38 H           2.1884    0.2188   -2.7181 H       1  LIG1        0.1459
     39 H           4.3158    2.0037   -3.6417 H       1  LIG1        0.0425
     40 H           4.3031    0.2684   -3.5297 H       1  LIG1        0.0425
     41 H           4.5986    1.2181   -2.0621 H       1  LIG1        0.0425
     42 H           3.1763    3.5195   -3.1999 H       1  LIG1        0.2924
     43 H           3.1130    5.4486   -1.0204 H       1  LIG1        0.2923
     44 H           0.3328    4.3871    0.8882 H       1  LIG1        0.0655
@<TRIPOS>BOND
     1     1     2    1
     2     2     3   ar
     3     3     4    1
     4     4     5    1
     5     5     6   ar
     6     6     7   ar
     7     7     8    1
     8     8     9    1
     9     7    10   ar
    10    10    11    1
    11    11    12    1
    12    10    13   ar
    13    13    14    1
    14    14    15    1
    15    13    16   ar
    16     5    16   ar
    17    16    17    1
    18     4    18    2
    19     3    19   ar
    20    19    20    1
    21    20    21    1
    22    19    22   ar
    23    22    23    1
    24    22    24   ar
    25    24    25    1
    26    24    26   ar
    27     2    26   ar
    28     6    27    1
    29     9    28    1
    30     9    29    1
    31     9    30    1
    32    12    31    1
    33    12    32    1
    34    12    33    1
    35    15    34    1
    36    15    35    1
    37    15    36    1
    38    17    37    1
    39    20    38    1
    40    21    39    1
    41    21    40    1
    42    21    41    1
    43    23    42    1
    44    25    43    1
    45    26    44    1
