@<TRIPOS>MOLECULE
NuBBE_482
 102 106 0 0 0
SMALL
GASTEIGER

@<TRIPOS>ATOM
      1 C          -2.9372   -0.2653   -0.4198 C.3     1  LIG1       -0.0585
      2 C          -1.4513    0.1535   -0.4092 C.3     1  LIG1       -0.0194
      3 C          -0.6159   -0.6322   -1.4536 C.3     1  LIG1       -0.0463
      4 C          -0.3575   -2.0734   -1.1172 C.3     1  LIG1       -0.0483
      5 C           0.2349   -2.4746    0.2687 C.3     1  LIG1       -0.0200
      6 C           0.3599   -4.0731    0.3438 C.3     1  LIG1        0.0790
      7 C           0.6141   -4.7609    1.7402 C.3     1  LIG1        0.1048
      8 O           0.6244   -6.2149    1.5792 O.3     1  LIG1       -0.4640
      9 C           1.8186   -6.8460    1.4098 C.2     1  LIG1        0.3040
     10 C           1.6375   -8.1854    0.7530 C.3     1  LIG1        0.0332
     11 O           2.9177   -6.3587    1.6590 O.2     1  LIG1       -0.2512
     12 C           1.5842   -4.4674   -0.5401 C.3     1  LIG1        0.1048
     13 O           2.8113   -3.9509    0.0342 O.3     1  LIG1       -0.4640
     14 C           3.3604   -2.8454   -0.5504 C.2     1  LIG1        0.3040
     15 C           4.6035   -2.4257    0.1692 C.3     1  LIG1        0.0332
     16 O           2.8705   -2.2203   -1.4649 O.2     1  LIG1       -0.2512
     17 C          -1.0146   -4.6497   -0.1301 C.3     1  LIG1        0.1152
     18 H          -1.1163   -5.7211    0.0751 H       1  LIG1        0.0742
     19 O          -1.2463   -4.5232   -1.5785 O.3     1  LIG1       -0.4607
     20 C          -0.6689   -5.3124   -2.4889 C.2     1  LIG1        0.3042
     21 C          -0.7859   -4.7158   -3.8643 C.3     1  LIG1        0.0332
     22 O          -0.0502   -6.3546   -2.2324 O.2     1  LIG1       -0.2512
     23 C          -2.1822   -3.8879    0.6233 C.3     1  LIG1       -0.0144
     24 C          -1.8975   -2.6317    1.5587 C.3     1  LIG1       -0.0437
     25 C          -0.6047   -1.7854    1.3657 C.3     1  LIG1       -0.0247
     26 C           0.2285   -1.7361    2.6870 C.3     1  LIG1       -0.0590
     27 C          -0.7266   -0.2322    0.9336 C.3     1  LIG1       -0.0257
     28 C          -0.9853    0.8358    1.9949 C.3     1  LIG1       -0.0306
     29 C          -0.3081    2.0814    1.4807 C.2     1  LIG1       -0.0835
     30 C          -0.4111    2.4788    0.1974 C.2     1  LIG1       -0.0602
     31 C          -1.3682    1.7505   -0.7694 C.3     1  LIG1       -0.0050
     32 C          -1.0431    1.8881   -2.3049 C.3     1  LIG1       -0.0553
     33 C          -2.6575    2.6144   -0.5671 C.3     1  LIG1       -0.0424
     34 C          -2.4400    4.1237   -0.9216 C.3     1  LIG1       -0.0358
     35 C          -1.1014    4.7943   -0.3963 C.3     1  LIG1        0.0768
     36 C          -1.4116    5.3957    0.9930 C.2     1  LIG1        0.3137
     37 O          -2.2518    4.5768    1.6888 O.3     1  LIG1       -0.4675
     38 C          -2.1895    4.6794    3.1074 C.3     1  LIG1        0.0817
     39 O          -0.9507    6.4234    1.4424 O.2     1  LIG1       -0.2502
     40 C           0.0934    3.7939   -0.3419 C.3     1  LIG1        0.0252
     41 C           1.5124    4.3651    0.0146 C.3     1  LIG1        0.0733
     42 C           1.7645    4.8831    1.4317 C.3     1  LIG1       -0.0352
     43 O           2.4998    3.3228   -0.1653 O.3     1  LIG1       -0.3880
     44 C           1.8172    5.4559   -1.0626 C.3     1  LIG1       -0.0146
     45 H           1.8740    4.9471   -2.0374 H       1  LIG1        0.0326
     46 C           3.1799    6.1355   -0.8907 C.3     1  LIG1       -0.0598
     47 C           0.6986    6.5112   -1.1501 C.3     1  LIG1       -0.0468
     48 C          -0.6983    5.9160   -1.3866 C.3     1  LIG1       -0.0363
     49 H          -3.0886   -1.3422   -0.4496 H       1  LIG1        0.0235
     50 H          -3.4581    0.1111   -1.3060 H       1  LIG1        0.0235
     51 H          -3.4638    0.1195    0.4624 H       1  LIG1        0.0235
     52 H           0.3639   -0.1669   -1.5998 H       1  LIG1        0.0271
     53 H          -1.1406   -0.6410   -2.4172 H       1  LIG1        0.0271
     54 H           0.2437   -2.4958   -1.9252 H       1  LIG1        0.0268
     55 H          -1.3621   -2.4683   -1.2044 H       1  LIG1        0.0268
     56 H           1.2317   -2.0370    0.3584 H       1  LIG1        0.0315
     57 H           1.5331   -4.4265    2.2309 H       1  LIG1        0.0705
     58 H          -0.2140   -4.5751    2.4314 H       1  LIG1        0.0705
     59 H           0.6117   -8.3155    0.3938 H       1  LIG1        0.0342
     60 H           1.8843   -8.9820    1.4558 H       1  LIG1        0.0342
     61 H           2.2913   -8.2442   -0.1254 H       1  LIG1        0.0342
     62 H           1.7056   -5.5512   -0.5737 H       1  LIG1        0.0705
     63 H           1.5005   -4.1765   -1.5843 H       1  LIG1        0.0705
     64 H           5.2215   -1.8499   -0.5241 H       1  LIG1        0.0342
     65 H           5.1714   -3.3043    0.4790 H       1  LIG1        0.0342
     66 H           4.3548   -1.8097    1.0373 H       1  LIG1        0.0342
     67 H          -1.2870   -3.7377   -3.8302 H       1  LIG1        0.0342
     68 H          -1.3449   -5.3657   -4.5354 H       1  LIG1        0.0342
     69 H           0.2222   -4.5289   -4.2851 H       1  LIG1        0.0342
     70 H          -2.6809   -4.6295    1.2606 H       1  LIG1        0.0301
     71 H          -2.9507   -3.6013   -0.1086 H       1  LIG1        0.0301
     72 H          -1.9126   -3.0119    2.5887 H       1  LIG1        0.0272
     73 H          -2.7747   -1.9785    1.5352 H       1  LIG1        0.0272
     74 H          -0.3735   -1.3782    3.5281 H       1  LIG1        0.0235
     75 H           1.0903   -1.0614    2.5765 H       1  LIG1        0.0235
     76 H           0.6477   -2.6844    3.0024 H       1  LIG1        0.0235
     77 H           0.3380   -0.0367    0.6933 H       1  LIG1        0.0315
     78 H          -0.5260    0.6110    2.9591 H       1  LIG1        0.0310
     79 H          -2.0488    1.0085    2.1829 H       1  LIG1        0.0310
     80 H           0.2719    2.6273    2.2113 H       1  LIG1        0.0572
     81 H          -0.0196    1.5838   -2.5430 H       1  LIG1        0.0238
     82 H          -1.1289    2.8984   -2.7076 H       1  LIG1        0.0238
     83 H          -1.7490    1.2997   -2.9025 H       1  LIG1        0.0238
     84 H          -3.0206    2.5315    0.4651 H       1  LIG1        0.0274
     85 H          -3.4779    2.2546   -1.1985 H       1  LIG1        0.0274
     86 H          -3.3135    4.6856   -0.5631 H       1  LIG1        0.0276
     87 H          -2.5008    4.2228   -2.0115 H       1  LIG1        0.0276
     88 H          -2.4594    3.6934    3.4965 H       1  LIG1        0.0661
     89 H          -2.9061    5.4144    3.4814 H       1  LIG1        0.0661
     90 H          -1.1747    4.9069    3.4461 H       1  LIG1        0.0661
     91 H           0.2953    3.5412   -1.3886 H       1  LIG1        0.0384
     92 H           2.8322    5.0893    1.5797 H       1  LIG1        0.0257
     93 H           1.5303    4.1486    2.2005 H       1  LIG1        0.0257
     94 H           1.2382    5.8059    1.6588 H       1  LIG1        0.0257
     95 H           2.1046    2.5837   -0.6588 H       1  LIG1        0.2102
     96 H           3.2017    6.7811   -0.0076 H       1  LIG1        0.0233
     97 H           3.4034    6.7612   -1.7616 H       1  LIG1        0.0233
     98 H           3.9841    5.3979   -0.8014 H       1  LIG1        0.0233
     99 H           0.9186    7.1978   -1.9770 H       1  LIG1        0.0269
    100 H           0.6939    7.1248   -0.2447 H       1  LIG1        0.0269
    101 H          -0.6982    5.5002   -2.4056 H       1  LIG1        0.0276
    102 H          -1.4447    6.7180   -1.3828 H       1  LIG1        0.0276
@<TRIPOS>BOND
     1     2     3    1
     2     3     4    1
     3     4     5    1
     4     5     6    1
     5     7     8    1
     6     8     9    1
     7     9    10    1
     8     9    11    2
     9    12    13    1
    10    13    14    1
    11    14    15    1
    12    14    16    2
    13     6    17    1
    14    19    20    1
    15    20    21    1
    16    20    22    2
    17    17    23    1
    18    23    24    1
    19    24    25    1
    20     5    25    1
    21    25    27    1
    22     2    27    1
    23    27    28    1
    24    28    29    1
    25    29    30    2
    26    30    31    1
    27     2    31    1
    28    31    33    1
    29    33    34    1
    30    34    35    1
    31    36    37    1
    32    37    38    1
    33    36    39    2
    34    35    40    1
    35    30    40    1
    36    40    41    1
    37    41    44    1
    38    44    47    1
    39    47    48    1
    40    35    48    1
    41     1     2    1
    42     6     7    1
    43     6    12    1
    44    17    18    1
    45    17    19    1
    46    25    26    1
    47    31    32    1
    48    35    36    1
    49    44    45    1
    50    44    46    1
    51    41    43    1
    52    41    42    1
    53     1    49    1
    54     1    50    1
    55     1    51    1
    56     3    52    1
    57     3    53    1
    58     4    54    1
    59     4    55    1
    60     5    56    1
    61     7    57    1
    62     7    58    1
    63    10    59    1
    64    10    60    1
    65    10    61    1
    66    12    62    1
    67    12    63    1
    68    15    64    1
    69    15    65    1
    70    15    66    1
    71    21    67    1
    72    21    68    1
    73    21    69    1
    74    23    70    1
    75    23    71    1
    76    24    72    1
    77    24    73    1
    78    26    74    1
    79    26    75    1
    80    26    76    1
    81    27    77    1
    82    28    78    1
    83    28    79    1
    84    29    80    1
    85    32    81    1
    86    32    82    1
    87    32    83    1
    88    33    84    1
    89    33    85    1
    90    34    86    1
    91    34    87    1
    92    38    88    1
    93    38    89    1
    94    38    90    1
    95    40    91    1
    96    42    92    1
    97    42    93    1
    98    42    94    1
    99    43    95    1
   100    46    96    1
   101    46    97    1
   102    46    98    1
   103    47    99    1
   104    47   100    1
   105    48   101    1
   106    48   102    1
