REMARK  Name = NuBBE_2010
REMARK  11 active torsions:
REMARK  status: ('A' for Active; 'I' for Inactive)
REMARK    1  A    between atoms: O_1  and  C_2
REMARK    2  A    between atoms: C_4  and  C_5
REMARK    3  A    between atoms: C_6  and  C_12
REMARK    4  A    between atoms: C_21  and  C_42
REMARK    5  A    between atoms: C_22  and  O_41
REMARK    6  A    between atoms: C_29  and  C_40
REMARK    7  A    between atoms: C_30  and  C_32
REMARK    8  A    between atoms: C_32  and  C_34
REMARK    9  A    between atoms: C_32  and  O_38
REMARK   10  A    between atoms: C_34  and  O_36
REMARK   11  A    between atoms: O_36  and  C_37
REMARK                            x       y       z     vdW  Elec       q    Type
REMARK                         _______ _______ _______ _____ _____    ______ ____
ROOT
ATOM      1  C   LIG A   1      -1.237   0.682   0.101  0.00  0.00    +0.108 C 
ATOM      2  C   LIG A   1      -1.318   0.704  -1.423  0.00  0.00    +0.119 C 
ATOM      3  C   LIG A   1      -1.456  -0.821  -1.971  0.00  0.00    +0.042 C 
ATOM      4  C   LIG A   1      -0.980  -0.843  -3.441  0.00  0.00    +0.018 C 
ATOM      5  C   LIG A   1      -2.975  -1.215  -1.864  0.00  0.00    +0.218 C 
ATOM      6  O   LIG A   1      -3.833  -0.266  -2.511  0.00  0.00    -0.456 OA
ATOM      7  C   LIG A   1      -3.781   1.015  -2.116  0.00  0.00    +0.311 C 
ATOM      8  O   LIG A   1      -4.788   1.717  -2.072  0.00  0.00    -0.251 OA
ATOM      9  C   LIG A   1      -2.414   1.601  -2.005  0.00  0.00    +0.159 C 
ATOM     10  C   LIG A   1      -0.610  -1.950  -1.179  0.00  0.00    +0.014 C 
ATOM     11  C   LIG A   1      -0.453  -1.749   0.371  0.00  0.00    +0.008 C 
ATOM     12  C   LIG A   1      -0.082  -0.296   0.553  0.00  0.00    +0.033 C 
ATOM     13  C   LIG A   1       1.173   0.502   1.031  0.00  0.00    +0.009 C 
ATOM     14  C   LIG A   1       0.141   1.720   1.601  0.00  0.00    +0.081 C 
ATOM     15  C   LIG A   1      -0.715   2.051   0.439  0.00  0.00    +0.092 C 
ATOM     16  C   LIG A   1       0.199   2.470  -0.701  0.00  0.00    +0.194 C 
ATOM     17  O   LIG A   1      -0.051   1.446  -1.731  0.00  0.00    -0.358 OA
ATOM     18  C   LIG A   1       1.730   2.917  -0.136  0.00  0.00    +0.169 C 
ATOM     19  O   LIG A   1       2.513   3.494  -0.886  0.00  0.00    -0.294 OA
ATOM     20  C   LIG A   1       2.158   2.591   1.455  0.00  0.00    +0.038 C 
ATOM     21  C   LIG A   1       2.220   1.039   2.006  0.00  0.00    +0.051 C 
ATOM     22  C   LIG A   1       0.867   2.945   2.113  0.00  0.00    +0.050 C 
ATOM     23  C   LIG A   1       3.295   3.473   1.942  0.00  0.00    +0.019 C 
ATOM     24  C   LIG A   1       2.198   0.293  -0.235  0.00  0.00    +0.015 C 
ENDROOT
BRANCH   5  25
ATOM     25  C   LIG A   1      -3.332  -2.587  -2.395  0.00  0.00    +0.031 A 
ATOM     26  C   LIG A   1      -3.388  -3.818  -1.671  0.00  0.00    +0.048 A 
ATOM     27  C   LIG A   1      -3.771  -4.787  -2.566  0.00  0.00    +0.195 A 
ATOM     28  O   LIG A   1      -3.993  -4.241  -3.786  0.00  0.00    -0.471 OA
ATOM     29  C   LIG A   1      -3.744  -2.912  -3.675  0.00  0.00    +0.202 A 
ENDBRANCH   5  25
BRANCH   1  30
ATOM     30  O   LIG A   1      -2.464   0.394   0.732  0.00  0.00    -0.385 OA
ATOM     31  H   LIG A   1      -2.280   0.378   1.695  0.00  0.00    +0.210 HD
ENDBRANCH   1  30
BRANCH  14  32
ATOM     32  O   LIG A   1      -0.677   1.217   2.676  0.00  0.00    -0.388 OA
ATOM     33  H   LIG A   1      -1.118   1.974   3.110  0.00  0.00    +0.210 HD
ENDBRANCH  14  32
BRANCH  21  34
ATOM     34  C   LIG A   1       3.642   0.432   2.222  0.00  0.00    +0.227 C 
BRANCH  34  35
ATOM     35  C   LIG A   1       3.551  -1.050   2.599  0.00  0.00    +0.336 C 
ATOM     36  O   LIG A   1       4.273  -1.914   2.117  0.00  0.00    -0.248 OA
BRANCH  35  37
ATOM     37  O   LIG A   1       2.577  -1.250   3.522  0.00  0.00    -0.466 OA
ATOM     38  C   LIG A   1       2.136  -2.598   3.665  0.00  0.00    +0.280 C 
ENDBRANCH  35  37
ENDBRANCH  34  35
BRANCH  34  39
ATOM     39  O   LIG A   1       4.551   0.645   1.153  0.00  0.00    -0.380 OA
ATOM     40  H   LIG A   1       5.169  -0.114   1.143  0.00  0.00    +0.210 HD
ENDBRANCH  34  39
ENDBRANCH  21  34
TORSDOF 7
