REMARK  Name = NuBBE_110
REMARK  19 active torsions:
REMARK  status: ('A' for Active; 'I' for Inactive)
REMARK    1  A    between atoms: C_2  and  C_3
REMARK    2  A    between atoms: C_2  and  O_41
REMARK    3  A    between atoms: C_6  and  O_24
REMARK    4  A    between atoms: C_8  and  C_17
REMARK    5  A    between atoms: C_10  and  C_12
REMARK    6  A    between atoms: C_12  and  C_13
REMARK    7  A    between atoms: C_13  and  O_14
REMARK    8  A    between atoms: O_14  and  C_15
REMARK    9  A    between atoms: C_17  and  C_19
REMARK   10  A    between atoms: C_17  and  O_20
REMARK   11  A    between atoms: O_20  and  C_21
REMARK   12  A    between atoms: C_21  and  C_22
REMARK   13  A    between atoms: O_24  and  C_25
REMARK   14  A    between atoms: C_28  and  C_36
REMARK   15  A    between atoms: C_30  and  O_35
REMARK   16  A    between atoms: C_32  and  O_34
REMARK   17  A    between atoms: C_36  and  O_37
REMARK   18  A    between atoms: C_38  and  O_40
REMARK   19  A    between atoms: O_41  and  C_42
REMARK                            x       y       z     vdW  Elec       q    Type
REMARK                         _______ _______ _______ _____ _____    ______ ____
ROOT
ATOM      1  C   LIG A   1       0.023   0.993   0.592  0.00  0.00    +0.075 C 
ATOM      2  C   LIG A   1      -1.264   0.856   0.956  0.00  0.00    +0.201 C 
ATOM      3  O   LIG A   1      -1.888  -0.287   1.391  0.00  0.00    -0.470 OA
ATOM      4  C   LIG A   1      -1.130  -1.484   1.230  0.00  0.00    +0.316 C 
ATOM      5  C   LIG A   1       0.313  -1.171   1.755  0.00  0.00    +0.106 C 
ATOM      6  C   LIG A   1       0.975  -0.216   0.670  0.00  0.00    +0.052 C 
ENDROOT
BRANCH   1   8
ATOM      7  O   LIG A   1      -0.581   3.178  -0.231  0.00  0.00    -0.245 OA
ATOM      8  C   LIG A   1       0.271   2.323  -0.034  0.00  0.00    +0.338 C 
BRANCH   8   9
ATOM      9  O   LIG A   1       1.507   2.295  -0.537  0.00  0.00    -0.465 OA
ATOM     10  C   LIG A   1       1.786   3.074  -1.685  0.00  0.00    +0.280 C 
ENDBRANCH   8   9
ENDBRANCH   1   8
BRANCH   5  11
ATOM     11  C   LIG A   1       0.307  -0.616   3.285  0.00  0.00    +0.183 C 
ATOM     12  C   LIG A   1      -0.668   0.497   3.729  0.00  0.00    +0.052 C 
BRANCH  11  13
ATOM     13  O   LIG A   1       1.627  -0.350   3.877  0.00  0.00    -0.461 OA
BRANCH  13  14
ATOM     14  C   LIG A   1       2.164   0.912   3.838  0.00  0.00    +0.304 C 
ATOM     15  C   LIG A   1       3.407   1.012   4.672  0.00  0.00    +0.136 C 
ATOM     16  O   LIG A   1       1.736   1.837   3.162  0.00  0.00    -0.251 OA
ENDBRANCH  13  14
ENDBRANCH  11  13
ENDBRANCH   5  11
BRANCH   6  17
ATOM     17  C   LIG A   1       2.513  -0.236   0.920  0.00  0.00    +0.129 C 
BRANCH  17  18
ATOM     18  C   LIG A   1       3.520   0.720   0.331  0.00  0.00    +0.307 C 
ATOM     19  O   LIG A   1       3.620   1.888   0.756  0.00  0.00    -0.251 OA
BRANCH  18  20
ATOM     20  O   LIG A   1       4.409   0.169  -0.525  0.00  0.00    -0.468 OA
ATOM     21  C   LIG A   1       5.336   1.134  -1.069  0.00  0.00    +0.280 C 
ENDBRANCH  18  20
ENDBRANCH  17  18
ENDBRANCH   6  17
BRANCH   4  22
ATOM     22  O   LIG A   1      -1.136  -1.917  -0.159  0.00  0.00    -0.309 OA
BRANCH  22  23
ATOM     23  C   LIG A   1      -2.423  -2.282  -0.720  0.00  0.00    +0.286 C 
ATOM     24  O   LIG A   1      -2.216  -2.821  -2.071  0.00  0.00    -0.340 OA
ATOM     25  C   LIG A   1      -2.822  -2.050  -3.143  0.00  0.00    +0.178 C 
ATOM     26  C   LIG A   1      -2.385  -0.606  -2.950  0.00  0.00    +0.177 C 
ATOM     27  C   LIG A   1      -3.227  -0.062  -1.804  0.00  0.00    +0.179 C 
ATOM     28  C   LIG A   1      -3.481  -1.130  -0.705  0.00  0.00    +0.201 C 
BRANCH  27  29
ATOM     29  O   LIG A   1      -2.640   1.157  -1.375  0.00  0.00    -0.386 OA
ATOM     30  H   LIG A   1      -1.680   1.026  -1.350  0.00  0.00    +0.210 HD
ENDBRANCH  27  29
BRANCH  26  31
ATOM     31  O   LIG A   1      -2.555   0.246  -4.076  0.00  0.00    -0.387 OA
ATOM     32  H   LIG A   1      -2.275   1.137  -3.787  0.00  0.00    +0.210 HD
ENDBRANCH  26  31
BRANCH  28  33
ATOM     33  O   LIG A   1      -4.793  -1.707  -0.900  0.00  0.00    -0.384 OA
ATOM     34  H   LIG A   1      -5.428  -1.022  -0.620  0.00  0.00    +0.210 HD
ENDBRANCH  28  33
BRANCH  25  35
ATOM     35  C   LIG A   1      -2.418  -2.593  -4.514  0.00  0.00    +0.190 C 
BRANCH  35  36
ATOM     36  O   LIG A   1      -1.009  -2.501  -4.698  0.00  0.00    -0.392 OA
ATOM     37  H   LIG A   1      -0.622  -2.678  -3.822  0.00  0.00    +0.209 HD
ENDBRANCH  35  36
ENDBRANCH  25  35
ENDBRANCH  22  23
ENDBRANCH   4  22
TORSDOF 15
