@<TRIPOS>MOLECULE
NuBBE_114
 52 54 0 0 0
SMALL
GASTEIGER

@<TRIPOS>ATOM
      1 O          -2.4292   -2.6675   -2.8270 O.3     1  LIG1       -0.3883
      2 C          -2.5432   -1.3125   -2.3776 C.3     1  LIG1        0.0927
      3 H          -3.6125   -1.1013   -2.2623 H       1  LIG1        0.0629
      4 C          -1.7446   -1.1275   -1.0534 C.3     1  LIG1        0.0348
      5 C          -0.5485   -0.2275   -1.4480 C.3     1  LIG1        0.0545
      6 C           0.0553    0.5484   -0.2632 C.3     1  LIG1        0.2106
      7 H           0.7113    1.3211   -0.6787 H       1  LIG1        0.1062
      8 O          -0.9234    1.2255    0.5291 O.2     1  LIG1       -0.4699
      9 C          -2.1105    0.5857    0.7219 C.2     1  LIG1        0.0982
     10 C          -2.5529   -0.4877    0.0525 C.2     1  LIG1        0.0771
     11 C          -3.8913   -1.0520    0.3818 C.2     1  LIG1        0.3382
     12 O          -4.6797   -0.0907    0.9334 O.3     1  LIG1       -0.4646
     13 C          -6.0429   -0.4594    1.1431 C.3     1  LIG1        0.0820
     14 O          -4.2350   -2.1827    0.1017 O.2     1  LIG1       -0.2452
     15 O           0.9211   -0.3127    0.5124 O.3     1  LIG1       -0.3093
     16 C           1.4660    0.3946    1.6400 C.3     1  LIG1        0.1918
     17 H           0.6241    0.8370    2.1843 H       1  LIG1        0.0939
     18 O           2.2563    1.5109    1.2178 O.3     1  LIG1       -0.3404
     19 C           3.6494    1.3094    0.9739 C.3     1  LIG1        0.1130
     20 H           4.0617    2.3271    0.9794 H       1  LIG1        0.0647
     21 C           4.3280    0.5538    2.1234 C.3     1  LIG1        0.1119
     22 H           5.3898    0.3980    1.9050 H       1  LIG1        0.0647
     23 C           3.6363   -0.7773    2.4398 C.3     1  LIG1        0.1141
     24 H           4.0672   -1.1474    3.3793 H       1  LIG1        0.0648
     25 O           3.9071   -1.7928    1.4810 O.3     1  LIG1       -0.3864
     26 O           4.2434    1.3766    3.3114 O.3     1  LIG1       -0.3865
     27 C           3.9541    0.7658   -0.4306 C.3     1  LIG1        0.0730
     28 O           3.3710   -0.5040   -0.6865 O.3     1  LIG1       -0.3924
     29 C           2.1356   -0.5547    2.6725 C.3     1  LIG1        0.1342
     30 H           1.6118   -1.5169    2.6779 H       1  LIG1        0.0671
     31 O           1.9683    0.0162    3.9924 O.3     1  LIG1       -0.3841
     32 H           0.2359   -0.8684   -1.8776 H       1  LIG1        0.0414
     33 H          -1.3745   -2.0936   -0.6853 H       1  LIG1        0.0386
     34 C          -1.9073   -0.3786   -3.4236 C.3     1  LIG1        0.1029
     35 H          -1.2310   -0.9364   -4.0830 H       1  LIG1        0.0666
     36 C          -1.1334    0.5958   -2.5883 C.2     1  LIG1       -0.0364
     37 C          -1.0984    1.9287   -2.7407 C.2     1  LIG1       -0.0965
     38 O          -2.8956    0.2380   -4.2285 O.3     1  LIG1       -0.3849
     39 H          -3.0349   -2.7526   -3.5866 H       1  LIG1        0.2099
     40 H          -2.6699    1.1009    1.4955 H       1  LIG1        0.1029
     41 H          -6.4639    0.2273    1.8836 H       1  LIG1        0.0661
     42 H          -6.1422   -1.4794    1.5241 H       1  LIG1        0.0661
     43 H          -6.5957   -0.3393    0.2069 H       1  LIG1        0.0661
     44 H           3.4997   -1.5487    0.6234 H       1  LIG1        0.2100
     45 H           4.7386    2.1988    3.1415 H       1  LIG1        0.2100
     46 H           3.5871    1.4583   -1.1956 H       1  LIG1        0.0584
     47 H           5.0373    0.6673   -0.5623 H       1  LIG1        0.0584
     48 H           2.4112   -0.3604   -0.7938 H       1  LIG1        0.2095
     49 H           2.6300    0.7386    4.0680 H       1  LIG1        0.2101
     50 H          -1.6294    2.4240   -3.5478 H       1  LIG1        0.0535
     51 H          -0.5862    2.5845   -2.0438 H       1  LIG1        0.0535
     52 H          -2.4213    0.7403   -4.9126 H       1  LIG1        0.2103
@<TRIPOS>BOND
     1     2     4    1
     2     4     5    1
     3     5     6    1
     4     6     8    1
     5     8     9    1
     6     9    10    2
     7    11    12    1
     8    12    13    1
     9    11    14    2
    10    15    16    1
    11    16    17    1
    12    16    18    1
    13    18    19    1
    14    19    21    1
    15    21    22    1
    16    21    23    1
    17    21    26    1
    18    27    28    1
    19    16    29    1
    20    23    29    1
    21    10     4    1
    22     2    34    1
    23    34    36    1
    24     5    36    1
    25     4    33    1
    26     5    32    1
    27     6     7    1
    28     6    15    1
    29    10    11    1
    30    36    37    2
    31     2     3    1
    32     2     1    1
    33    19    27    1
    34    19    20    1
    35    23    25    1
    36    23    24    1
    37    29    31    1
    38    29    30    1
    39    34    38    1
    40    34    35    1
    41     1    39    1
    42     9    40    1
    43    13    41    1
    44    13    42    1
    45    13    43    1
    46    25    44    1
    47    26    45    1
    48    27    46    1
    49    27    47    1
    50    28    48    1
    51    31    49    1
    52    37    50    1
    53    37    51    1
    54    38    52    1
