REMARK  Name = NuBBE_220
REMARK  7 active torsions:
REMARK  status: ('A' for Active; 'I' for Inactive)
REMARK    1  A    between atoms: O_1  and  C_2
REMARK    2  A    between atoms: C_6  and  C_7
REMARK    3  A    between atoms: C_7  and  C_8
REMARK    4  A    between atoms: C_7  and  C_10
REMARK    5  A    between atoms: C_8  and  O_9
REMARK    6  A    between atoms: C_13  and  C_14
REMARK    7  A    between atoms: C_16  and  C_17
REMARK                            x       y       z     vdW  Elec       q    Type
REMARK                         _______ _______ _______ _____ _____    ______ ____
ROOT
ATOM      1  C   LIG A   1      -2.981  -0.356  -0.461  0.00  0.00    +0.120 A 
ATOM      2  C   LIG A   1      -2.129  -1.449  -0.333  0.00  0.00    +0.054 A 
ATOM      3  C   LIG A   1      -0.733  -1.291  -0.187  0.00  0.00    -0.011 A 
ATOM      4  C   LIG A   1      -0.186   0.028  -0.164  0.00  0.00    -0.014 A 
ATOM      5  C   LIG A   1       1.228   0.196  -0.021  0.00  0.00    -0.035 A 
ATOM      6  C   LIG A   1       2.040  -0.944   0.113  0.00  0.00    +0.005 A 
ATOM      7  C   LIG A   1       1.501  -2.224   0.087  0.00  0.00    +0.004 A 
ATOM      8  C   LIG A   1       0.126  -2.413  -0.064  0.00  0.00    -0.043 A 
ATOM      9  C   LIG A   1      -0.389  -3.831  -0.090  0.00  0.00    +0.044 C 
ATOM     10  C   LIG A   1      -1.095   1.112  -0.288  0.00  0.00    +0.015 A 
ATOM     11  C   LIG A   1      -2.478   0.937  -0.448  0.00  0.00    -0.008 A 
ATOM     12  C   LIG A   1      -3.391   2.118  -0.603  0.00  0.00    +0.048 C 
ENDROOT
BRANCH   1  13
ATOM     13  O   LIG A   1      -4.327  -0.539  -0.599  0.00  0.00    -0.506 OA
ATOM     14  H   LIG A   1      -4.522  -1.488  -0.564  0.00  0.00    +0.292 HD
ENDBRANCH   1  13
BRANCH   5  15
ATOM     15  C   LIG A   1       1.892   1.580   0.030  0.00  0.00    +0.042 C 
ATOM     16  C   LIG A   1       3.278   1.639  -0.634  0.00  0.00    +0.014 C 
BRANCH  15  17
ATOM     17  C   LIG A   1       1.953   2.116   1.473  0.00  0.00    +0.163 C 
BRANCH  17  18
ATOM     18  O   LIG A   1       2.796   1.328   2.308  0.00  0.00    -0.394 OA
ATOM     19  H   LIG A   1       2.344   0.473   2.433  0.00  0.00    +0.209 HD
ENDBRANCH  17  18
ENDBRANCH  15  17
ENDBRANCH   5  15
TORSDOF 4
