REMARK  Name = NuBBE_211
REMARK  20 active torsions:
REMARK  status: ('A' for Active; 'I' for Inactive)
REMARK    1  A    between atoms: O_1  and  C_2
REMARK    2  A    between atoms: C_5  and  C_6
REMARK    3  A    between atoms: C_7  and  C_8
REMARK    4  A    between atoms: C_8  and  O_9
REMARK    5  A    between atoms: O_9  and  C_10
REMARK    6  A    between atoms: C_12  and  C_14
REMARK    7  A    between atoms: C_17  and  C_19
REMARK    8  A    between atoms: C_19  and  C_20
REMARK    9  A    between atoms: C_20  and  C_21
REMARK   10  A    between atoms: C_21  and  C_22
REMARK   11  A    between atoms: C_22  and  C_23
REMARK   12  A    between atoms: C_23  and  C_24
REMARK   13  A    between atoms: C_24  and  C_25
REMARK   14  A    between atoms: C_25  and  C_26
REMARK   15  A    between atoms: C_26  and  C_27
REMARK   16  A    between atoms: C_27  and  C_28
REMARK   17  A    between atoms: C_28  and  C_29
REMARK   18  A    between atoms: C_29  and  C_30
REMARK   19  A    between atoms: C_36  and  O_37
REMARK   20  A    between atoms: O_37  and  C_38
REMARK                            x       y       z     vdW  Elec       q    Type
REMARK                         _______ _______ _______ _____ _____    ______ ____
ROOT
ATOM      1  C   LIG A   1      -3.046  -0.595   4.485  0.00  0.00    +0.193 C 
ATOM      2  C   LIG A   1      -3.662   0.587   3.687  0.00  0.00    +0.092 C 
ATOM      3  C   LIG A   1      -3.567   1.950   4.373  0.00  0.00    +0.028 C 
ATOM      4  N   LIG A   1      -3.008   0.714   2.382  0.00  0.00    -0.307 NA
ATOM      5  H   LIG A   1      -2.030   0.922   2.575  0.00  0.00    +0.123 HD
ATOM      6  C   LIG A   1      -3.100  -0.503   1.557  0.00  0.00    +0.054 C 
ATOM      7  C   LIG A   1      -2.834  -1.836   2.289  0.00  0.00    +0.022 C 
ATOM      8  C   LIG A   1      -3.425  -1.869   3.694  0.00  0.00    +0.048 C 
ENDROOT
BRANCH   1   9
ATOM      9  O   LIG A   1      -1.596  -0.509   4.526  0.00  0.00    -0.457 OA
BRANCH   9  10
ATOM     10  C   LIG A   1      -1.015   0.548   5.145  0.00  0.00    +0.332 C 
ATOM     11  O   LIG A   1      -1.465   1.182   6.090  0.00  0.00    -0.246 OA
BRANCH  10  13
ATOM     12  C   LIG A   1       0.741   0.298   3.408  0.00  0.00    +0.015 C 
ATOM     13  C   LIG A   1       0.160   1.024   4.374  0.00  0.00    +0.092 C 
BRANCH  12  17
ATOM     14  C   LIG A   1       3.393   1.831   0.389  0.00  0.00    +0.159 A 
ATOM     15  C   LIG A   1       2.481   2.670   1.026  0.00  0.00    +0.050 A 
ATOM     16  C   LIG A   1       1.656   2.172   2.033  0.00  0.00    +0.012 A 
ATOM     17  C   LIG A   1       1.741   0.832   2.452  0.00  0.00    -0.021 A 
ATOM     18  C   LIG A   1       2.612  -0.028   1.746  0.00  0.00    +0.057 A 
ATOM     19  C   LIG A   1       3.425   0.458   0.687  0.00  0.00    +0.162 A 
BRANCH  19  20
ATOM     20  O   LIG A   1       4.028  -0.521  -0.077  0.00  0.00    -0.491 OA
ATOM     21  C   LIG A   1       4.832  -0.094  -1.180  0.00  0.00    +0.277 C 
ENDBRANCH  19  20
BRANCH  14  22
ATOM     22  O   LIG A   1       4.136   2.371  -0.629  0.00  0.00    -0.503 OA
ATOM     23  H   LIG A   1       3.763   3.226  -0.900  0.00  0.00    +0.292 HD
ENDBRANCH  14  22
ENDBRANCH  12  17
ENDBRANCH  10  13
ENDBRANCH   9  10
ENDBRANCH   1   9
BRANCH   6  24
ATOM     24  C   LIG A   1      -2.143  -0.358   0.375  0.00  0.00    +0.019 C 
BRANCH  24  25
ATOM     25  C   LIG A   1      -0.718  -0.215   0.847  0.00  0.00    +0.002 C 
BRANCH  25  26
ATOM     26  C   LIG A   1       0.221  -0.112  -0.290  0.00  0.00    +0.000 C 
BRANCH  26  27
ATOM     27  C   LIG A   1       0.143   1.157  -1.082  0.00  0.00    -0.000 C 
BRANCH  27  28
ATOM     28  C   LIG A   1       1.304   1.271  -2.060  0.00  0.00    -0.000 C 
BRANCH  28  29
ATOM     29  C   LIG A   1       1.606   0.147  -3.050  0.00  0.00    -0.000 C 
BRANCH  29  30
ATOM     30  C   LIG A   1       1.724  -1.324  -2.592  0.00  0.00    +0.000 C 
BRANCH  30  31
ATOM     31  C   LIG A   1       1.835  -2.454  -3.615  0.00  0.00    +0.000 C 
BRANCH  31  32
ATOM     32  C   LIG A   1       0.627  -2.756  -4.523  0.00  0.00    +0.007 C 
BRANCH  32  33
ATOM     33  C   LIG A   1       0.245  -1.700  -5.572  0.00  0.00    +0.074 C 
BRANCH  33  34
ATOM     34  C   LIG A   1      -0.601  -0.607  -4.905  0.00  0.00    +0.130 C 
ATOM     35  C   LIG A   1      -1.091   0.568  -5.722  0.00  0.00    +0.086 C 
ATOM     36  O   LIG A   1      -0.972  -0.702  -3.788  0.00  0.00    -0.298 OA
ENDBRANCH  33  34
ENDBRANCH  32  33
ENDBRANCH  31  32
ENDBRANCH  30  31
ENDBRANCH  29  30
ENDBRANCH  28  29
ENDBRANCH  27  28
ENDBRANCH  26  27
ENDBRANCH  25  26
ENDBRANCH  24  25
ENDBRANCH   6  24
TORSDOF 17
