REMARK  Name = NuBBE_2423
REMARK  30 active torsions:
REMARK  status: ('A' for Active; 'I' for Inactive)
REMARK    1  A    between atoms: C_1  and  C_30
REMARK    2  A    between atoms: C_2  and  C_3
REMARK    3  A    between atoms: C_3  and  O_5
REMARK    4  A    between atoms: O_5  and  C_6
REMARK    5  A    between atoms: C_6  and  C_7
REMARK    6  A    between atoms: C_7  and  C_8
REMARK    7  A    between atoms: C_8  and  C_9
REMARK    8  A    between atoms: C_9  and  C_10
REMARK    9  A    between atoms: C_10  and  C_11
REMARK   10  A    between atoms: C_11  and  C_12
REMARK   11  A    between atoms: C_12  and  C_13
REMARK   12  A    between atoms: C_13  and  C_14
REMARK   13  A    between atoms: C_14  and  C_15
REMARK   14  A    between atoms: C_15  and  C_16
REMARK   15  A    between atoms: C_16  and  C_17
REMARK   16  A    between atoms: C_17  and  C_18
REMARK   17  A    between atoms: C_18  and  C_19
REMARK   18  A    between atoms: C_19  and  C_20
REMARK   19  A    between atoms: C_20  and  C_21
REMARK   20  A    between atoms: C_21  and  C_22
REMARK   21  A    between atoms: C_22  and  C_23
REMARK   22  A    between atoms: C_23  and  C_24
REMARK   23  A    between atoms: C_24  and  C_25
REMARK   24  A    between atoms: C_25  and  C_26
REMARK   25  A    between atoms: C_26  and  C_27
REMARK   26  A    between atoms: C_27  and  C_28
REMARK   27  A    between atoms: C_28  and  C_29
REMARK   28  A    between atoms: C_32  and  O_33
REMARK   29  A    between atoms: O_33  and  C_34
REMARK   30  A    between atoms: C_35  and  O_38
REMARK                            x       y       z     vdW  Elec       q    Type
REMARK                         _______ _______ _______ _____ _____    ______ ____
ROOT
ATOM      1  C   LIG A   1       2.815  -4.769   3.017  0.00  0.00    -0.000 C 
ENDROOT
BRANCH   1   2
ATOM      2  C   LIG A   1       2.017  -3.474   3.275  0.00  0.00    -0.000 C 
BRANCH   2   3
ATOM      3  C   LIG A   1       0.491  -3.499   3.098  0.00  0.00    -0.000 C 
BRANCH   3   4
ATOM      4  C   LIG A   1      -0.106  -2.126   3.475  0.00  0.00    -0.000 C 
BRANCH   4   5
ATOM      5  C   LIG A   1      -1.626  -2.070   3.296  0.00  0.00    -0.000 C 
BRANCH   5   6
ATOM      6  C   LIG A   1      -2.171  -0.686   3.662  0.00  0.00    -0.000 C 
BRANCH   6   7
ATOM      7  C   LIG A   1      -3.685  -0.586   3.458  0.00  0.00    -0.000 C 
BRANCH   7   8
ATOM      8  C   LIG A   1      -4.248   0.789   3.851  0.00  0.00    -0.000 C 
BRANCH   8   9
ATOM      9  C   LIG A   1      -3.669   1.955   3.032  0.00  0.00    -0.000 C 
BRANCH   9  10
ATOM     10  C   LIG A   1      -4.226   3.312   3.484  0.00  0.00    -0.000 C 
BRANCH  10  11
ATOM     11  C   LIG A   1      -3.638   4.490   2.683  0.00  0.00    -0.000 C 
BRANCH  11  12
ATOM     12  C   LIG A   1      -4.210   5.836   3.157  0.00  0.00    -0.000 C 
BRANCH  12  13
ATOM     13  C   LIG A   1      -3.681   7.052   2.373  0.00  0.00    -0.000 C 
BRANCH  13  14
ATOM     14  C   LIG A   1      -4.313   8.355   2.896  0.00  0.00    -0.000 C 
BRANCH  14  15
ATOM     15  C   LIG A   1      -3.825   9.606   2.155  0.00  0.00    -0.000 C 
BRANCH  15  16
ATOM     16  C   LIG A   1      -4.507  10.878   2.688  0.00  0.00    -0.000 C 
BRANCH  16  17
ATOM     17  C   LIG A   1      -4.051  12.166   1.987  0.00  0.00    -0.000 C 
BRANCH  17  18
ATOM     18  C   LIG A   1      -4.377  12.161   0.492  0.00  0.00    -0.000 C 
BRANCH  18  19
ATOM     19  C   LIG A   1      -3.946  13.446  -0.209  0.00  0.00    -0.003 C 
ATOM     20  C   LIG A   1      -4.273  13.380  -1.694  0.00  0.00    +0.004 C 
ENDBRANCH  18  19
ENDBRANCH  17  18
ENDBRANCH  16  17
ENDBRANCH  15  16
ENDBRANCH  14  15
ENDBRANCH  13  14
ENDBRANCH  12  13
ENDBRANCH  11  12
ENDBRANCH  10  11
ENDBRANCH   9  10
ENDBRANCH   8   9
ENDBRANCH   7   8
ENDBRANCH   6   7
ENDBRANCH   5   6
ENDBRANCH   4   5
ENDBRANCH   3   4
ENDBRANCH   2   3
ENDBRANCH   1   2
BRANCH   1  21
ATOM     21  C   LIG A   1       2.897  -5.272   1.562  0.00  0.00    +0.000 C 
BRANCH  21  22
ATOM     22  C   LIG A   1       3.794  -6.528   1.426  0.00  0.00    +0.003 C 
BRANCH  22  23
ATOM     23  C   LIG A   1       3.891  -7.148   0.014  0.00  0.00    +0.041 C 
BRANCH  23  24
ATOM     24  C   LIG A   1       4.234  -6.165  -1.105  0.00  0.00    +0.232 C 
BRANCH  24  25
ATOM     25  O   LIG A   1       4.319  -6.828  -2.385  0.00  0.00    -0.462 OA
BRANCH  25  26
ATOM     26  C   LIG A   1       5.486  -7.350  -2.724  0.00  0.00    +0.332 C 
ATOM     27  O   LIG A   1       6.477  -7.424  -1.994  0.00  0.00    -0.246 OA
BRANCH  26  29
ATOM     28  C   LIG A   1       4.566  -7.630  -5.025  0.00  0.00    +0.015 C 
ATOM     29  C   LIG A   1       5.516  -7.855  -4.097  0.00  0.00    +0.092 C 
BRANCH  28  30
ATOM     30  C   LIG A   1       4.582  -8.195  -6.387  0.00  0.00    -0.021 A 
ATOM     31  C   LIG A   1       5.772  -8.533  -7.050  0.00  0.00    +0.057 A 
ATOM     32  C   LIG A   1       5.758  -9.130  -8.314  0.00  0.00    +0.162 A 
ATOM     33  C   LIG A   1       4.526  -9.361  -8.933  0.00  0.00    +0.159 A 
ATOM     34  C   LIG A   1       3.335  -8.996  -8.315  0.00  0.00    +0.050 A 
ATOM     35  C   LIG A   1       3.365  -8.401  -7.051  0.00  0.00    +0.012 A 
BRANCH  33  36
ATOM     36  O   LIG A   1       4.446  -9.940 -10.170  0.00  0.00    -0.503 OA
ATOM     37  H   LIG A   1       5.368 -10.042 -10.475  0.00  0.00    +0.292 HD
ENDBRANCH  33  36
BRANCH  32  38
ATOM     38  O   LIG A   1       6.881  -9.520  -9.006  0.00  0.00    -0.491 OA
ATOM     39  C   LIG A   1       8.123  -9.281  -8.339  0.00  0.00    +0.277 C 
ENDBRANCH  32  38
ENDBRANCH  28  30
ENDBRANCH  26  29
ENDBRANCH  25  26
ENDBRANCH  24  25
ENDBRANCH  23  24
ENDBRANCH  22  23
ENDBRANCH  21  22
ENDBRANCH   1  21
TORSDOF 28
