REMARK  Name = NuBBE_249
REMARK  12 active torsions:
REMARK  status: ('A' for Active; 'I' for Inactive)
REMARK    1  A    between atoms: O_1  and  C_2
REMARK    2  A    between atoms: C_2  and  C_3
REMARK    3  A    between atoms: C_5  and  C_6
REMARK    4  A    between atoms: C_6  and  C_7
REMARK    5  A    between atoms: C_8  and  C_9
REMARK    6  A    between atoms: C_8  and  C_10
REMARK    7  A    between atoms: C_13  and  C_14
REMARK    8  A    between atoms: C_13  and  C_20
REMARK    9  A    between atoms: C_14  and  C_15
REMARK   10  A    between atoms: C_15  and  C_16
REMARK   11  A    between atoms: C_17  and  C_18
REMARK   12  A    between atoms: C_17  and  C_19
REMARK                            x       y       z     vdW  Elec       q    Type
REMARK                         _______ _______ _______ _____ _____    ______ ____
ROOT
ATOM      1  C   LIG A   1      -0.810  -2.896  -2.052  0.00  0.00    +0.060 A 
ATOM      2  C   LIG A   1      -1.166  -1.551  -2.217  0.00  0.00    +0.022 A 
ATOM      3  C   LIG A   1      -0.501  -0.541  -1.497  0.00  0.00    -0.001 A 
ATOM      4  C   LIG A   1       0.554  -0.900  -0.636  0.00  0.00    +0.132 A 
ATOM      5  O   LIG A   1       1.158   0.115   0.053  0.00  0.00    -0.481 OA
ATOM      6  C   LIG A   1       2.250  -0.177   0.952  0.00  0.00    +0.127 C 
ATOM      7  C   LIG A   1       3.425   0.669   0.437  0.00  0.00    +0.060 C 
ATOM      8  C   LIG A   1       2.691  -1.622   1.002  0.00  0.00    +0.021 C 
ATOM      9  C   LIG A   1       2.075  -2.599   0.332  0.00  0.00    +0.011 C 
ATOM     10  C   LIG A   1       0.944  -2.240  -0.508  0.00  0.00    +0.018 A 
ATOM     11  C   LIG A   1       0.255  -3.235  -1.210  0.00  0.00    +0.026 A 
ENDROOT
BRANCH   1  12
ATOM     12  C   LIG A   1      -1.492  -3.998  -2.781  0.00  0.00    +0.337 C 
ATOM     13  O   LIG A   1      -0.934  -5.037  -3.077  0.00  0.00    -0.245 OA
BRANCH  12  14
ATOM     14  O   LIG A   1      -2.797  -3.764  -3.040  0.00  0.00    -0.477 OA
ATOM     15  H   LIG A   1      -3.179  -2.986  -2.596  0.00  0.00    +0.295 HD
ENDBRANCH  12  14
ENDBRANCH   1  12
BRANCH   3  16
ATOM     16  C   LIG A   1      -0.920   0.905  -1.689  0.00  0.00    +0.066 C 
BRANCH  16  17
ATOM     17  C   LIG A   1      -0.174   1.591  -2.804  0.00  0.00    -0.023 C 
ATOM     18  C   LIG A   1      -0.669   2.161  -3.922  0.00  0.00    -0.079 C 
ATOM     19  C   LIG A   1      -2.126   2.252  -4.284  0.00  0.00    +0.038 C 
ATOM     20  C   LIG A   1       0.255   2.782  -4.941  0.00  0.00    +0.038 C 
ENDBRANCH  16  17
ENDBRANCH   3  16
BRANCH   6  21
ATOM     21  C   LIG A   1       1.837   0.300   2.368  0.00  0.00    +0.056 C 
BRANCH  21  22
ATOM     22  C   LIG A   1       0.578  -0.402   2.910  0.00  0.00    +0.031 C 
BRANCH  22  23
ATOM     23  C   LIG A   1       0.199   0.099   4.280  0.00  0.00    -0.028 C 
ATOM     24  C   LIG A   1      -0.939   0.716   4.657  0.00  0.00    -0.080 C 
ATOM     25  C   LIG A   1      -2.090   1.064   3.752  0.00  0.00    +0.038 C 
ATOM     26  C   LIG A   1      -1.154   1.121   6.094  0.00  0.00    +0.038 C 
ENDBRANCH  22  23
ENDBRANCH  21  22
ENDBRANCH   6  21
TORSDOF 7
