REMARK  Name = NuBBE_242
REMARK  12 active torsions:
REMARK  status: ('A' for Active; 'I' for Inactive)
REMARK    1  A    between atoms: O_1  and  C_2
REMARK    2  A    between atoms: C_4  and  O_5
REMARK    3  A    between atoms: C_8  and  O_10
REMARK    4  A    between atoms: O_10  and  C_11
REMARK    5  A    between atoms: C_11  and  C_12
REMARK    6  A    between atoms: C_14  and  O_15
REMARK    7  A    between atoms: C_16  and  O_17
REMARK    8  A    between atoms: C_18  and  O_19
REMARK    9  A    between atoms: C_22  and  C_24
REMARK   10  A    between atoms: C_26  and  O_27
REMARK   11  A    between atoms: C_28  and  O_29
REMARK   12  A    between atoms: C_30  and  O_31
REMARK                            x       y       z     vdW  Elec       q    Type
REMARK                         _______ _______ _______ _____ _____    ______ ____
ROOT
ATOM      1  C   LIG A   1      -2.932  -2.257   2.881  0.00  0.00    +0.124 A 
ATOM      2  C   LIG A   1      -2.614  -3.384   2.132  0.00  0.00    +0.091 A 
ATOM      3  C   LIG A   1      -1.329  -3.498   1.601  0.00  0.00    +0.127 A 
ATOM      4  C   LIG A   1      -0.376  -2.487   1.777  0.00  0.00    +0.040 A 
ATOM      5  C   LIG A   1       0.981  -2.563   1.134  0.00  0.00    +0.091 C 
ATOM      6  C   LIG A   1       1.438  -1.150   0.766  0.00  0.00    +0.226 C 
ATOM      7  C   LIG A   1       1.357  -0.270   2.035  0.00  0.00    +0.245 C 
ATOM      8  O   LIG A   1       0.084  -0.275   2.704  0.00  0.00    -0.480 OA
ATOM      9  C   LIG A   1      -0.721  -1.365   2.534  0.00  0.00    +0.132 A 
ATOM     10  C   LIG A   1      -1.989  -1.263   3.108  0.00  0.00    +0.091 A 
ENDROOT
BRANCH   7  11
ATOM     11  C   LIG A   1       1.740   1.186   1.779  0.00  0.00    +0.003 A 
ATOM     12  C   LIG A   1       0.769   2.140   1.402  0.00  0.00    +0.056 A 
ATOM     13  C   LIG A   1       1.130   3.472   1.209  0.00  0.00    +0.162 A 
ATOM     14  C   LIG A   1       2.449   3.869   1.376  0.00  0.00    +0.201 A 
ATOM     15  C   LIG A   1       3.416   2.940   1.730  0.00  0.00    +0.162 A 
ATOM     16  C   LIG A   1       3.076   1.605   1.931  0.00  0.00    +0.056 A 
BRANCH  13  17
ATOM     17  O   LIG A   1       0.217   4.430   0.863  0.00  0.00    -0.503 OA
ATOM     18  H   LIG A   1      -0.657   4.005   0.806  0.00  0.00    +0.292 HD
ENDBRANCH  13  17
BRANCH  14  19
ATOM     19  O   LIG A   1       2.812   5.179   1.205  0.00  0.00    -0.501 OA
ATOM     20  H   LIG A   1       1.969   5.633   0.996  0.00  0.00    +0.292 HD
ENDBRANCH  14  19
BRANCH  15  21
ATOM     21  O   LIG A   1       4.713   3.336   1.891  0.00  0.00    -0.503 OA
ATOM     22  H   LIG A   1       4.698   4.297   1.708  0.00  0.00    +0.292 HD
ENDBRANCH  15  21
ENDBRANCH   7  11
BRANCH   1  23
ATOM     23  O   LIG A   1      -4.185  -2.070   3.386  0.00  0.00    -0.506 OA
ATOM     24  H   LIG A   1      -4.778  -2.747   3.020  0.00  0.00    +0.292 HD
ENDBRANCH   1  23
BRANCH   3  25
ATOM     25  O   LIG A   1      -0.995  -4.592   0.852  0.00  0.00    -0.506 OA
ATOM     26  H   LIG A   1      -1.780  -5.152   0.733  0.00  0.00    +0.292 HD
ENDBRANCH   3  25
BRANCH   6  27
ATOM     27  O   LIG A   1       0.587  -0.633  -0.290  0.00  0.00    -0.453 OA
BRANCH  27  28
ATOM     28  C   LIG A   1       0.843  -1.121  -1.530  0.00  0.00    +0.340 C 
ATOM     29  O   LIG A   1       1.728  -1.896  -1.838  0.00  0.00    -0.245 OA
BRANCH  28  30
ATOM     30  C   LIG A   1      -0.080  -0.516  -2.518  0.00  0.00    +0.066 A 
ATOM     31  C   LIG A   1       0.370  -0.395  -3.845  0.00  0.00    +0.064 A 
ATOM     32  C   LIG A   1      -0.459   0.193  -4.792  0.00  0.00    +0.163 A 
ATOM     33  C   LIG A   1      -1.720   0.650  -4.427  0.00  0.00    +0.201 A 
ATOM     34  C   LIG A   1      -2.170   0.505  -3.120  0.00  0.00    +0.163 A 
ATOM     35  C   LIG A   1      -1.363  -0.082  -2.156  0.00  0.00    +0.064 A 
BRANCH  32  36
ATOM     36  O   LIG A   1      -0.077   0.348  -6.095  0.00  0.00    -0.503 OA
ATOM     37  H   LIG A   1       0.799  -0.063  -6.210  0.00  0.00    +0.292 HD
ENDBRANCH  32  36
BRANCH  33  38
ATOM     38  O   LIG A   1      -2.534   1.254  -5.348  0.00  0.00    -0.501 OA
ATOM     39  H   LIG A   1      -2.001   1.264  -6.170  0.00  0.00    +0.292 HD
ENDBRANCH  33  38
BRANCH  34  40
ATOM     40  O   LIG A   1      -3.413   0.948  -2.771  0.00  0.00    -0.503 OA
ATOM     41  H   LIG A   1      -3.779   1.333  -3.593  0.00  0.00    +0.292 HD
ENDBRANCH  34  40
ENDBRANCH  28  30
ENDBRANCH  27  28
ENDBRANCH   6  27
TORSDOF 12
