@<TRIPOS>MOLECULE
NuBBE_911
 49 50 0 0 0
SMALL
GASTEIGER

@<TRIPOS>ATOM
      1 C          -2.0065    0.9886    1.0914 C.2     1  LIG1       -0.0280
      2 C          -2.8072    1.4229    0.0992 C.2     1  LIG1        0.0991
      3 C          -4.2632    1.5744    0.5033 C.2     1  LIG1        0.2620
      4 O          -4.6026    1.6345    1.6995 O.2     1  LIG1       -0.2686
      5 N          -5.1639    1.6836   -0.5323 N.am    1  LIG1       -0.2794
      6 C          -6.5800    1.8204   -0.2390 C.3     1  LIG1        0.0050
      7 C          -4.7935    1.2709   -1.8825 C.3     1  LIG1        0.1491
      8 H          -5.4869    1.7688   -2.5704 H       1  LIG1        0.0715
      9 C          -3.3859    1.7488   -2.2471 C.2     1  LIG1        0.2505
     10 O          -3.0864    1.9889   -3.4285 O.2     1  LIG1       -0.2723
     11 N          -2.4385    1.7140   -1.2276 N.am    1  LIG1       -0.2679
     12 C          -1.0724    2.0579   -1.5962 C.3     1  LIG1        0.0085
     13 S          -4.9446   -0.5422   -2.0947 S.3     1  LIG1       -0.1325
     14 C          -4.4405   -0.6926   -3.8325 C.3     1  LIG1       -0.0159
     15 C          -0.6572    0.4181    1.0099 C.ar    1  LIG1       -0.0229
     16 C           0.2692    0.6630    2.0206 C.ar    1  LIG1       -0.0511
     17 C           1.4966    0.0022    2.0166 C.ar    1  LIG1       -0.0194
     18 C           1.8315   -0.8982    1.0003 C.ar    1  LIG1        0.1210
     19 C           0.9175   -1.1287   -0.0255 C.ar    1  LIG1       -0.0194
     20 C          -0.3349   -0.5110    0.0112 C.ar    1  LIG1       -0.0511
     21 O           3.0039   -1.6107    0.9524 O.3     1  LIG1       -0.4880
     22 C           3.8599   -1.4082    2.0778 C.3     1  LIG1        0.1080
     23 C           5.0699   -2.2750    1.9672 C.2     1  LIG1       -0.0484
     24 C           6.2580   -1.9530    1.4216 C.2     1  LIG1       -0.0765
     25 C           6.5622   -0.6688    0.6998 C.3     1  LIG1       -0.0439
     26 C           7.4031   -2.9226    1.4908 C.3     1  LIG1       -0.0439
     27 H          -2.4170    0.8988    2.1015 H       1  LIG1        0.0644
     28 H          -6.7424    2.1903    0.7772 H       1  LIG1        0.0429
     29 H          -7.0695    0.8452   -0.3354 H       1  LIG1        0.0429
     30 H          -7.0240    2.5264   -0.9438 H       1  LIG1        0.0429
     31 H          -0.5486    2.5518   -0.7739 H       1  LIG1        0.0433
     32 H          -1.0673    2.7484   -2.4461 H       1  LIG1        0.0433
     33 H          -0.5434    1.1614   -1.9264 H       1  LIG1        0.0433
     34 H          -4.6787   -1.6988   -4.1887 H       1  LIG1        0.0341
     35 H          -3.3609   -0.5539   -3.9309 H       1  LIG1        0.0341
     36 H          -4.9708    0.0277   -4.4615 H       1  LIG1        0.0341
     37 H           0.0505    1.3397    2.8433 H       1  LIG1        0.0625
     38 H           2.1638    0.2045    2.8464 H       1  LIG1        0.0654
     39 H           1.1500   -1.8062   -0.8438 H       1  LIG1        0.0654
     40 H          -1.0673   -0.7621   -0.7539 H       1  LIG1        0.0625
     41 H           3.3399   -1.6982    3.0016 H       1  LIG1        0.0742
     42 H           4.1552   -0.3557    2.1575 H       1  LIG1        0.0742
     43 H           4.9593   -3.2414    2.4561 H       1  LIG1        0.0605
     44 H           5.7006   -0.0012    0.6150 H       1  LIG1        0.0274
     45 H           6.8995   -0.8875   -0.3195 H       1  LIG1        0.0274
     46 H           7.3603   -0.1243    1.2148 H       1  LIG1        0.0274
     47 H           7.0976   -3.8900    1.9031 H       1  LIG1        0.0274
     48 H           8.1941   -2.5185    2.1304 H       1  LIG1        0.0274
     49 H           7.8113   -3.1023    0.4919 H       1  LIG1        0.0274
@<TRIPOS>BOND
     1     1     2    2
     2     2     3    1
     3     3     4    2
     4     3     5   am
     5     5     6    1
     6     5     7    1
     7     7     8    1
     8     7     9    1
     9     9    10    2
    10     9    11   am
    11     2    11    1
    12    11    12    1
    13     7    13    1
    14    13    14    1
    15     1    15    1
    16    15    16   ar
    17    16    17   ar
    18    17    18   ar
    19    18    19   ar
    20    19    20   ar
    21    15    20   ar
    22    18    21    1
    23    21    22    1
    24    22    23    1
    25    23    24    2
    26    24    25    1
    27    24    26    1
    28     1    27    1
    29     6    28    1
    30     6    29    1
    31     6    30    1
    32    12    31    1
    33    12    32    1
    34    12    33    1
    35    14    34    1
    36    14    35    1
    37    14    36    1
    38    16    37    1
    39    17    38    1
    40    19    39    1
    41    20    40    1
    42    22    41    1
    43    22    42    1
    44    23    43    1
    45    25    44    1
    46    25    45    1
    47    25    46    1
    48    26    47    1
    49    26    48    1
    50    26    49    1
