@<TRIPOS>MOLECULE
NuBBE_183
 67 67 0 0 0
SMALL
GASTEIGER

@<TRIPOS>ATOM
      1 C          -0.8532   -1.1990   -0.3637 C.3     1  LIG1       -0.0438
      2 C          -0.7555   -1.5416    1.0775 C.2     1  LIG1       -0.0759
      3 C          -0.4760   -3.0180    1.2769 C.3     1  LIG1       -0.0286
      4 C           0.4113   -3.7124    0.2093 C.3     1  LIG1       -0.0308
      5 C           1.7932   -3.1344    0.1508 C.2     1  LIG1       -0.0847
      6 C           2.9466   -3.6944   -0.2440 C.2     1  LIG1       -0.0762
      7 C           4.2677   -2.9163   -0.2815 C.3     1  LIG1       -0.0286
      8 C           4.2938   -1.4178    0.1484 C.3     1  LIG1       -0.0303
      9 C           3.4658   -0.4542   -0.6884 C.2     1  LIG1       -0.0738
     10 C           2.4632    0.4044   -0.2477 C.2     1  LIG1        0.0328
     11 C           2.1744    0.7194    1.2134 C.2     1  LIG1        0.3325
     12 O           2.2844   -0.5308    1.9100 O.3     1  LIG1       -0.4773
     13 O           1.9857    1.7537    1.7284 O.2     1  LIG1       -0.2455
     14 C           1.7553    1.4090   -1.1993 C.3     1  LIG1       -0.0178
     15 C           0.2579    1.2178   -1.4584 C.3     1  LIG1       -0.0303
     16 C          -0.4697    2.1461   -2.3580 C.2     1  LIG1       -0.0850
     17 C          -0.7068    1.8947   -3.6562 C.2     1  LIG1       -0.0796
     18 C          -0.2661    0.6583   -4.4017 C.3     1  LIG1       -0.0440
     19 C          -1.3956    2.9406   -4.4699 C.3     1  LIG1       -0.0440
     20 C           2.9667   -5.1282   -0.6984 C.3     1  LIG1       -0.0438
     21 C          -0.8552   -0.6776    2.1169 C.2     1  LIG1       -0.0806
     22 C          -0.9320    0.8395    2.1365 C.3     1  LIG1       -0.0055
     23 C          -2.1819    1.4896    2.5856 C.2     1  LIG1        0.0069
     24 C          -2.9460    0.9862    3.5555 C.2     1  LIG1       -0.0078
     25 C          -4.1545    1.6846    3.9895 C.2     1  LIG1        0.1797
     26 C          -4.6036    2.8254    3.1667 C.2     1  LIG1       -0.0084
     27 C          -3.8423    3.3591    2.2019 C.2     1  LIG1        0.0001
     28 C          -4.2776    4.4625    1.2907 C.3     1  LIG1       -0.0360
     29 C          -2.4854    2.8175    1.9715 C.2     1  LIG1        0.1855
     30 O          -1.6708    3.4394    1.2936 O.2     1  LIG1       -0.2873
     31 O          -4.7817    1.2989    4.9635 O.2     1  LIG1       -0.2879
     32 H          -1.3829   -1.9306   -0.9784 H       1  LIG1        0.0274
     33 H           0.1690   -1.1815   -0.7559 H       1  LIG1        0.0274
     34 H          -1.4011   -0.2730   -0.4996 H       1  LIG1        0.0274
     35 H          -1.4518   -3.5117    1.2669 H       1  LIG1        0.0313
     36 H          -0.0123   -3.1712    2.2565 H       1  LIG1        0.0313
     37 H          -0.0328   -3.6310   -0.7917 H       1  LIG1        0.0310
     38 H           0.4316   -4.7753    0.4521 H       1  LIG1        0.0310
     39 H           1.8223   -2.0968    0.4276 H       1  LIG1        0.0572
     40 H           4.7012   -2.9891   -1.2848 H       1  LIG1        0.0313
     41 H           4.9584   -3.4345    0.4005 H       1  LIG1        0.0313
     42 H           5.3306   -1.0517    0.1027 H       1  LIG1        0.0311
     43 H           4.0903   -1.4116    1.2154 H       1  LIG1        0.0311
     44 H           3.7407   -0.3982   -1.7258 H       1  LIG1        0.0577
     45 H           1.9512   -0.4038    2.8290 H       1  LIG1        0.2954
     46 H           2.2376    1.4153   -2.1710 H       1  LIG1        0.0318
     47 H           1.8673    2.4052   -0.7582 H       1  LIG1        0.0318
     48 H          -0.2810    1.3050   -0.5326 H       1  LIG1        0.0311
     49 H           0.1060    0.2388   -1.8875 H       1  LIG1        0.0311
     50 H          -0.9139    3.0194   -1.8748 H       1  LIG1        0.0572
     51 H           0.2444   -0.0916   -3.7906 H       1  LIG1        0.0274
     52 H           0.4376    0.9372   -5.1894 H       1  LIG1        0.0274
     53 H          -1.1267    0.1507   -4.8498 H       1  LIG1        0.0274
     54 H          -1.5803    3.8466   -3.8815 H       1  LIG1        0.0274
     55 H          -2.3523    2.5782   -4.8521 H       1  LIG1        0.0274
     56 H          -0.7423    3.2193   -5.3010 H       1  LIG1        0.0274
     57 H           2.9028   -5.1717   -1.7894 H       1  LIG1        0.0274
     58 H           2.1198   -5.6978   -0.3018 H       1  LIG1        0.0274
     59 H           3.8635   -5.6527   -0.3604 H       1  LIG1        0.0274
     60 H          -0.7560   -1.1004    3.1130 H       1  LIG1        0.0575
     61 H          -0.7093    1.2388    1.1647 H       1  LIG1        0.0357
     62 H          -0.1779    1.2078    2.8399 H       1  LIG1        0.0357
     63 H          -2.6898    0.0670    4.0666 H       1  LIG1        0.0660
     64 H          -5.5983    3.1875    3.3851 H       1  LIG1        0.0659
     65 H          -5.3499    4.6561    1.3869 H       1  LIG1        0.0279
     66 H          -4.0910    4.1896    0.2448 H       1  LIG1        0.0279
     67 H          -3.7368    5.3899    1.5047 H       1  LIG1        0.0279
@<TRIPOS>BOND
     1     1     2    1
     2     2     3    1
     3     3     4    1
     4     4     5    1
     5     5     6    2
     6     6     7    1
     7     7     8    1
     8     8     9    1
     9     9    10    2
    10    10    11    1
    11    11    12    1
    12    11    13    2
    13    10    14    1
    14    14    15    1
    15    15    16    1
    16    16    17    2
    17    17    18    1
    18    17    19    1
    19     6    20    1
    20     2    21    2
    21    21    22    1
    22    22    23    1
    23    23    24    2
    24    24    25    1
    25    25    26    1
    26    26    27    2
    27    27    28    1
    28    27    29    1
    29    23    29    1
    30    29    30    2
    31    25    31    2
    32     1    32    1
    33     1    33    1
    34     1    34    1
    35     3    35    1
    36     3    36    1
    37     4    37    1
    38     4    38    1
    39     5    39    1
    40     7    40    1
    41     7    41    1
    42     8    42    1
    43     8    43    1
    44     9    44    1
    45    12    45    1
    46    14    46    1
    47    14    47    1
    48    15    48    1
    49    15    49    1
    50    16    50    1
    51    18    51    1
    52    18    52    1
    53    18    53    1
    54    19    54    1
    55    19    55    1
    56    19    56    1
    57    20    57    1
    58    20    58    1
    59    20    59    1
    60    21    60    1
    61    22    61    1
    62    22    62    1
    63    24    63    1
    64    26    64    1
    65    28    65    1
    66    28    66    1
    67    28    67    1
