@<TRIPOS>MOLECULE
NuBBE_2378
 50 53 0 0 0
SMALL
GASTEIGER

@<TRIPOS>ATOM
      1 C          -0.2829   -2.7744    1.9251 C.3     1  LIG1       -0.0306
      2 C          -0.2069   -1.3488    1.2772 C.3     1  LIG1       -0.0123
      3 C          -0.3681   -1.2830   -0.2932 C.3     1  LIG1        0.0998
      4 C          -1.8799   -1.4142   -0.5955 C.2     1  LIG1        0.3187
      5 O          -2.3780   -2.2359   -1.3535 O.2     1  LIG1       -0.2498
      6 O          -2.6348   -0.4710    0.0589 O.3     1  LIG1       -0.4559
      7 C          -1.8777    0.4807    0.8417 C.3     1  LIG1        0.1288
      8 H          -2.5684    1.2216    1.2555 H       1  LIG1        0.0785
      9 C          -0.8461    1.1035   -0.0679 C.ar    1  LIG1        0.0010
     10 C          -0.0176    0.1603   -0.7194 C.ar    1  LIG1        0.0215
     11 C           0.9364    0.6468   -1.6002 C.ar    1  LIG1        0.1632
     12 C           1.1087    2.0319   -1.7676 C.ar    1  LIG1        0.1620
     13 C           0.3045    2.9702   -1.1079 C.ar    1  LIG1        0.0007
     14 C           0.4532    4.4730   -1.2780 C.3     1  LIG1       -0.0179
     15 C           0.1619    4.9283   -2.7102 C.3     1  LIG1       -0.0585
     16 C           1.8136    4.9833   -0.7960 C.3     1  LIG1       -0.0585
     17 C          -0.6953    2.4799   -0.2545 C.ar    1  LIG1       -0.0477
     18 O           2.0947    2.4496   -2.6239 O.3     1  LIG1       -0.5031
     19 O           1.7425   -0.1434   -2.3697 O.3     1  LIG1       -0.5031
     20 C          -1.1477   -0.2976    1.9391 C.3     1  LIG1       -0.0068
     21 C           0.4555   -2.3853   -0.9797 C.3     1  LIG1       -0.0327
     22 C           0.3120   -3.7687   -0.3527 C.3     1  LIG1       -0.0512
     23 C           0.6318   -3.7383    1.1359 C.3     1  LIG1       -0.0475
     24 C          -1.7053   -3.3735    1.9912 C.3     1  LIG1       -0.0595
     25 C           0.2463   -2.7026    3.3767 C.3     1  LIG1       -0.0595
     26 H           0.8191   -0.9954    1.4769 H       1  LIG1        0.0321
     27 H          -0.2988    4.9605   -0.6421 H       1  LIG1        0.0345
     28 H           0.9103    4.5676   -3.4224 H       1  LIG1        0.0235
     29 H           0.1539    6.0222   -2.7694 H       1  LIG1        0.0235
     30 H          -0.8177    4.5683   -3.0437 H       1  LIG1        0.0235
     31 H           2.6378    4.6289   -1.4224 H       1  LIG1        0.0235
     32 H           2.0114    4.6593    0.2318 H       1  LIG1        0.0235
     33 H           1.8382    6.0785   -0.8118 H       1  LIG1        0.0235
     34 H          -1.3532    3.1696    0.2703 H       1  LIG1        0.0626
     35 H           2.5448    1.6284   -2.9049 H       1  LIG1        0.2923
     36 H           1.1616   -0.7861   -2.8141 H       1  LIG1        0.2923
     37 H          -1.8876   -0.7641    2.5932 H       1  LIG1        0.0307
     38 H          -0.5542    0.3809    2.5648 H       1  LIG1        0.0307
     39 H           1.5216   -2.1305   -0.9318 H       1  LIG1        0.0279
     40 H           0.1897   -2.4627   -2.0408 H       1  LIG1        0.0279
     41 H           1.0035   -4.4582   -0.8521 H       1  LIG1        0.0266
     42 H          -0.6922   -4.1680   -0.5265 H       1  LIG1        0.0266
     43 H           1.6811   -3.4394    1.2632 H       1  LIG1        0.0271
     44 H           0.5540   -4.7557    1.5400 H       1  LIG1        0.0271
     45 H          -2.3696   -2.8001    2.6440 H       1  LIG1        0.0235
     46 H          -1.6746   -4.3909    2.4005 H       1  LIG1        0.0235
     47 H          -2.1839   -3.4439    1.0136 H       1  LIG1        0.0235
     48 H           1.2657   -2.3018    3.4091 H       1  LIG1        0.0235
     49 H           0.2693   -3.6967    3.8380 H       1  LIG1        0.0235
     50 H          -0.3827   -2.0633    4.0051 H       1  LIG1        0.0235
@<TRIPOS>BOND
     1     1     2    1
     2     2     3    1
     3     3     4    1
     4     4     6    1
     5     6     7    1
     6     7     9    1
     7     9    10   ar
     8     3    10    1
     9    10    11   ar
    10    11    12   ar
    11    12    13   ar
    12    14    15    1
    13    14    16    1
    14    13    17   ar
    15     9    17   ar
    16     7    20    1
    17     2    20    1
    18     3    21    1
    19    21    22    1
    20    22    23    1
    21     1    23    1
    22     1    24    1
    23     1    25    1
    24     4     5    2
    25     7     8    1
    26    11    19    1
    27    12    18    1
    28    13    14    1
    29     2    26    1
    30    14    27    1
    31    15    28    1
    32    15    29    1
    33    15    30    1
    34    16    31    1
    35    16    32    1
    36    16    33    1
    37    17    34    1
    38    18    35    1
    39    19    36    1
    40    20    37    1
    41    20    38    1
    42    21    39    1
    43    21    40    1
    44    22    41    1
    45    22    42    1
    46    23    43    1
    47    23    44    1
    48    24    45    1
    49    24    46    1
    50    24    47    1
    51    25    48    1
    52    25    49    1
    53    25    50    1
