REMARK  Name = NuBBE_623
REMARK  5 active torsions:
REMARK  status: ('A' for Active; 'I' for Inactive)
REMARK    1  A    between atoms: C_1  and  C_2
REMARK    2  A    between atoms: C_2  and  C_3
REMARK    3  A    between atoms: C_2  and  C_5
REMARK    4  A    between atoms: C_2  and  C_6
REMARK    5  A    between atoms: C_11  and  O_12
REMARK                            x       y       z     vdW  Elec       q    Type
REMARK                         _______ _______ _______ _____ _____    ______ ____
ROOT
ATOM      1  C   LIG A   1      -0.061   0.752   0.128  0.00  0.00    +0.047 A 
ATOM      2  C   LIG A   1      -0.215  -0.583   0.245  0.00  0.00    +0.023 A 
ATOM      3  C   LIG A   1       0.002  -1.495  -0.867  0.00  0.00    +0.018 A 
ATOM      4  C   LIG A   1      -0.213  -2.873  -0.762  0.00  0.00    +0.015 A 
ATOM      5  C   LIG A   1       0.040  -3.710  -1.856  0.00  0.00    +0.046 A 
ATOM      6  C   LIG A   1       0.513  -3.163  -3.046  0.00  0.00    +0.120 A 
ATOM      7  C   LIG A   1       0.727  -1.796  -3.166  0.00  0.00    +0.092 A 
ATOM      8  C   LIG A   1       0.458  -0.980  -2.071  0.00  0.00    +0.142 A 
ATOM      9  O   LIG A   1       0.648   0.401  -2.221  0.00  0.00    -0.422 OA
ATOM     10  C   LIG A   1       0.348   1.306  -1.207  0.00  0.00    +0.341 A 
ATOM     11  O   LIG A   1       0.439   2.507  -1.423  0.00  0.00    -0.245 OA
ENDROOT
BRANCH   1  13
ATOM     12  C   LIG A   1       1.053   2.522   1.570  0.00  0.00    +0.020 C 
ATOM     13  C   LIG A   1      -0.264   1.759   1.292  0.00  0.00    +0.015 C 
ATOM     14  C   LIG A   1      -1.367   2.791   0.958  0.00  0.00    +0.020 C 
BRANCH  13  15
ATOM     15  C   LIG A   1      -0.768   1.055   2.570  0.00  0.00    -0.023 C 
ATOM     16  C   LIG A   1      -0.180   0.984   3.773  0.00  0.00    +0.005 C 
ENDBRANCH  13  15
ENDBRANCH   1  13
BRANCH   6  17
ATOM     17  O   LIG A   1       0.780  -3.945  -4.131  0.00  0.00    -0.507 OA
ATOM     18  H   LIG A   1       0.579  -4.869  -3.911  0.00  0.00    +0.292 HD
ENDBRANCH   6  17
TORSDOF 3
