REMARK  Name = NuBBE_1613
REMARK  9 active torsions:
REMARK  status: ('A' for Active; 'I' for Inactive)
REMARK    1  A    between atoms: C_11  and  O_15
REMARK    2  A    between atoms: C_12  and  O_13
REMARK    3  A    between atoms: O_13  and  C_14
REMARK    4  A    between atoms: O_15  and  C_16
REMARK    5  A    between atoms: C_18  and  O_24
REMARK    6  A    between atoms: C_19  and  O_22
REMARK    7  A    between atoms: C_20  and  O_21
REMARK    8  A    between atoms: O_22  and  C_23
REMARK    9  A    between atoms: O_24  and  C_25
REMARK                            x       y       z     vdW  Elec       q    Type
REMARK                         _______ _______ _______ _____ _____    ______ ____
ROOT
ATOM      1  O   LIG A   1      -3.062   0.025  -0.053  0.00  0.00    -0.286 OA
ATOM      2  C   LIG A   1      -1.839   0.047  -0.050  0.00  0.00    +0.201 A 
ATOM      3  C   LIG A   1      -1.071  -1.225  -0.056  0.00  0.00    +0.091 A 
ATOM      4  C   LIG A   1       0.327  -1.152  -0.065  0.00  0.00    +0.058 A 
ATOM      5  N   LIG A   1       0.968   0.092   0.002  0.00  0.00    -0.351 N 
ATOM      6  H   LIG A   1       1.964   0.158  -0.174  0.00  0.00    +0.166 HD
ATOM      7  C   LIG A   1       0.282   1.325  -0.027  0.00  0.00    +0.097 A 
ATOM      8  C   LIG A   1      -1.116   1.334  -0.037  0.00  0.00    +0.050 A 
ATOM      9  C   LIG A   1      -1.827   2.528  -0.035  0.00  0.00    +0.017 A 
ATOM     10  C   LIG A   1      -1.134   3.738   0.007  0.00  0.00    +0.050 A 
ATOM     11  C   LIG A   1       0.268   3.764   0.064  0.00  0.00    +0.164 A 
ATOM     12  C   LIG A   1       0.982   2.546   0.050  0.00  0.00    +0.185 A 
ATOM     13  C   LIG A   1       1.066  -2.337  -0.046  0.00  0.00    +0.076 A 
ATOM     14  C   LIG A   1       0.422  -3.584  -0.066  0.00  0.00    +0.167 A 
ATOM     15  C   LIG A   1      -0.993  -3.652  -0.082  0.00  0.00    +0.204 A 
ATOM     16  C   LIG A   1      -1.735  -2.460  -0.054  0.00  0.00    +0.175 A 
ENDROOT
BRANCH  12  17
ATOM     17  O   LIG A   1       2.351   2.391   0.056  0.00  0.00    -0.489 OA
ATOM     18  C   LIG A   1       3.116   3.394   0.710  0.00  0.00    +0.277 C 
ENDBRANCH  12  17
BRANCH  11  19
ATOM     19  O   LIG A   1       0.987   4.928   0.123  0.00  0.00    -0.491 OA
ATOM     20  C   LIG A   1       0.276   6.160   0.162  0.00  0.00    +0.277 C 
ENDBRANCH  11  19
BRANCH  16  21
ATOM     21  O   LIG A   1      -3.106  -2.501   0.006  0.00  0.00    -0.503 OA
ATOM     22  H   LIG A   1      -3.451  -1.579   0.015  0.00  0.00    +0.292 HD
ENDBRANCH  16  21
BRANCH  15  23
ATOM     23  O   LIG A   1      -1.533  -4.918  -0.077  0.00  0.00    -0.488 OA
ATOM     24  C   LIG A   1      -2.828  -5.067  -0.652  0.00  0.00    +0.277 C 
ENDBRANCH  15  23
BRANCH  14  25
ATOM     25  O   LIG A   1       1.095  -4.785  -0.082  0.00  0.00    -0.491 OA
ATOM     26  C   LIG A   1       2.518  -4.748  -0.081  0.00  0.00    +0.277 C 
ENDBRANCH  14  25
TORSDOF 5
