@<TRIPOS>MOLECULE
NuBBE_1734
 26 27 0 0 0
SMALL
GASTEIGER

@<TRIPOS>ATOM
      1 C          -2.1445   -1.4666    0.8161 C.3     1  LIG1       -0.0593
      2 C          -0.6406   -1.3656    0.8476 C.3     1  LIG1       -0.0281
      3 C           0.0231   -2.4031    1.7120 C.3     1  LIG1       -0.0593
      4 C          -0.0571    0.0123    0.7815 C.3     1  LIG1       -0.0283
      5 C          -0.4224    1.3458    0.2009 C.3     1  LIG1       -0.0284
      6 C           0.6048    1.7369   -0.8774 C.2     1  LIG1       -0.0762
      7 C           0.5572    3.1523   -1.3679 C.3     1  LIG1       -0.0438
      8 C           1.5000    0.8341   -1.3487 C.2     1  LIG1       -0.0847
      9 C           1.4522   -0.6455   -0.9415 C.3     1  LIG1       -0.0309
     10 C           0.0807   -0.9443   -0.4141 C.3     1  LIG1       -0.0286
     11 H          -2.5562   -1.3182    1.8198 H       1  LIG1        0.0235
     12 H          -2.4547   -2.4523    0.4553 H       1  LIG1        0.0235
     13 H          -2.5951   -0.7163    0.1575 H       1  LIG1        0.0235
     14 H          -0.3123   -2.3042    2.7497 H       1  LIG1        0.0235
     15 H           1.1144   -2.3163    1.7001 H       1  LIG1        0.0235
     16 H          -0.2370   -3.4085    1.3635 H       1  LIG1        0.0235
     17 H           0.7882    0.1560    1.4573 H       1  LIG1        0.0312
     18 H          -0.4021    2.0892    1.0058 H       1  LIG1        0.0313
     19 H          -1.4296    1.3423   -0.2281 H       1  LIG1        0.0313
     20 H          -0.0547    3.7791   -0.7114 H       1  LIG1        0.0274
     21 H           0.1150    3.1890   -2.3691 H       1  LIG1        0.0274
     22 H           1.5584    3.5914   -1.4042 H       1  LIG1        0.0274
     23 H           2.2345    1.1161   -2.0999 H       1  LIG1        0.0572
     24 H           2.2443   -0.8605   -0.2152 H       1  LIG1        0.0310
     25 H           1.6382   -1.2626   -1.8273 H       1  LIG1        0.0310
     26 H          -0.6047   -0.8802   -1.2624 H       1  LIG1        0.0312
@<TRIPOS>BOND
     1     1     2    1
     2     2     3    1
     3     2     4    1
     4     4     5    1
     5     5     6    1
     6     6     7    1
     7     6     8    2
     8     8     9    1
     9     9    10    1
    10     4    10    1
    11     2    10    1
    12     1    11    1
    13     1    12    1
    14     1    13    1
    15     3    14    1
    16     3    15    1
    17     3    16    1
    18     4    17    1
    19     5    18    1
    20     5    19    1
    21     7    20    1
    22     7    21    1
    23     7    22    1
    24     8    23    1
    25     9    24    1
    26     9    25    1
    27    10    26    1
