@<TRIPOS>MOLECULE
NuBBE_1510
 55 56 0 0 0
SMALL
GASTEIGER

@<TRIPOS>ATOM
      1 C           1.6331   -2.2879   -1.3873 C.3     1  LIG1        0.0121
      2 C           2.0366   -1.0389   -2.2574 C.3     1  LIG1        0.1637
      3 S           3.4033   -1.5138   -3.5282 S.3     1  LIG1       -0.1290
      4 C           4.8073   -2.0035   -2.5014 C.3     1  LIG1       -0.0156
      5 C           2.6594    0.0615   -1.3183 C.2     1  LIG1        0.2509
      6 O           3.2882   -0.2398   -0.3027 O.2     1  LIG1       -0.2722
      7 N           2.6960    1.3654   -1.8108 N.am    1  LIG1       -0.2820
      8 C           3.3769    2.3793   -1.0175 C.3     1  LIG1        0.0048
      9 C           1.8010    1.8157   -2.8775 C.3     1  LIG1        0.1487
     10 H           2.4163    2.4320   -3.5437 H       1  LIG1        0.0715
     11 C           1.1703    0.7083   -3.7581 C.2     1  LIG1        0.2476
     12 O           0.7376    0.9487   -4.8721 O.2     1  LIG1       -0.2726
     13 N           0.9331   -0.5145   -3.1038 N.am    1  LIG1       -0.2795
     14 C           0.1277   -1.4381   -3.8921 C.3     1  LIG1        0.0050
     15 S           0.4465    2.8637   -2.1911 S.3     1  LIG1       -0.1325
     16 C          -0.4143    3.3138   -3.7269 C.3     1  LIG1       -0.0159
     17 C           0.5087   -2.0657   -0.3730 C.ar    1  LIG1       -0.0438
     18 C          -0.8402   -2.2956   -0.6780 C.ar    1  LIG1       -0.0550
     19 C          -1.8610   -1.9827    0.2336 C.ar    1  LIG1       -0.0197
     20 C          -1.5576   -1.4725    1.4940 C.ar    1  LIG1        0.1210
     21 C          -0.2177   -1.3238    1.8416 C.ar    1  LIG1       -0.0197
     22 C           0.8003   -1.6181    0.9214 C.ar    1  LIG1       -0.0550
     23 O          -2.6208   -1.2177    2.3232 O.3     1  LIG1       -0.4880
     24 C          -2.4187   -0.1794    3.2985 C.3     1  LIG1        0.1080
     25 C          -3.6668   -0.0410    4.1313 C.2     1  LIG1       -0.0484
     26 C          -3.8810    0.7979    5.1688 C.2     1  LIG1       -0.0765
     27 C          -2.8938    1.7864    5.7314 C.3     1  LIG1       -0.0439
     28 C          -5.2158    0.8202    5.8689 C.3     1  LIG1       -0.0439
     29 H           1.3568   -3.1319   -2.0323 H       1  LIG1        0.0347
     30 H           2.5070   -2.6473   -0.8257 H       1  LIG1        0.0347
     31 H           4.5805   -2.9018   -1.9259 H       1  LIG1        0.0341
     32 H           5.1531   -1.1967   -1.8534 H       1  LIG1        0.0341
     33 H           5.6342   -2.2481   -3.1790 H       1  LIG1        0.0341
     34 H           4.2524    1.9558   -0.5155 H       1  LIG1        0.0429
     35 H           2.6949    2.7553   -0.2486 H       1  LIG1        0.0429
     36 H           3.7071    3.1987   -1.6616 H       1  LIG1        0.0429
     37 H          -0.7527   -0.9099   -4.2778 H       1  LIG1        0.0429
     38 H          -0.2267   -2.2723   -3.3018 H       1  LIG1        0.0429
     39 H           0.7031   -1.8239   -4.7359 H       1  LIG1        0.0429
     40 H          -1.0578    4.1774   -3.5403 H       1  LIG1        0.0341
     41 H          -1.0552    2.4912   -4.0553 H       1  LIG1        0.0341
     42 H           0.2933    3.5807   -4.5171 H       1  LIG1        0.0341
     43 H          -1.1420   -2.7323   -1.6229 H       1  LIG1        0.0621
     44 H          -2.8981   -2.1331   -0.0586 H       1  LIG1        0.0654
     45 H           0.0805   -0.9938    2.8296 H       1  LIG1        0.0654
     46 H           1.8325   -1.4937    1.2448 H       1  LIG1        0.0621
     47 H          -2.2285    0.7603    2.7683 H       1  LIG1        0.0742
     48 H          -1.5906   -0.4378    3.9638 H       1  LIG1        0.0742
     49 H          -4.4732   -0.7149    3.8446 H       1  LIG1        0.0605
     50 H          -1.9471    1.8136    5.1867 H       1  LIG1        0.0274
     51 H          -2.6753    1.5465    6.7788 H       1  LIG1        0.0274
     52 H          -3.3204    2.7964    5.7067 H       1  LIG1        0.0274
     53 H          -5.9693    0.2281    5.3404 H       1  LIG1        0.0274
     54 H          -5.5929    1.8470    5.9290 H       1  LIG1        0.0274
     55 H          -5.1205    0.4263    6.8858 H       1  LIG1        0.0274
@<TRIPOS>BOND
     1     3     4    1
     2     2     5    1
     3     5     6    2
     4     5     7   am
     5     7     8    1
     6     7     9    1
     7     9    10    1
     8     9    11    1
     9    11    12    2
    10    11    13   am
    11     2    13    1
    12    13    14    1
    13     9    15    1
    14    15    16    1
    15     1    17    1
    16    17    18   ar
    17    18    19   ar
    18    19    20   ar
    19    20    21   ar
    20    21    22   ar
    21    17    22   ar
    22    20    23    1
    23    23    24    1
    24    24    25    1
    25    25    26    2
    26    26    27    1
    27    26    28    1
    28     2     3    1
    29     2     1    1
    30     1    29    1
    31     1    30    1
    32     4    31    1
    33     4    32    1
    34     4    33    1
    35     8    34    1
    36     8    35    1
    37     8    36    1
    38    14    37    1
    39    14    38    1
    40    14    39    1
    41    16    40    1
    42    16    41    1
    43    16    42    1
    44    18    43    1
    45    19    44    1
    46    21    45    1
    47    22    46    1
    48    24    47    1
    49    24    48    1
    50    25    49    1
    51    27    50    1
    52    27    51    1
    53    27    52    1
    54    28    53    1
    55    28    54    1
    56    28    55    1
