REMARK  Name = NuBBE_41
REMARK  5 active torsions:
REMARK  status: ('A' for Active; 'I' for Inactive)
REMARK    1  A    between atoms: C_6  and  C_7
REMARK    2  A    between atoms: C_6  and  C_13
REMARK    3  A    between atoms: C_8  and  C_9
REMARK    4  A    between atoms: C_10  and  C_11
REMARK    5  A    between atoms: C_10  and  C_12
REMARK                            x       y       z     vdW  Elec       q    Type
REMARK                         _______ _______ _______ _____ _____    ______ ____
ROOT
ATOM      1  N   LIG A   1      -4.172   1.864   1.114  0.00  0.00    -0.252 N 
ATOM      2  C   LIG A   1      -2.840   1.985   0.937  0.00  0.00    +0.363 C 
ATOM      3  N   LIG A   1      -2.314   3.142   0.751  0.00  0.00    -0.117 NA
ATOM      4  C   LIG A   1      -0.863   3.135   0.557  0.00  0.00    +0.247 C 
ATOM      5  C   LIG A   1      -0.201   2.086   1.441  0.00  0.00    +0.087 C 
ATOM      6  C   LIG A   1      -0.772   0.689   1.140  0.00  0.00    +0.099 C 
ATOM      7  C   LIG A   1      -0.475  -0.246   2.329  0.00  0.00    +0.054 C 
ATOM      8  N   LIG A   1      -2.220   0.785   0.989  0.00  0.00    -0.230 N 
ATOM      9  H   LIG A   1      -2.747   0.072   1.482  0.00  0.00    +0.245 HD
ATOM     10  H   LIG A   1      -4.617   2.764   0.950  0.00  0.00    +0.241 HD
ATOM     11  H   LIG A   1      -4.580   1.156   0.514  0.00  0.00    +0.241 HD
ENDROOT
BRANCH   6  12
ATOM     12  C   LIG A   1      -0.246   0.156  -0.182  0.00  0.00    +0.014 C 
ATOM     13  C   LIG A   1       0.743  -0.740  -0.350  0.00  0.00    -0.001 C 
BRANCH  13  14
ATOM     14  C   LIG A   1       1.176  -1.203  -1.650  0.00  0.00    -0.002 C 
ATOM     15  C   LIG A   1       2.136  -2.115  -1.901  0.00  0.00    -0.076 C 
ATOM     16  C   LIG A   1       2.967  -2.841  -0.876  0.00  0.00    +0.038 C 
ATOM     17  C   LIG A   1       2.460  -2.503  -3.322  0.00  0.00    +0.038 C 
ENDBRANCH  13  14
ENDBRANCH   6  12
TORSDOF 2
