REMARK  Name = NuBBE_2256
REMARK  6 active torsions:
REMARK  status: ('A' for Active; 'I' for Inactive)
REMARK    1  A    between atoms: O_1  and  C_2
REMARK    2  A    between atoms: C_7  and  O_8
REMARK    3  A    between atoms: O_8  and  C_9
REMARK    4  A    between atoms: C_10  and  O_11
REMARK    5  A    between atoms: O_11  and  C_12
REMARK    6  A    between atoms: C_13  and  O_14
REMARK                            x       y       z     vdW  Elec       q    Type
REMARK                         _______ _______ _______ _____ _____    ______ ____
ROOT
ATOM      1  C   LIG A   1      -1.300  -3.842   0.120  0.00  0.00    +0.131 A 
ATOM      2  C   LIG A   1      -0.595  -2.640   0.079  0.00  0.00    +0.106 A 
ATOM      3  C   LIG A   1      -1.286  -1.348   0.063  0.00  0.00    +0.204 A 
ATOM      4  C   LIG A   1      -0.455  -0.141   0.072  0.00  0.00    +0.072 A 
ATOM      5  C   LIG A   1      -1.060   1.118   0.088  0.00  0.00    +0.065 A 
ATOM      6  C   LIG A   1      -0.283   2.284   0.126  0.00  0.00    +0.166 A 
ATOM      7  C   LIG A   1       1.114   2.166   0.212  0.00  0.00    +0.207 A 
ATOM      8  C   LIG A   1       1.696   0.882   0.195  0.00  0.00    +0.206 A 
ATOM      9  C   LIG A   1       0.925  -0.277   0.100  0.00  0.00    +0.184 A 
ATOM     10  O   LIG A   1       1.565  -1.491   0.053  0.00  0.00    -0.451 OA
ATOM     11  O   LIG A   1      -2.511  -1.293   0.052  0.00  0.00    -0.286 OA
ATOM     12  C   LIG A   1       0.799  -2.634   0.056  0.00  0.00    +0.143 A 
ATOM     13  C   LIG A   1       1.489  -3.848   0.046  0.00  0.00    +0.047 A 
ATOM     14  C   LIG A   1       0.783  -5.054   0.085  0.00  0.00    +0.007 A 
ATOM     15  C   LIG A   1      -0.614  -5.053   0.129  0.00  0.00    +0.046 A 
ENDROOT
BRANCH   1  16
ATOM     16  O   LIG A   1      -2.668  -3.900   0.158  0.00  0.00    -0.506 OA
ATOM     17  H   LIG A   1      -3.011  -2.981   0.139  0.00  0.00    +0.292 HD
ENDBRANCH   1  16
BRANCH   6  18
ATOM     18  O   LIG A   1      -0.863   3.525   0.155  0.00  0.00    -0.491 OA
ATOM     19  C   LIG A   1      -2.145   3.634  -0.460  0.00  0.00    +0.277 C 
ENDBRANCH   6  18
BRANCH   7  20
ATOM     20  O   LIG A   1       2.033   3.176   0.379  0.00  0.00    -0.488 OA
ATOM     21  C   LIG A   1       1.728   4.453  -0.166  0.00  0.00    +0.277 C 
ENDBRANCH   7  20
BRANCH   8  22
ATOM     22  O   LIG A   1       3.064   0.768   0.284  0.00  0.00    -0.501 OA
ATOM     23  H   LIG A   1       3.390   1.678   0.425  0.00  0.00    +0.292 HD
ENDBRANCH   8  22
TORSDOF 4
