@<TRIPOS>MOLECULE
NuBBE_2367
 55 59 0 0 0
SMALL
GASTEIGER

@<TRIPOS>ATOM
      1 C          -1.0714    1.5258   -1.7688 C.2     1  LIG1        0.3205
      2 O          -0.4718    2.4374   -2.2838 O.2     1  LIG1       -0.2497
      3 O          -2.4141    1.6441   -1.4169 O.3     1  LIG1       -0.4672
      4 C          -2.9549    2.9602   -1.5976 C.3     1  LIG1        0.0817
      5 C          -0.5815   -0.0031   -1.4107 C.3     1  LIG1        0.1235
      6 C           0.9023   -0.6902   -1.3821 C.3     1  LIG1        0.0344
      7 H           1.3666   -0.7894   -0.3959 H       1  LIG1        0.0480
      8 N           1.7489    0.1666   -2.1610 N.3     1  LIG1       -0.2971
      9 C           1.1114    0.1986   -3.5097 C.3     1  LIG1        0.0021
     10 C          -0.0978   -0.8773   -3.6396 C.3     1  LIG1       -0.0265
     11 H          -0.5146   -0.8611   -4.6519 H       1  LIG1        0.0314
     12 C          -1.2466   -0.7145   -2.5577 C.3     1  LIG1       -0.0262
     13 C           0.5115   -2.2494   -3.3377 C.3     1  LIG1       -0.0447
     14 C           1.0439   -2.1662   -1.9021 C.3     1  LIG1       -0.0240
     15 H           2.1196   -2.3979   -1.9455 H       1  LIG1        0.0316
     16 C           0.4266   -3.2418   -0.9813 C.3     1  LIG1       -0.0516
     17 C           0.9425   -3.2162    0.4545 C.3     1  LIG1       -0.0650
     18 C           1.9357    1.4214   -1.3657 C.3     1  LIG1        0.0033
     19 C           1.4708    1.5410    0.2007 C.3     1  LIG1       -0.0126
     20 C           0.1901    0.8276    0.7717 C.ar    1  LIG1       -0.0167
     21 C          -0.7521    0.0977    0.0464 C.ar    1  LIG1        0.0388
     22 N          -1.6573   -0.4833    0.8754 N.ar    1  LIG1       -0.3568
     23 H          -2.4358   -1.0677    0.6021 H       1  LIG1        0.1656
     24 C          -1.2821   -0.2300    2.1786 C.ar    1  LIG1        0.0472
     25 C          -0.1649    0.6105    2.1319 C.ar    1  LIG1        0.0066
     26 C           0.4179    1.0181    3.3363 C.ar    1  LIG1       -0.0105
     27 C          -0.1164    0.6042    4.5580 C.ar    1  LIG1        0.1208
     28 C          -1.2040   -0.2728    4.5784 C.ar    1  LIG1       -0.0180
     29 C          -1.8164   -0.6980    3.3872 C.ar    1  LIG1       -0.0343
     30 O           0.4072    1.0034    5.7637 O.3     1  LIG1       -0.4951
     31 C           1.0966    2.2572    5.7076 C.3     1  LIG1        0.0788
     32 H          -3.0789    3.1793   -2.6624 H       1  LIG1        0.0661
     33 H          -2.3271    3.7174   -1.1171 H       1  LIG1        0.0661
     34 H          -3.9402    2.9867   -1.1219 H       1  LIG1        0.0661
     35 H           1.8858   -0.1034   -4.2279 H       1  LIG1        0.0429
     36 H           0.7832    1.1915   -3.8218 H       1  LIG1        0.0429
     37 H          -1.6899   -1.6696   -2.2596 H       1  LIG1        0.0283
     38 H          -2.0660   -0.1581   -3.0289 H       1  LIG1        0.0283
     39 H           1.3268   -2.4678   -4.0373 H       1  LIG1        0.0271
     40 H          -0.2295   -3.0487   -3.4591 H       1  LIG1        0.0271
     41 H          -0.6647   -3.1671   -0.9641 H       1  LIG1        0.0266
     42 H           0.6652   -4.2282   -1.3997 H       1  LIG1        0.0266
     43 H           0.6246   -2.3179    0.9864 H       1  LIG1        0.0230
     44 H           2.0352   -3.2628    0.4882 H       1  LIG1        0.0230
     45 H           0.5468   -4.0699    1.0139 H       1  LIG1        0.0230
     46 H           1.6101    2.3060   -1.9133 H       1  LIG1        0.0430
     47 H           3.0238    1.5790   -1.3397 H       1  LIG1        0.0430
     48 H           1.3791    2.6089    0.4359 H       1  LIG1        0.0326
     49 H           2.3144    1.1592    0.7948 H       1  LIG1        0.0326
     50 H           1.2956    1.6424    3.2687 H       1  LIG1        0.0661
     51 H          -1.5996   -0.6316    5.5273 H       1  LIG1        0.0655
     52 H          -2.6654   -1.3748    3.4052 H       1  LIG1        0.0639
     53 H           1.4782    2.4967    6.7024 H       1  LIG1        0.0660
     54 H           0.4101    3.0532    5.3957 H       1  LIG1        0.0660
     55 H           1.9726    2.2248    5.0500 H       1  LIG1        0.0660
@<TRIPOS>BOND
     1     1     2    2
     2     1     3    1
     3     3     4    1
     4     5     6    1
     5     6     8    1
     6     8     9    1
     7     9    10    1
     8    10    12    1
     9     5    12    1
    10    10    13    1
    11    13    14    1
    12     6    14    1
    13    16    17    1
    14     8    18    1
    15    18    19    1
    16    19    20    1
    17    20    21   ar
    18     5    21    1
    19    21    22   ar
    20    22    24   ar
    21    24    25   ar
    22    20    25   ar
    23    25    26   ar
    24    26    27   ar
    25    27    28   ar
    26    28    29   ar
    27    24    29   ar
    28    30    31    1
    29     1     5    1
    30     6     7    1
    31    10    11    1
    32    14    15    1
    33    14    16    1
    34    22    23    1
    35    27    30    1
    36     4    32    1
    37     4    33    1
    38     4    34    1
    39     9    35    1
    40     9    36    1
    41    12    37    1
    42    12    38    1
    43    13    39    1
    44    13    40    1
    45    16    41    1
    46    16    42    1
    47    17    43    1
    48    17    44    1
    49    17    45    1
    50    18    46    1
    51    18    47    1
    52    19    48    1
    53    19    49    1
    54    26    50    1
    55    28    51    1
    56    29    52    1
    57    31    53    1
    58    31    54    1
    59    31    55    1
