REMARK  Name = NuBBE_1304
REMARK  10 active torsions:
REMARK  status: ('A' for Active; 'I' for Inactive)
REMARK    1  A    between atoms: C_2  and  C_3
REMARK    2  A    between atoms: C_2  and  C_12
REMARK    3  A    between atoms: C_12  and  C_14
REMARK    4  A    between atoms: C_12  and  C_15
REMARK    5  A    between atoms: C_15  and  C_17
REMARK    6  A    between atoms: C_15  and  C_18
REMARK    7  A    between atoms: C_18  and  C_19
REMARK    8  A    between atoms: C_22  and  O_23
REMARK    9  A    between atoms: C_24  and  O_25
REMARK   10  A    between atoms: O_25  and  C_26
REMARK                            x       y       z     vdW  Elec       q    Type
REMARK                         _______ _______ _______ _____ _____    ______ ____
ROOT
ATOM      1  C   LIG A   1       0.440  -0.164   1.751  0.00  0.00    +0.060 C 
ATOM      2  C   LIG A   1       0.627   1.149   2.523  0.00  0.00    +0.016 C 
ENDROOT
BRANCH   1   4
ATOM      3  O   LIG A   1      -0.448  -1.470   3.622  0.00  0.00    -0.292 OA
ATOM      4  C   LIG A   1      -0.619  -1.004   2.500  0.00  0.00    +0.166 C 
BRANCH   4   5
ATOM      5  C   LIG A   1      -1.958  -1.195   1.823  0.00  0.00    +0.021 A 
ATOM      6  C   LIG A   1      -2.723  -2.352   2.108  0.00  0.00    +0.015 A 
ATOM      7  C   LIG A   1      -3.976  -2.552   1.512  0.00  0.00    +0.050 A 
ATOM      8  C   LIG A   1      -4.449  -1.569   0.669  0.00  0.00    +0.166 A 
ATOM      9  O   LIG A   1      -5.654  -1.554   0.039  0.00  0.00    -0.453 OA
ATOM     10  C   LIG A   1      -5.623  -0.248  -0.579  0.00  0.00    +0.466 C 
ATOM     11  O   LIG A   1      -4.353   0.418  -0.438  0.00  0.00    -0.453 OA
ATOM     12  C   LIG A   1      -3.711  -0.443   0.396  0.00  0.00    +0.167 A 
ATOM     13  C   LIG A   1      -2.467  -0.224   0.943  0.00  0.00    +0.060 A 
ENDBRANCH   4   5
ENDBRANCH   1   4
BRANCH   1  14
ATOM     14  C   LIG A   1       1.765  -0.966   1.602  0.00  0.00    +0.001 C 
ATOM     15  C   LIG A   1       1.562  -2.265   0.799  0.00  0.00    +0.008 C 
BRANCH  14  16
ATOM     16  C   LIG A   1       2.971  -0.151   1.043  0.00  0.00    +0.039 C 
BRANCH  16  17
ATOM     17  C   LIG A   1       2.863   0.365  -0.380  0.00  0.00    -0.043 A 
ATOM     18  C   LIG A   1       3.358  -0.391  -1.449  0.00  0.00    +0.007 A 
ATOM     19  C   LIG A   1       3.204   0.047  -2.769  0.00  0.00    +0.049 A 
ATOM     20  C   LIG A   1       2.543   1.247  -3.041  0.00  0.00    +0.159 A 
ATOM     21  C   LIG A   1       2.070   2.035  -1.992  0.00  0.00    +0.162 A 
ATOM     22  C   LIG A   1       2.275   1.604  -0.674  0.00  0.00    +0.053 A 
BRANCH  20  23
ATOM     23  O   LIG A   1       2.398   1.643  -4.341  0.00  0.00    -0.503 OA
ATOM     24  H   LIG A   1       2.865   1.017  -4.917  0.00  0.00    +0.292 HD
ENDBRANCH  20  23
BRANCH  21  25
ATOM     25  O   LIG A   1       1.449   3.252  -2.087  0.00  0.00    -0.491 OA
ATOM     26  C   LIG A   1       0.554   3.412  -3.182  0.00  0.00    +0.277 C 
ENDBRANCH  21  25
ENDBRANCH  16  17
ENDBRANCH  14  16
ENDBRANCH   1  14
TORSDOF 7
