REMARK  Name = NuBBE_957
REMARK  15 active torsions:
REMARK  status: ('A' for Active; 'I' for Inactive)
REMARK    1  A    between atoms: C_3  and  C_4
REMARK    2  A    between atoms: C_5  and  C_7
REMARK    3  A    between atoms: C_7  and  C_8
REMARK    4  A    between atoms: C_8  and  O_9
REMARK    5  A    between atoms: O_9  and  C_10
REMARK    6  A    between atoms: C_12  and  C_13
REMARK    7  A    between atoms: C_12  and  C_14
REMARK    8  A    between atoms: C_15  and  O_17
REMARK    9  A    between atoms: O_17  and  C_18
REMARK   10  A    between atoms: C_18  and  C_19
REMARK   11  A    between atoms: C_19  and  C_20
REMARK   12  A    between atoms: C_19  and  C_22
REMARK   13  A    between atoms: C_20  and  C_21
REMARK   14  A    between atoms: C_29  and  C_31
REMARK   15  A    between atoms: C_38  and  C_41
REMARK                            x       y       z     vdW  Elec       q    Type
REMARK                         _______ _______ _______ _____ _____    ______ ____
ROOT
ATOM      1  C   LIG A   1       0.904  -0.160   0.425  0.00  0.00    +0.037 C 
ATOM      2  C   LIG A   1       1.636   1.256   0.765  0.00  0.00    +0.036 C 
ATOM      3  C   LIG A   1       2.381   1.162   2.114  0.00  0.00    +0.019 C 
ATOM      4  C   LIG A   1       0.647   2.532   0.631  0.00  0.00    +0.022 C 
ATOM      5  C   LIG A   1       0.687   3.247  -0.827  0.00  0.00    +0.007 C 
ATOM      6  C   LIG A   1      -0.641   4.028  -1.050  0.00  0.00    +0.015 C 
ATOM      7  C   LIG A   1       1.787   4.339  -0.980  0.00  0.00    +0.015 C 
ATOM      8  C   LIG A   1       0.901   2.161  -1.948  0.00  0.00    +0.195 C 
ATOM      9  C   LIG A   1       1.463  -0.970  -0.767  0.00  0.00    +0.104 C 
ATOM     10  C   LIG A   1       0.822  -2.322  -1.080  0.00  0.00    +0.044 C 
ATOM     11  C   LIG A   1       1.522  -3.152  -2.157  0.00  0.00    +0.127 C 
ATOM     12  C   LIG A   1       0.809  -4.448  -2.467  0.00  0.00    +0.308 C 
ATOM     13  O   LIG A   1       0.167  -5.066  -1.449  0.00  0.00    -0.456 OA
ATOM     14  C   LIG A   1      -0.391  -4.322  -0.342  0.00  0.00    +0.216 C 
ATOM     15  O   LIG A   1       0.908  -4.979  -3.565  0.00  0.00    -0.251 OA
ATOM     16  C   LIG A   1       0.593  -3.222   0.167  0.00  0.00    +0.015 C 
ATOM     17  C   LIG A   1      -0.041  -2.376   1.295  0.00  0.00    +0.011 C 
ATOM     18  C   LIG A   1       0.755  -1.111   1.631  0.00  0.00    +0.008 C 
ATOM     19  C   LIG A   1       1.898  -3.881   0.691  0.00  0.00    +0.015 C 
ATOM     20  O   LIG A   1       2.872  -0.933  -0.981  0.00  0.00    -0.363 OA
ATOM     21  C   LIG A   1       2.061  -0.149  -1.891  0.00  0.00    +0.165 C 
ATOM     22  C   LIG A   1       2.201   1.328  -1.709  0.00  0.00    +0.129 C 
ATOM     23  C   LIG A   1       2.683   1.545  -0.294  0.00  0.00    +0.149 C 
ATOM     24  O   LIG A   1       3.811   1.968  -0.047  0.00  0.00    -0.296 OA
ENDROOT
BRANCH  14  25
ATOM     25  C   LIG A   1      -0.910  -5.266   0.708  0.00  0.00    +0.031 A 
ATOM     26  C   LIG A   1      -2.004  -5.056   1.530  0.00  0.00    +0.202 A 
ATOM     27  O   LIG A   1      -2.222  -6.122   2.337  0.00  0.00    -0.471 OA
ATOM     28  C   LIG A   1      -1.280  -7.049   2.031  0.00  0.00    +0.195 A 
ATOM     29  C   LIG A   1      -0.449  -6.575   1.036  0.00  0.00    +0.048 A 
ENDBRANCH  14  25
BRANCH   4  30
ATOM     30  C   LIG A   1       0.818   3.622   1.728  0.00  0.00    +0.125 C 
BRANCH  30  31
ATOM     31  C   LIG A   1       0.223   3.300   3.083  0.00  0.00    +0.307 C 
ATOM     32  O   LIG A   1      -0.398   2.285   3.360  0.00  0.00    -0.251 OA
BRANCH  31  33
ATOM     33  O   LIG A   1       0.435   4.363   3.909  0.00  0.00    -0.468 OA
ATOM     34  C   LIG A   1      -0.214   4.345   5.184  0.00  0.00    +0.280 C 
ENDBRANCH  31  33
ENDBRANCH  30  31
ENDBRANCH   4  30
BRANCH   8  35
ATOM     35  O   LIG A   1      -0.302   1.345  -2.006  0.00  0.00    -0.460 OA
BRANCH  35  36
ATOM     36  C   LIG A   1      -1.249   1.713  -2.924  0.00  0.00    +0.310 C 
ATOM     37  O   LIG A   1      -1.023   2.445  -3.881  0.00  0.00    -0.251 OA
BRANCH  36  38
ATOM     38  C   LIG A   1      -2.643   1.152  -2.609  0.00  0.00    +0.094 C 
ATOM     39  C   LIG A   1      -3.694   2.221  -2.947  0.00  0.00    +0.019 C 
BRANCH  38  40
ATOM     40  C   LIG A   1      -2.786   0.674  -1.152  0.00  0.00    +0.011 C 
ATOM     41  C   LIG A   1      -4.130   0.040  -0.824  0.00  0.00    +0.004 C 
ENDBRANCH  38  40
ENDBRANCH  36  38
ENDBRANCH  35  36
ENDBRANCH   8  35
TORSDOF 8
