REMARK  Name = NuBBE_592
REMARK  7 active torsions:
REMARK  status: ('A' for Active; 'I' for Inactive)
REMARK    1  A    between atoms: C_3  and  C_29
REMARK    2  A    between atoms: C_5  and  C_28
REMARK    3  A    between atoms: C_7  and  C_19
REMARK    4  A    between atoms: C_12  and  O_17
REMARK    5  A    between atoms: C_13  and  O_14
REMARK    6  A    between atoms: O_14  and  C_15
REMARK    7  A    between atoms: O_17  and  C_18
REMARK                            x       y       z     vdW  Elec       q    Type
REMARK                         _______ _______ _______ _____ _____    ______ ____
ROOT
ATOM      1  O   LIG A   1      -4.121  -0.423  -0.041  0.00  0.00    -0.292 OA
ATOM      2  C   LIG A   1      -2.940  -0.635   0.211  0.00  0.00    +0.167 C 
ATOM      3  C   LIG A   1      -2.369  -2.045   0.155  0.00  0.00    +0.061 C 
ATOM      4  C   LIG A   1      -1.076  -2.212   0.978  0.00  0.00    +0.008 C 
ATOM      5  C   LIG A   1      -0.043  -1.075   0.785  0.00  0.00    +0.053 C 
ATOM      6  C   LIG A   1      -0.675   0.302   0.783  0.00  0.00    -0.025 A 
ATOM      7  C   LIG A   1      -2.031   0.502   0.522  0.00  0.00    +0.025 A 
ATOM      8  C   LIG A   1      -2.558   1.799   0.556  0.00  0.00    +0.061 A 
ATOM      9  C   LIG A   1      -1.745   2.908   0.834  0.00  0.00    +0.162 A 
ATOM     10  C   LIG A   1      -0.384   2.718   1.110  0.00  0.00    +0.162 A 
ATOM     11  C   LIG A   1       0.136   1.418   1.077  0.00  0.00    +0.054 A 
ATOM     12  C   LIG A   1      -1.441  -2.331   2.475  0.00  0.00    +0.009 C 
ATOM     13  C   LIG A   1      -2.239  -2.477  -1.304  0.00  0.00    +0.016 C 
ENDROOT
BRANCH   5  14
ATOM     14  C   LIG A   1       0.941  -1.304  -0.362  0.00  0.00    -0.036 A 
ATOM     15  C   LIG A   1       0.735  -0.783  -1.663  0.00  0.00    +0.008 A 
ATOM     16  C   LIG A   1       1.680  -0.965  -2.679  0.00  0.00    +0.050 A 
ATOM     17  C   LIG A   1       2.834  -1.647  -2.369  0.00  0.00    +0.166 A 
ATOM     18  O   LIG A   1       3.871  -1.885  -3.215  0.00  0.00    -0.453 OA
ATOM     19  C   LIG A   1       4.784  -2.573  -2.335  0.00  0.00    +0.466 C 
ATOM     20  O   LIG A   1       4.262  -2.769  -1.004  0.00  0.00    -0.453 OA
ATOM     21  C   LIG A   1       3.053  -2.154  -1.112  0.00  0.00    +0.167 A 
ATOM     22  C   LIG A   1       2.129  -2.013  -0.098  0.00  0.00    +0.053 A 
ENDBRANCH   5  14
BRANCH  10  23
ATOM     23  O   LIG A   1       0.371   3.794   1.498  0.00  0.00    -0.491 OA
ATOM     24  C   LIG A   1       1.751   3.751   1.142  0.00  0.00    +0.277 C 
ENDBRANCH  10  23
BRANCH   9  25
ATOM     25  O   LIG A   1      -2.432   4.092   0.832  0.00  0.00    -0.491 OA
ATOM     26  C   LIG A   1      -1.720   5.268   0.471  0.00  0.00    +0.277 C 
ENDBRANCH   9  25
TORSDOF 3
