REMARK  Name = NuBBE_1385
REMARK  7 active torsions:
REMARK  status: ('A' for Active; 'I' for Inactive)
REMARK    1  A    between atoms: C_1  and  C_2
REMARK    2  A    between atoms: C_2  and  C_3
REMARK    3  A    between atoms: C_4  and  C_5
REMARK    4  A    between atoms: C_5  and  C_6
REMARK    5  A    between atoms: C_6  and  C_7
REMARK    6  A    between atoms: C_7  and  C_8
REMARK    7  A    between atoms: C_9  and  C_10
REMARK                            x       y       z     vdW  Elec       q    Type
REMARK                         _______ _______ _______ _____ _____    ______ ____
ROOT
ATOM      1  C   LIG A   1       1.638   0.062  -1.222  0.00  0.00    +0.034 C 
ENDROOT
BRANCH   1   2
ATOM      2  C   LIG A   1       0.981  -1.256  -0.845  0.00  0.00    -0.069 C 
ATOM      3  C   LIG A   1       1.310  -1.796   0.521  0.00  0.00    +0.039 C 
ATOM      4  C   LIG A   1       0.172  -1.873  -1.727  0.00  0.00    +0.041 C 
BRANCH   4   5
ATOM      5  C   LIG A   1      -0.556  -3.134  -1.471  0.00  0.00    +0.251 C 
ATOM      6  O   LIG A   1      -1.258  -3.647  -2.336  0.00  0.00    -0.296 OA
ENDBRANCH   4   5
ENDBRANCH   1   2
BRANCH   1   7
ATOM      7  C   LIG A   1       1.295   1.246  -0.304  0.00  0.00    +0.031 C 
BRANCH   7  11
ATOM      8  C   LIG A   1      -2.458   1.948   0.599  0.00  0.00    +0.038 C 
ATOM      9  C   LIG A   1      -1.007   1.581   0.772  0.00  0.00    -0.080 C 
ATOM     10  C   LIG A   1      -0.623   1.244   2.186  0.00  0.00    +0.038 C 
ATOM     11  C   LIG A   1      -0.174   1.572  -0.287  0.00  0.00    -0.028 C 
ENDBRANCH   7  11
ENDBRANCH   1   7
TORSDOF 4
