REMARK  Name = NuBBE_1148
REMARK  13 active torsions:
REMARK  status: ('A' for Active; 'I' for Inactive)
REMARK    1  A    between atoms: C_1  and  C_2
REMARK    2  A    between atoms: C_6  and  C_28
REMARK    3  A    between atoms: C_7  and  C_8
REMARK    4  A    between atoms: C_9  and  C_11
REMARK    5  A    between atoms: C_11  and  C_13
REMARK    6  A    between atoms: C_11  and  C_14
REMARK    7  A    between atoms: C_14  and  C_15
REMARK    8  A    between atoms: C_15  and  O_17
REMARK    9  A    between atoms: C_15  and  C_18
REMARK   10  A    between atoms: C_21  and  C_22
REMARK   11  A    between atoms: C_21  and  C_23
REMARK   12  A    between atoms: C_33  and  C_34
REMARK   13  A    between atoms: C_33  and  C_39
REMARK                            x       y       z     vdW  Elec       q    Type
REMARK                         _______ _______ _______ _____ _____    ______ ____
ROOT
ATOM      1  C   LIG A   1      -3.574  -0.707   2.020  0.00  0.00    +0.012 C 
ATOM      2  C   LIG A   1      -2.293  -0.478   2.905  0.00  0.00    -0.021 C 
ATOM      3  C   LIG A   1      -1.154  -0.097   1.894  0.00  0.00    +0.021 C 
ATOM      4  C   LIG A   1      -0.514  -1.288   1.225  0.00  0.00    -0.063 C 
ATOM      5  C   LIG A   1       0.297  -0.963  -0.040  0.00  0.00    -0.005 C 
ATOM      6  C   LIG A   1       0.754   0.553  -0.162  0.00  0.00    -0.020 C 
ATOM      7  C   LIG A   1      -0.220   1.596  -0.742  0.00  0.00    +0.012 C 
ATOM      8  C   LIG A   1       2.066   0.518  -1.044  0.00  0.00    -0.001 C 
ATOM      9  C   LIG A   1       2.717  -0.821  -0.679  0.00  0.00    +0.005 C 
ATOM     10  C   LIG A   1       1.659  -1.710  -0.018  0.00  0.00    +0.012 C 
ATOM     11  C   LIG A   1       1.110   1.018   1.304  0.00  0.00    +0.008 C 
ATOM     12  C   LIG A   1      -0.056   0.897   2.320  0.00  0.00    +0.009 C 
ATOM     13  C   LIG A   1      -0.608  -1.492  -1.168  0.00  0.00    +0.016 C 
ATOM     14  C   LIG A   1      -0.747  -2.558   1.619  0.00  0.00    -0.026 C 
ATOM     15  C   LIG A   1      -1.690  -2.950   2.710  0.00  0.00    +0.032 C 
ATOM     16  C   LIG A   1      -1.992  -1.798   3.686  0.00  0.00    +0.012 C 
ATOM     17  C   LIG A   1      -0.937  -1.692   4.842  0.00  0.00    +0.027 C 
ATOM     18  C   LIG A   1       0.495  -2.155   4.482  0.00  0.00    +0.019 C 
ATOM     19  C   LIG A   1      -0.832  -0.263   5.386  0.00  0.00    +0.139 C 
ATOM     20  C   LIG A   1      -2.024   0.646   5.244  0.00  0.00    +0.075 C 
ATOM     21  C   LIG A   1      -2.672   0.664   3.872  0.00  0.00    +0.015 C 
ATOM     22  O   LIG A   1       0.134   0.111   6.038  0.00  0.00    -0.297 OA
ATOM     23  C   LIG A   1      -1.417  -2.583   6.009  0.00  0.00    +0.019 C 
ENDROOT
BRANCH   8  24
ATOM     24  C   LIG A   1       2.016   0.832  -2.605  0.00  0.00    -0.008 C 
ATOM     25  C   LIG A   1       3.442   1.003  -3.156  0.00  0.00    +0.008 C 
BRANCH  24  26
ATOM     26  C   LIG A   1       1.246  -0.161  -3.496  0.00  0.00    +0.037 C 
BRANCH  26  27
ATOM     27  C   LIG A   1       1.052   0.192  -4.986  0.00  0.00    +0.146 C 
BRANCH  27  28
ATOM     28  C   LIG A   1       0.184   1.403  -5.166  0.00  0.00    +0.179 C 
ATOM     29  O   LIG A   1      -0.075   1.734  -6.546  0.00  0.00    -0.363 OA
ATOM     30  C   LIG A   1       0.595   2.740  -5.776  0.00  0.00    +0.093 C 
ATOM     31  C   LIG A   1      -0.255   3.927  -5.435  0.00  0.00    +0.044 C 
ATOM     32  C   LIG A   1       1.969   3.045  -6.286  0.00  0.00    +0.044 C 
ENDBRANCH  27  28
BRANCH  27  33
ATOM     33  O   LIG A   1       0.359  -0.922  -5.572  0.00  0.00    -0.389 OA
ATOM     34  H   LIG A   1       0.143  -0.654  -6.485  0.00  0.00    +0.210 HD
ENDBRANCH  27  33
ENDBRANCH  26  27
ENDBRANCH  24  26
ENDBRANCH   8  24
TORSDOF 5
