@<TRIPOS>MOLECULE
NuBBE_1214
 35 36 0 0 0
SMALL
GASTEIGER

@<TRIPOS>ATOM
      1 O          -6.3608    1.2149    0.2133 O.2     1  LIG1       -0.2452
      2 C          -5.1390    1.2067    0.2165 C.ar    1  LIG1        0.3372
      3 C          -4.3770    2.4695    0.1945 C.ar    1  LIG1        0.0236
      4 C          -3.0415    2.5013    0.1946 C.ar    1  LIG1       -0.0443
      5 O          -4.4011    0.0297    0.2344 O.2     1  LIG1       -0.4220
      6 C          -2.9902    0.0498    0.2718 C.ar    1  LIG1        0.1425
      7 C          -2.2961    1.2541    0.2487 C.ar    1  LIG1        0.0181
      8 C          -0.9044    1.2254    0.3275 C.ar    1  LIG1       -0.0443
      9 C          -0.2133    0.0036    0.4649 C.ar    1  LIG1       -0.0022
     10 C           1.2955    0.0401    0.6567 C.3     1  LIG1        0.0058
     11 C           2.1025   -0.0326   -0.6534 C.3     1  LIG1        0.0798
     12 O           1.8029    1.1087   -1.4610 O.3     1  LIG1       -0.3872
     13 C           3.6097   -0.0397   -0.4383 C.2     1  LIG1       -0.0513
     14 C           4.2285    1.1610    0.2319 C.3     1  LIG1       -0.0416
     15 C           4.3861   -1.0569   -0.8533 C.2     1  LIG1       -0.0973
     16 C          -0.9360   -1.2044    0.4477 C.ar    1  LIG1        0.1269
     17 O          -0.2031   -2.3536    0.5863 O.3     1  LIG1       -0.4947
     18 C          -0.7559   -3.5214   -0.0121 C.3     1  LIG1        0.0788
     19 C          -2.3318   -1.1778    0.3600 C.ar    1  LIG1        0.0233
     20 H          -4.9702    3.3757    0.1804 H       1  LIG1        0.0689
     21 H          -2.5005    3.4412    0.1808 H       1  LIG1        0.0627
     22 H          -0.3381    2.1551    0.3057 H       1  LIG1        0.0628
     23 H           1.5961   -0.7655    1.3388 H       1  LIG1        0.0343
     24 H           1.5261    0.9731    1.1863 H       1  LIG1        0.0343
     25 H           1.7958   -0.9217   -1.2191 H       1  LIG1        0.0643
     26 H           2.3433    1.0237   -2.2645 H       1  LIG1        0.2102
     27 H           3.7084    1.4111    1.1602 H       1  LIG1        0.0275
     28 H           4.1949    2.0304   -0.4325 H       1  LIG1        0.0275
     29 H           5.2773    0.9851    0.4972 H       1  LIG1        0.0275
     30 H           3.9746   -1.9281   -1.3534 H       1  LIG1        0.0535
     31 H           5.4643   -1.0420   -0.7127 H       1  LIG1        0.0535
     32 H           0.0340   -4.2782   -0.0433 H       1  LIG1        0.0660
     33 H          -1.0755   -3.3309   -1.0423 H       1  LIG1        0.0660
     34 H          -1.5782   -3.9241    0.5877 H       1  LIG1        0.0660
     35 H          -2.9274   -2.0832    0.4001 H       1  LIG1        0.0691
@<TRIPOS>BOND
     1     1     2    2
     2     2     3   ar
     3     3     4   ar
     4     2     5   ar
     5     5     6   ar
     6     6     7   ar
     7     4     7   ar
     8     7     8   ar
     9     8     9   ar
    10     9    10    1
    11    10    11    1
    12    11    12    1
    13    11    13    1
    14    13    14    1
    15    13    15    2
    16     9    16   ar
    17    16    17    1
    18    17    18    1
    19    16    19   ar
    20     6    19   ar
    21     3    20    1
    22     4    21    1
    23     8    22    1
    24    10    23    1
    25    10    24    1
    26    11    25    1
    27    12    26    1
    28    14    27    1
    29    14    28    1
    30    14    29    1
    31    15    30    1
    32    15    31    1
    33    18    32    1
    34    18    33    1
    35    18    34    1
    36    19    35    1
