REMARK  Name = NuBBE_1055
REMARK  11 active torsions:
REMARK  status: ('A' for Active; 'I' for Inactive)
REMARK    1  A    between atoms: C_1  and  C_2
REMARK    2  A    between atoms: C_2  and  C_3
REMARK    3  A    between atoms: C_4  and  C_6
REMARK    4  A    between atoms: C_6  and  C_7
REMARK    5  A    between atoms: C_7  and  O_8
REMARK    6  A    between atoms: O_8  and  C_9
REMARK    7  A    between atoms: C_11  and  C_12
REMARK    8  A    between atoms: C_13  and  O_21
REMARK    9  A    between atoms: C_14  and  C_15
REMARK   10  A    between atoms: C_24  and  C_25
REMARK   11  A    between atoms: C_30  and  C_32
REMARK                            x       y       z     vdW  Elec       q    Type
REMARK                         _______ _______ _______ _____ _____    ______ ____
ROOT
ATOM      1  C   LIG A   1      -0.058   1.930  -4.066  0.00  0.00    +0.019 C 
ATOM      2  C   LIG A   1       0.589   1.151  -2.890  0.00  0.00    +0.032 C 
ATOM      3  C   LIG A   1       1.693   0.333  -3.612  0.00  0.00    +0.019 C 
ATOM      4  C   LIG A   1      -0.484   0.235  -2.045  0.00  0.00    +0.029 C 
ATOM      5  C   LIG A   1       0.229  -0.446  -0.690  0.00  0.00    +0.062 C 
ATOM      6  C   LIG A   1       1.290  -1.436  -1.287  0.00  0.00    +0.022 C 
ATOM      7  C   LIG A   1      -0.809  -1.333   0.765  0.00  0.00    +0.121 C 
ATOM      8  C   LIG A   1      -0.436  -0.140   2.519  0.00  0.00    +0.159 C 
ATOM      9  C   LIG A   1      -0.786   1.015   3.653  0.00  0.00    +0.064 C 
ATOM     10  O   LIG A   1       0.519   1.320   1.784  0.00  0.00    -0.482 OA
ATOM     11  C   LIG A   1       0.982   1.068   0.092  0.00  0.00    +0.112 C 
ATOM     12  C   LIG A   1       1.335   2.170  -0.570  0.00  0.00    +0.088 C 
ATOM     13  C   LIG A   1       1.327   2.214  -2.043  0.00  0.00    +0.165 C 
ATOM     14  O   LIG A   1       1.961   3.130  -2.574  0.00  0.00    -0.292 OA
ATOM     15  C   LIG A   1      -0.560  -2.885   0.938  0.00  0.00    +0.041 C 
ATOM     16  C   LIG A   1      -0.143  -3.105   2.347  0.00  0.00    +0.018 C 
ATOM     17  C   LIG A   1       0.020  -1.695   2.893  0.00  0.00    +0.035 C 
ATOM     18  C   LIG A   1       0.627  -1.895   4.301  0.00  0.00    +0.020 C 
ATOM     19  C   LIG A   1      -1.514  -1.003   2.979  0.00  0.00    -0.008 C 
ATOM     20  C   LIG A   1      -2.491  -0.257   2.396  0.00  0.00    +0.095 C 
ATOM     21  C   LIG A   1      -2.054   0.712   1.279  0.00  0.00    +0.333 C 
ATOM     22  O   LIG A   1      -0.641   0.395   0.856  0.00  0.00    -0.453 OA
ATOM     23  C   LIG A   1       0.954  -0.700   1.539  0.00  0.00    +0.220 C 
ATOM     24  O   LIG A   1      -2.740   1.625   0.858  0.00  0.00    -0.246 OA
ENDROOT
BRANCH  23  25
ATOM     25  C   LIG A   1       2.349  -0.132   2.167  0.00  0.00    +0.031 A 
ATOM     26  C   LIG A   1       3.501   0.161   1.444  0.00  0.00    +0.202 A 
ATOM     27  O   LIG A   1       4.510   0.594   2.241  0.00  0.00    -0.471 OA
ATOM     28  C   LIG A   1       4.036   0.598   3.505  0.00  0.00    +0.195 A 
ATOM     29  C   LIG A   1       2.727   0.181   3.515  0.00  0.00    +0.048 A 
ENDBRANCH  23  25
BRANCH   7  30
ATOM     30  O   LIG A   1      -2.165  -1.425   0.191  0.00  0.00    -0.383 OA
ATOM     31  H   LIG A   1      -2.097  -1.869  -0.672  0.00  0.00    +0.210 HD
ENDBRANCH   7  30
BRANCH   4  32
ATOM     32  C   LIG A   1      -1.809   0.996  -1.763  0.00  0.00    +0.126 C 
BRANCH  32  33
ATOM     33  C   LIG A   1      -2.724   1.464  -2.882  0.00  0.00    +0.307 C 
ATOM     34  O   LIG A   1      -3.460   2.439  -2.793  0.00  0.00    -0.251 OA
BRANCH  33  35
ATOM     35  O   LIG A   1      -2.679   0.625  -3.948  0.00  0.00    -0.468 OA
ATOM     36  C   LIG A   1      -3.513   0.988  -5.054  0.00  0.00    +0.280 C 
ENDBRANCH  33  35
ENDBRANCH  32  33
ENDBRANCH   4  32
TORSDOF 5
