@<TRIPOS>MOLECULE
NuBBE_679
 55 57 0 0 0
SMALL
GASTEIGER

@<TRIPOS>ATOM
      1 C          -1.8867    3.2335   -4.2537 C.3     1  LIG1       -0.0383
      2 C          -3.1089    2.5116   -3.6947 C.3     1  LIG1        0.0620
      3 H          -3.4441    3.0249   -2.7860 H       1  LIG1        0.0597
      4 O          -4.1593    2.6265   -4.6624 O.3     1  LIG1       -0.3914
      5 C          -2.8853    1.0156   -3.4056 C.3     1  LIG1        0.0452
      6 H          -2.7218    0.4904   -4.3467 H       1  LIG1        0.0403
      7 C          -4.1634    0.3762   -2.8452 C.3     1  LIG1       -0.0530
      8 C          -1.7045    0.7914   -2.4487 C.2     1  LIG1        0.1756
      9 C          -0.4825    0.0925   -2.9335 C.2     1  LIG1        0.1097
     10 C           0.5077   -0.4989   -2.2598 C.2     1  LIG1        0.0311
     11 C           0.7621   -0.7393   -0.8580 C.2     1  LIG1        0.0255
     12 C           0.9214    0.2302    0.0590 C.2     1  LIG1        0.1005
     13 O           1.1928   -0.0050    1.3978 O.2     1  LIG1       -0.4629
     14 C           1.1249   -1.3185    1.8771 C.2     1  LIG1        0.1279
     15 C           1.1062   -1.4296    3.3262 C.2     1  LIG1       -0.0230
     16 C           1.6491   -0.5282    4.1681 C.2     1  LIG1       -0.0777
     17 C           1.5686   -0.6079    5.6801 C.3     1  LIG1       -0.0256
     18 H           1.0217   -1.5172    5.9590 H       1  LIG1        0.0340
     19 C           2.9608   -0.7049    6.3200 C.3     1  LIG1       -0.0590
     20 C           0.8255    0.5993    6.2895 C.3     1  LIG1       -0.0499
     21 C          -0.6270    0.7128    5.8493 C.3     1  LIG1       -0.0648
     22 C           1.0353   -2.3729    1.0398 C.2     1  LIG1       -0.0114
     23 C           1.0587   -2.1055   -0.3939 C.2     1  LIG1       -0.0076
     24 C           1.3542   -3.0612   -1.2950 C.2     1  LIG1       -0.0069
     25 H           1.5609   -4.0933   -1.0349 H       1  LIG1        0.0660
     26 C           1.4439   -1.2239   -3.1621 C.3     1  LIG1        0.1985
     27 O           0.8923   -1.0174   -4.4547 O.3     1  LIG1       -0.4418
     28 C          -0.1584   -0.1623   -4.3527 C.2     1  LIG1        0.3443
     29 O          -0.7150    0.3231   -5.3088 O.2     1  LIG1       -0.2448
     30 C           2.8494   -0.6181   -3.1529 C.3     1  LIG1       -0.0130
     31 C           1.4889   -2.7191   -2.7496 C.2     1  LIG1        0.2043
     32 O           1.6722   -3.6323   -3.5524 O.2     1  LIG1       -0.2880
     33 O          -1.7635    1.1773   -1.2767 O.2     1  LIG1       -0.2914
     34 H          -2.1139    4.2957   -4.4025 H       1  LIG1        0.0255
     35 H          -1.6123    2.8420   -5.2386 H       1  LIG1        0.0255
     36 H          -1.0233    3.1672   -3.5864 H       1  LIG1        0.0255
     37 H          -4.3338    3.5724   -4.8059 H       1  LIG1        0.2098
     38 H          -3.9952   -0.6741   -2.5858 H       1  LIG1        0.0237
     39 H          -4.9665    0.4043   -3.5918 H       1  LIG1        0.0237
     40 H          -4.5212    0.8940   -1.9494 H       1  LIG1        0.0237
     41 H           0.8723    1.2937   -0.1301 H       1  LIG1        0.1036
     42 H           0.5909   -2.2984    3.7316 H       1  LIG1        0.0651
     43 H           2.1706    0.3358    3.7576 H       1  LIG1        0.0576
     44 H           3.4993   -1.5951    5.9791 H       1  LIG1        0.0235
     45 H           2.8722   -0.7766    7.4114 H       1  LIG1        0.0235
     46 H           3.5777    0.1739    6.0995 H       1  LIG1        0.0235
     47 H           1.3487    1.5348    6.0527 H       1  LIG1        0.0268
     48 H           0.8372    0.5049    7.3831 H       1  LIG1        0.0268
     49 H          -0.7098    0.9277    4.7800 H       1  LIG1        0.0230
     50 H          -1.1178    1.5279    6.3916 H       1  LIG1        0.0230
     51 H          -1.1732   -0.2110    6.0640 H       1  LIG1        0.0230
     52 H           0.9780   -3.3961    1.3958 H       1  LIG1        0.0660
     53 H           2.8156    0.4534   -3.3876 H       1  LIG1        0.0276
     54 H           3.4772   -1.0858   -3.9192 H       1  LIG1        0.0276
     55 H           3.3508   -0.7401   -2.1871 H       1  LIG1        0.0276
@<TRIPOS>BOND
     1     1     2    1
     2     2     3    1
     3     2     4    1
     4     5     7    1
     5     5     8    1
     6     9    10    2
     7    10    11    1
     8    11    12    2
     9    12    13    1
    10    13    14    1
    11    15    16    2
    12    16    17    1
    13    17    18    1
    14    17    19    1
    15    17    20    1
    16    20    21    1
    17    14    22    2
    18    22    23    1
    19    11    23    1
    20    23    24    2
    21    10    26    1
    22    26    27    1
    23    27    28    1
    24     9    28    1
    25    26    31    1
    26    24    31    1
    27     8    33    2
    28     8     9    1
    29    14    15    1
    30    24    25    1
    31    26    30    1
    32    28    29    2
    33    31    32    2
    34     5     6    1
    35     5     2    1
    36     1    34    1
    37     1    35    1
    38     1    36    1
    39     4    37    1
    40     7    38    1
    41     7    39    1
    42     7    40    1
    43    12    41    1
    44    15    42    1
    45    16    43    1
    46    19    44    1
    47    19    45    1
    48    19    46    1
    49    20    47    1
    50    20    48    1
    51    21    49    1
    52    21    50    1
    53    21    51    1
    54    22    52    1
    55    30    53    1
    56    30    54    1
    57    30    55    1
