REMARK  Name = NuBBE_1168
REMARK  7 active torsions:
REMARK  status: ('A' for Active; 'I' for Inactive)
REMARK    1  A    between atoms: O_1  and  C_2
REMARK    2  A    between atoms: C_5  and  C_8
REMARK    3  A    between atoms: C_9  and  C_10
REMARK    4  A    between atoms: N_11  and  C_12
REMARK    5  A    between atoms: C_12  and  C_13
REMARK    6  A    between atoms: C_13  and  C_14
REMARK    7  A    between atoms: C_17  and  O_20
REMARK                            x       y       z     vdW  Elec       q    Type
REMARK                         _______ _______ _______ _____ _____    ______ ____
ROOT
ATOM      1  C   LIG A   1      -1.815  -0.447   0.940  0.00  0.00    +0.237 C 
ATOM      2  N   LIG A   1      -1.507   0.861   0.678  0.00  0.00    -0.311 N 
ATOM      3  O   LIG A   1      -2.941  -0.860   1.192  0.00  0.00    -0.271 OA
ATOM      4  H   LIG A   1      -0.547   1.127   0.498  0.00  0.00    +0.149 HD
ENDROOT
BRANCH   1   6
ATOM      5  C   LIG A   1      -0.759  -2.648   1.114  0.00  0.00    +0.013 C 
ATOM      6  C   LIG A   1      -0.628  -1.333   0.887  0.00  0.00    +0.068 C 
BRANCH   5  10
ATOM      7  C   LIG A   1       2.637  -5.198   1.035  0.00  0.00    +0.117 A 
ATOM      8  C   LIG A   1       1.912  -4.988  -0.134  0.00  0.00    +0.046 A 
ATOM      9  C   LIG A   1       0.792  -4.152  -0.107  0.00  0.00    +0.011 A 
ATOM     10  C   LIG A   1       0.401  -3.536   1.087  0.00  0.00    -0.025 A 
ATOM     11  C   LIG A   1       1.141  -3.756   2.254  0.00  0.00    +0.011 A 
ATOM     12  C   LIG A   1       2.260  -4.589   2.227  0.00  0.00    +0.046 A 
BRANCH   7  13
ATOM     13  O   LIG A   1       3.736  -6.004   1.055  0.00  0.00    -0.507 OA
ATOM     14  H   LIG A   1       3.872  -6.366   0.164  0.00  0.00    +0.292 HD
ENDBRANCH   7  13
ENDBRANCH   5  10
ENDBRANCH   1   6
BRANCH   2  15
ATOM     15  C   LIG A   1      -2.498   1.923   0.674  0.00  0.00    +0.109 C 
BRANCH  15  16
ATOM     16  C   LIG A   1      -2.600   2.620  -0.687  0.00  0.00    +0.054 C 
BRANCH  16  17
ATOM     17  C   LIG A   1      -1.304   3.267  -1.120  0.00  0.00    -0.046 A 
ATOM     18  C   LIG A   1      -1.009   4.591  -0.768  0.00  0.00    +0.007 A 
ATOM     19  C   LIG A   1       0.198   5.176  -1.160  0.00  0.00    +0.045 A 
ATOM     20  C   LIG A   1       1.114   4.430  -1.896  0.00  0.00    +0.117 A 
ATOM     21  C   LIG A   1       0.845   3.113  -2.243  0.00  0.00    +0.045 A 
ATOM     22  C   LIG A   1      -0.364   2.533  -1.861  0.00  0.00    +0.007 A 
BRANCH  20  23
ATOM     23  O   LIG A   1       2.301   4.962  -2.304  0.00  0.00    -0.507 OA
ATOM     24  H   LIG A   1       2.332   5.894  -2.031  0.00  0.00    +0.292 HD
ENDBRANCH  20  23
ENDBRANCH  16  17
ENDBRANCH  15  16
ENDBRANCH   2  15
TORSDOF 7
