REMARK  Name = NuBBE_231
REMARK  24 active torsions:
REMARK  status: ('A' for Active; 'I' for Inactive)
REMARK    1  A    between atoms: C_1  and  C_2
REMARK    2  A    between atoms: C_4  and  O_6
REMARK    3  A    between atoms: O_6  and  C_7
REMARK    4  A    between atoms: C_7  and  C_8
REMARK    5  A    between atoms: C_8  and  C_9
REMARK    6  A    between atoms: C_9  and  C_10
REMARK    7  A    between atoms: C_12  and  O_14
REMARK    8  A    between atoms: O_14  and  C_15
REMARK    9  A    between atoms: C_15  and  C_16
REMARK   10  A    between atoms: C_20  and  O_22
REMARK   11  A    between atoms: O_22  and  C_23
REMARK   12  A    between atoms: C_23  and  C_24
REMARK   13  A    between atoms: C_27  and  O_29
REMARK   14  A    between atoms: O_29  and  C_30
REMARK   15  A    between atoms: C_30  and  C_31
REMARK   16  A    between atoms: C_31  and  C_32
REMARK   17  A    between atoms: C_32  and  C_33
REMARK   18  A    between atoms: C_36  and  O_38
REMARK   19  A    between atoms: O_38  and  C_39
REMARK   20  A    between atoms: C_43  and  C_44
REMARK   21  A    between atoms: C_43  and  C_45
REMARK   22  A    between atoms: C_45  and  C_46
REMARK   23  A    between atoms: C_47  and  C_48
REMARK   24  A    between atoms: C_47  and  C_50
REMARK                            x       y       z     vdW  Elec       q    Type
REMARK                         _______ _______ _______ _____ _____    ______ ____
ROOT
ATOM      1  C   LIG A   1      -4.067  -0.350   1.099  0.00  0.00    +0.012 C 
ATOM      2  C   LIG A   1      -2.618  -0.240   0.580  0.00  0.00    +0.037 C 
ATOM      3  C   LIG A   1      -1.907  -1.600   0.612  0.00  0.00    +0.221 C 
ATOM      4  C   LIG A   1      -0.625  -1.482   1.413  0.00  0.00    +0.234 C 
ATOM      5  C   LIG A   1       0.590  -0.658   0.819  0.00  0.00    +0.104 C 
ATOM      6  C   LIG A   1       1.313  -0.623  -0.600  0.00  0.00    +0.013 C 
ATOM      7  C   LIG A   1       2.704  -1.243  -0.529  0.00  0.00    +0.343 C 
ATOM      8  O   LIG A   1       3.082  -0.844   0.771  0.00  0.00    -0.297 OA
ATOM      9  C   LIG A   1       1.964  -1.080   1.633  0.00  0.00    +0.328 C 
ATOM     10  C   LIG A   1       1.164   0.304  -1.572  0.00  0.00    +0.010 C 
ATOM     11  C   LIG A   1       0.675   1.665  -1.238  0.00  0.00    +0.141 C 
ATOM     12  C   LIG A   1       0.705   1.847   0.274  0.00  0.00    +0.041 C 
ATOM     13  C   LIG A   1      -0.049   0.801   1.022  0.00  0.00    +0.018 C 
ATOM     14  C   LIG A   1      -1.708   1.099   0.867  0.00  0.00    -0.018 C 
ATOM     15  C   LIG A   1      -2.258   1.929  -0.302  0.00  0.00    +0.012 C 
ENDROOT
BRANCH  11  16
ATOM     16  O   LIG A   1       1.410   2.710  -1.883  0.00  0.00    -0.376 OA
ATOM     17  C   LIG A   1       2.778   2.796  -1.542  0.00  0.00    +0.194 C 
ENDBRANCH  11  16
BRANCH   7  18
ATOM     18  O   LIG A   1       3.590  -0.718  -1.545  0.00  0.00    -0.431 OA
BRANCH  18  19
ATOM     19  C   LIG A   1       4.772  -0.151  -1.191  0.00  0.00    +0.306 C 
ATOM     20  C   LIG A   1       5.245   0.778  -2.273  0.00  0.00    +0.136 C 
ATOM     21  O   LIG A   1       5.387  -0.287  -0.144  0.00  0.00    -0.251 OA
ENDBRANCH  18  19
ENDBRANCH   7  18
BRANCH   9  22
ATOM     22  O   LIG A   1       2.254  -2.428   2.158  0.00  0.00    -0.434 OA
BRANCH  22  23
ATOM     23  C   LIG A   1       1.903  -3.575   1.536  0.00  0.00    +0.309 C 
ATOM     24  O   LIG A   1       0.738  -3.899   1.349  0.00  0.00    -0.251 OA
BRANCH  23  25
ATOM     25  C   LIG A   1       3.005  -4.540   1.121  0.00  0.00    +0.120 C 
BRANCH  25  26
ATOM     26  C   LIG A   1       2.379  -5.605   0.181  0.00  0.00    +0.008 C 
ATOM     27  C   LIG A   1       1.860  -4.920  -1.066  0.00  0.00    +0.004 C 
ENDBRANCH  25  26
ENDBRANCH  23  25
ENDBRANCH  22  23
ENDBRANCH   9  22
BRANCH   4  28
ATOM     28  O   LIG A   1      -1.117  -0.708   2.720  0.00  0.00    -0.457 OA
BRANCH  28  29
ATOM     29  C   LIG A   1      -1.936  -1.043   3.760  0.00  0.00    +0.304 C 
ATOM     30  C   LIG A   1      -2.953   0.044   4.169  0.00  0.00    +0.136 C 
ATOM     31  O   LIG A   1      -1.836  -2.089   4.391  0.00  0.00    -0.251 OA
ENDBRANCH  28  29
ENDBRANCH   4  28
BRANCH  14  32
ATOM     32  C   LIG A   1      -2.044   2.113   2.081  0.00  0.00    +0.034 C 
BRANCH  32  33
ATOM     33  C   LIG A   1      -1.515   3.544   2.357  0.00  0.00    -0.023 C 
ATOM     34  C   LIG A   1      -1.143   4.648   1.665  0.00  0.00    -0.055 C 
ATOM     35  C   LIG A   1      -0.833   5.956   2.362  0.00  0.00    +0.043 C 
BRANCH  34  36
ATOM     36  C   LIG A   1      -1.000   4.866   0.234  0.00  0.00    -0.005 C 
ATOM     37  C   LIG A   1      -1.339   5.993  -0.400  0.00  0.00    +0.008 C 
ENDBRANCH  34  36
ENDBRANCH  32  33
ENDBRANCH  14  32
BRANCH   3  38
ATOM     38  O   LIG A   1      -2.086  -2.234  -0.690  0.00  0.00    -0.457 OA
BRANCH  38  39
ATOM     39  C   LIG A   1      -1.103  -2.670  -1.513  0.00  0.00    +0.307 C 
ATOM     40  O   LIG A   1       0.036  -2.643  -1.296  0.00  0.00    -0.251 OA
BRANCH  39  41
ATOM     41  C   LIG A   1      -1.671  -3.008  -2.884  0.00  0.00    +0.120 C 
BRANCH  41  42
ATOM     42  C   LIG A   1      -1.487  -1.723  -3.676  0.00  0.00    +0.008 C 
ATOM     43  C   LIG A   1      -2.075  -1.729  -5.068  0.00  0.00    +0.004 C 
ENDBRANCH  41  42
ENDBRANCH  39  41
ENDBRANCH  38  39
ENDBRANCH   3  38
TORSDOF 16
