REMARK  Name = NuBBE_938
REMARK  6 active torsions:
REMARK  status: ('A' for Active; 'I' for Inactive)
REMARK    1  A    between atoms: C_1  and  C_5
REMARK    2  A    between atoms: C_1  and  C_7
REMARK    3  A    between atoms: C_2  and  C_3
REMARK    4  A    between atoms: C_2  and  C_4
REMARK    5  A    between atoms: C_12  and  O_13
REMARK    6  A    between atoms: O_13  and  C_14
REMARK                            x       y       z     vdW  Elec       q    Type
REMARK                         _______ _______ _______ _____ _____    ______ ____
ROOT
ATOM      1  C   LIG A   1       0.083  -0.173   0.265  0.00  0.00    +0.070 A 
ATOM      2  C   LIG A   1       0.785   1.034   0.410  0.00  0.00    +0.150 A 
ATOM      3  C   LIG A   1       2.178   1.080   0.404  0.00  0.00    +0.018 A 
ATOM      4  C   LIG A   1       2.893  -0.108   0.249  0.00  0.00    +0.015 A 
ATOM      5  C   LIG A   1       2.216  -1.326   0.118  0.00  0.00    +0.047 A 
ATOM      6  C   LIG A   1       0.816  -1.369   0.139  0.00  0.00    +0.131 A 
ATOM      7  C   LIG A   1       2.853   2.359   0.546  0.00  0.00    +0.018 A 
ATOM      8  C   LIG A   1       2.130   3.472   0.711  0.00  0.00    +0.092 A 
ATOM      9  C   LIG A   1       0.657   3.459   0.739  0.00  0.00    +0.337 A 
ATOM     10  O   LIG A   1       0.026   4.499   0.888  0.00  0.00    -0.245 OA
ATOM     11  O   LIG A   1       0.041   2.232   0.564  0.00  0.00    -0.421 OA
ENDROOT
BRANCH   1  12
ATOM     12  C   LIG A   1      -1.398  -0.184   0.268  0.00  0.00    +0.027 C 
ATOM     13  C   LIG A   1      -2.113  -0.082  -0.881  0.00  0.00    -0.065 C 
ATOM     14  C   LIG A   1      -3.620  -0.021  -0.964  0.00  0.00    +0.039 C 
ATOM     15  C   LIG A   1      -1.477   0.009  -2.252  0.00  0.00    +0.039 C 
BRANCH  12  16
ATOM     16  C   LIG A   1      -2.057  -0.337   1.597  0.00  0.00    +0.259 C 
ATOM     17  O   LIG A   1      -1.478  -0.145   2.667  0.00  0.00    -0.296 OA
ENDBRANCH  12  16
ENDBRANCH   1  12
BRANCH   6  18
ATOM     18  O   LIG A   1       0.095  -2.526  -0.029  0.00  0.00    -0.494 OA
ATOM     19  C   LIG A   1       0.697  -3.713   0.477  0.00  0.00    +0.277 C 
ENDBRANCH   6  18
TORSDOF 3
