@<TRIPOS>MOLECULE
NuBBE_36
 57 61 0 0 0
SMALL
GASTEIGER

@<TRIPOS>ATOM
      1 C          -0.7327   -5.7086   -2.6704 C.3     1  LIG1        0.0790
      2 O          -1.8976   -5.2437   -3.3489 O.3     1  LIG1       -0.4913
      3 C          -2.4207   -4.0625   -2.8829 C.ar    1  LIG1        0.1657
      4 C          -3.5829   -3.5920   -3.4810 C.ar    1  LIG1        0.2075
      5 O          -4.2725   -4.1858   -4.4920 O.3     1  LIG1       -0.4489
      6 C          -5.3554   -3.2500   -4.6767 C.3     1  LIG1        0.2334
      7 O          -5.2924   -2.1190   -3.7885 O.3     1  LIG1       -0.4525
      8 C          -4.1682   -2.4099   -3.0747 C.ar    1  LIG1        0.1702
      9 C          -3.6529   -1.6377   -2.0646 C.ar    1  LIG1       -0.0103
     10 C          -2.4845   -2.0821   -1.4271 C.ar    1  LIG1       -0.0114
     11 C          -1.8531   -1.2610   -0.3289 C.3     1  LIG1        0.0892
     12 H          -2.6417   -0.7572    0.2438 H       1  LIG1        0.0650
     13 C          -0.8153   -0.2852   -0.8904 C.3     1  LIG1        0.0205
     14 H          -0.4780   -0.5686   -1.8938 H       1  LIG1        0.0356
     15 C          -1.2663    1.1512   -0.8396 C.3     1  LIG1        0.0544
     16 O          -1.1367    1.5538    0.5268 O.3     1  LIG1       -0.3712
     17 C          -0.1472    0.7147    1.1592 C.3     1  LIG1        0.0892
     18 H          -0.6395    0.2629    2.0290 H       1  LIG1        0.0650
     19 C           1.0134    1.5548    1.6343 C.ar    1  LIG1       -0.0114
     20 C           1.7653    1.1395    2.7362 C.ar    1  LIG1       -0.0104
     21 C           2.8731    1.8752    3.1730 C.ar    1  LIG1        0.1655
     22 O           3.6127    1.5267    4.2813 O.3     1  LIG1       -0.4913
     23 C           3.2074    0.3652    5.0019 C.3     1  LIG1        0.0790
     24 C           3.2604    3.0437    2.4714 C.ar    1  LIG1        0.2035
     25 O           4.3907    3.6758    2.9430 O.3     1  LIG1       -0.4885
     26 C           4.4898    5.0750    2.6999 C.3     1  LIG1        0.0791
     27 C           2.5108    3.4582    1.3517 C.ar    1  LIG1        0.1655
     28 O           2.9435    4.5156    0.5912 O.3     1  LIG1       -0.4913
     29 C           1.9216    5.3439    0.0423 C.3     1  LIG1        0.0790
     30 C           1.3939    2.7174    0.9583 C.ar    1  LIG1       -0.0104
     31 C           0.2893   -0.3353    0.1301 C.3     1  LIG1        0.0205
     32 H           1.2738   -0.1170   -0.2999 H       1  LIG1        0.0356
     33 C           0.2151   -1.7483    0.6528 C.3     1  LIG1        0.0544
     34 O          -1.1664   -2.1194    0.6102 O.3     1  LIG1       -0.3712
     35 C          -1.8798   -3.2857   -1.8618 C.ar    1  LIG1       -0.0104
     36 H          -0.4655   -6.6823   -3.0949 H       1  LIG1        0.0660
     37 H          -0.9157   -5.8552   -1.6012 H       1  LIG1        0.0660
     38 H           0.1099   -5.0302   -2.8370 H       1  LIG1        0.0660
     39 H          -6.3044   -3.7730   -4.5136 H       1  LIG1        0.1166
     40 H          -5.3283   -2.8863   -5.7100 H       1  LIG1        0.1166
     41 H          -4.1454   -0.7114   -1.7737 H       1  LIG1        0.0659
     42 H          -2.2963    1.3073   -1.1697 H       1  LIG1        0.0564
     43 H          -0.6091    1.7888   -1.4413 H       1  LIG1        0.0564
     44 H           1.4569    0.2309    3.2425 H       1  LIG1        0.0659
     45 H           3.4569   -0.5406    4.4380 H       1  LIG1        0.0660
     46 H           2.1415    0.3849    5.2572 H       1  LIG1        0.0660
     47 H           3.7553    0.3369    5.9483 H       1  LIG1        0.0660
     48 H           5.2400    5.4873    3.3809 H       1  LIG1        0.0660
     49 H           3.5442    5.5915    2.9013 H       1  LIG1        0.0660
     50 H           4.8493    5.2734    1.6851 H       1  LIG1        0.0660
     51 H           2.4004    6.2503   -0.3406 H       1  LIG1        0.0660
     52 H           1.1965    5.6416    0.8073 H       1  LIG1        0.0660
     53 H           1.4262    4.8591   -0.8044 H       1  LIG1        0.0660
     54 H           0.8160    3.0204    0.0924 H       1  LIG1        0.0659
     55 H           0.5931   -1.8623    1.6726 H       1  LIG1        0.0564
     56 H           0.7663   -2.4396    0.0051 H       1  LIG1        0.0564
     57 H          -0.9647   -3.5959   -1.3593 H       1  LIG1        0.0659
@<TRIPOS>BOND
     1     1     2    1
     2     2     3    1
     3     3     4   ar
     4     4     5    1
     5     5     6    1
     6     6     7    1
     7     4     8   ar
     8     7     8    1
     9     8     9   ar
    10     9    10   ar
    11    10    11    1
    12    11    12    1
    13    11    13    1
    14    13    14    1
    15    13    15    1
    16    15    16    1
    17    16    17    1
    18    19    20   ar
    19    20    21   ar
    20    21    22    1
    21    22    23    1
    22    21    24   ar
    23    24    25    1
    24    25    26    1
    25    24    27   ar
    26    27    28    1
    27    28    29    1
    28    27    30   ar
    29    19    30   ar
    30    17    31    1
    31    31    32    1
    32    13    31    1
    33    31    33    1
    34    33    34    1
    35    11    34    1
    36    10    35   ar
    37     3    35   ar
    38    17    19    1
    39    17    18    1
    40     1    36    1
    41     1    37    1
    42     1    38    1
    43     6    39    1
    44     6    40    1
    45     9    41    1
    46    15    42    1
    47    15    43    1
    48    20    44    1
    49    23    45    1
    50    23    46    1
    51    23    47    1
    52    26    48    1
    53    26    49    1
    54    26    50    1
    55    29    51    1
    56    29    52    1
    57    29    53    1
    58    30    54    1
    59    33    55    1
    60    33    56    1
    61    35    57    1
