REMARK  Name = NuBBE_1903
REMARK  7 active torsions:
REMARK  status: ('A' for Active; 'I' for Inactive)
REMARK    1  A    between atoms: C_1  and  O_2
REMARK    2  A    between atoms: O_2  and  C_3
REMARK    3  A    between atoms: C_7  and  C_8
REMARK    4  A    between atoms: C_16  and  C_17
REMARK    5  A    between atoms: C_17  and  C_18
REMARK    6  A    between atoms: C_17  and  O_19
REMARK    7  A    between atoms: C_17  and  C_20
REMARK                            x       y       z     vdW  Elec       q    Type
REMARK                         _______ _______ _______ _____ _____    ______ ____
ROOT
ATOM      1  C   LIG A   1      -1.105  -0.844  -0.502  0.00  0.00    +0.192 C 
ATOM      2  C   LIG A   1      -1.290   0.430  -1.368  0.00  0.00    +0.241 C 
ATOM      3  C   LIG A   1      -0.490   1.512  -0.772  0.00  0.00    +0.017 A 
ATOM      4  C   LIG A   1       0.758   1.353  -0.206  0.00  0.00    -0.014 A 
ATOM      5  C   LIG A   1       1.362   2.486   0.355  0.00  0.00    -0.043 A 
ATOM      6  C   LIG A   1       2.720   2.426   0.997  0.00  0.00    +0.044 C 
ATOM      7  C   LIG A   1       0.659   3.720   0.335  0.00  0.00    +0.005 A 
ATOM      8  C   LIG A   1      -0.644   3.817  -0.181  0.00  0.00    +0.015 A 
ATOM      9  C   LIG A   1      -1.198   2.677  -0.720  0.00  0.00    +0.066 A 
ATOM     10  C   LIG A   1      -2.552   2.377  -1.178  0.00  0.00    +0.340 C 
ATOM     11  O   LIG A   1      -2.596   1.025  -1.456  0.00  0.00    -0.450 OA
ATOM     12  O   LIG A   1      -3.477   3.153  -1.244  0.00  0.00    -0.245 OA
ATOM     13  C   LIG A   1       1.259  -0.025  -0.184  0.00  0.00    +0.013 C 
ATOM     14  C   LIG A   1       0.413  -1.086  -0.290  0.00  0.00    -0.006 C 
ENDROOT
BRANCH  14  15
ATOM     15  C   LIG A   1       0.890  -2.533  -0.209  0.00  0.00    +0.084 C 
ATOM     16  C   LIG A   1       0.249  -3.307   0.952  0.00  0.00    +0.046 C 
ATOM     17  C   LIG A   1       2.420  -2.670  -0.094  0.00  0.00    +0.046 C 
BRANCH  15  18
ATOM     18  O   LIG A   1       0.536  -3.163  -1.446  0.00  0.00    -0.385 OA
ATOM     19  H   LIG A   1      -0.381  -3.475  -1.377  0.00  0.00    +0.211 HD
ENDBRANCH  15  18
ENDBRANCH  14  15
BRANCH   1  21
ATOM     20  C   LIG A   1      -3.088  -0.839   0.863  0.00  0.00    +0.195 C 
ATOM     21  O   LIG A   1      -1.671  -0.761   0.816  0.00  0.00    -0.371 OA
ENDBRANCH   1  21
TORSDOF 3
