@<TRIPOS>MOLECULE
NuBBE_43
 35 34 0 0 0
SMALL
GASTEIGER

@<TRIPOS>ATOM
      1 N          -2.4085   -0.3019    0.4290 N.pl3   1  LIG1       -0.1296
      2 C          -1.1727    0.0411    0.4193 C.cat   1  LIG1        0.3790
      3 N          -0.5670    0.8966   -0.4388 N.pl3   1  LIG1       -0.2725
      4 C          -1.2353    1.7229   -1.4186 C.3     1  LIG1        0.0833
      5 C          -0.2511    1.9541   -2.5285 C.2     1  LIG1       -0.0521
      6 C          -0.1709    3.0196   -3.3501 C.2     1  LIG1       -0.0767
      7 C          -1.1275    4.1789   -3.3501 C.3     1  LIG1       -0.0440
      8 C           0.9226    3.1117   -4.3821 C.3     1  LIG1       -0.0440
      9 N          -0.2684   -0.4671    1.3007 N.pl3   1  LIG1       -0.2725
     10 C          -0.6759   -1.5282    2.2043 C.3     1  LIG1        0.0833
     11 C           0.5184   -1.9032    3.0360 C.2     1  LIG1       -0.0521
     12 C           1.1271   -3.1039    3.1234 C.2     1  LIG1       -0.0767
     13 C           0.7292   -4.3356    2.3563 C.3     1  LIG1       -0.0440
     14 C           2.2968   -3.3117    4.0504 C.3     1  LIG1       -0.0440
     15 H          -2.9179    0.1654   -0.3218 H       1  LIG1        0.3062
     16 H           0.2230    1.3645   -0.0134 H       1  LIG1        0.2582
     17 H          -1.5456    2.6604   -0.9453 H       1  LIG1        0.0700
     18 H          -2.1150    1.2260   -1.8370 H       1  LIG1        0.0700
     19 H           0.4679    1.1468   -2.6678 H       1  LIG1        0.0603
     20 H          -1.9485    4.0585   -2.6388 H       1  LIG1        0.0274
     21 H          -1.5768    4.2919   -4.3431 H       1  LIG1        0.0274
     22 H          -0.5995    5.1052   -3.1033 H       1  LIG1        0.0274
     23 H           1.6199    2.2690   -4.3250 H       1  LIG1        0.0274
     24 H           1.5025    4.0284   -4.2321 H       1  LIG1        0.0274
     25 H           0.4979    3.1280   -5.3908 H       1  LIG1        0.0274
     26 H           0.6184   -0.6643    0.8609 H       1  LIG1        0.2582
     27 H          -1.0694   -2.3733    1.6348 H       1  LIG1        0.0700
     28 H          -1.4697   -1.1752    2.8708 H       1  LIG1        0.0700
     29 H           0.8874   -1.0866    3.6560 H       1  LIG1        0.0603
     30 H          -0.0349   -4.1535    1.5986 H       1  LIG1        0.0274
     31 H           0.3424   -5.0955    3.0433 H       1  LIG1        0.0274
     32 H           1.5983   -4.7514    1.8357 H       1  LIG1        0.0274
     33 H           2.5591   -2.4035    4.6027 H       1  LIG1        0.0274
     34 H           3.1793   -3.6222    3.4813 H       1  LIG1        0.0274
     35 H           2.0646   -4.0918    4.7832 H       1  LIG1        0.0274
@<TRIPOS>BOND
     1     1     2    2
     2     2     3    1
     3     3     4    1
     4     4     5    1
     5     5     6    2
     6     6     7    1
     7     6     8    1
     8     2     9    1
     9     9    10    1
    10    10    11    1
    11    11    12    2
    12    12    13    1
    13    12    14    1
    14     1    15    1
    15     3    16    1
    16     4    17    1
    17     4    18    1
    18     5    19    1
    19     7    20    1
    20     7    21    1
    21     7    22    1
    22     8    23    1
    23     8    24    1
    24     8    25    1
    25     9    26    1
    26    10    27    1
    27    10    28    1
    28    11    29    1
    29    13    30    1
    30    13    31    1
    31    13    32    1
    32    14    33    1
    33    14    34    1
    34    14    35    1
