@<TRIPOS>MOLECULE
NuBBE_376
 30 32 0 0 0
SMALL
GASTEIGER

@<TRIPOS>ATOM
      1 O          -2.7975    1.9957   -0.0112 O.3     1  LIG1       -0.5060
      2 C          -1.4357    1.9000   -0.0399 C.ar    1  LIG1        0.1287
      3 C          -0.6920    3.0856   -0.0488 C.ar    1  LIG1       -0.0141
      4 C           0.7071    3.0502   -0.0753 C.ar    1  LIG1       -0.0180
      5 C           1.4979    4.3304   -0.0862 C.3     1  LIG1        0.0694
      6 O           1.2300    5.0744    1.0936 O.3     1  LIG1       -0.3904
      7 C           1.3464    1.8075   -0.0927 C.ar    1  LIG1       -0.0446
      8 C           0.5986    0.6168   -0.0836 C.ar    1  LIG1        0.0369
      9 C          -0.7986    0.6490   -0.0581 C.ar    1  LIG1        0.0744
     10 C          -1.5563   -0.6333   -0.0502 C.2     1  LIG1        0.1981
     11 C          -0.8156   -1.9133   -0.0673 C.ar    1  LIG1        0.0366
     12 C           0.5756   -1.9289   -0.0909 C.ar    1  LIG1        0.0333
     13 C           1.3301   -0.6657   -0.0993 C.2     1  LIG1        0.1946
     14 O           2.5560   -0.6801   -0.1171 O.2     1  LIG1       -0.2866
     15 C           1.2678   -3.1491   -0.1057 C.ar    1  LIG1       -0.0468
     16 C           0.5640   -4.3545   -0.0969 C.ar    1  LIG1       -0.0195
     17 C          -0.8263   -4.3302   -0.0734 C.ar    1  LIG1        0.1176
     18 O          -1.5545   -5.4816   -0.0638 O.3     1  LIG1       -0.5067
     19 C          -1.5206   -3.1244   -0.0587 C.ar    1  LIG1       -0.0087
     20 O          -2.7800   -0.6752   -0.0297 O.2     1  LIG1       -0.2865
     21 H          -3.0788    2.9241    0.0002 H       1  LIG1        0.2922
     22 H          -1.1925    4.0525   -0.0316 H       1  LIG1        0.0658
     23 H           1.2279    4.9364   -0.9571 H       1  LIG1        0.0607
     24 H           2.5746    4.1375   -0.1310 H       1  LIG1        0.0607
     25 H           1.2277    4.4472    1.8372 H       1  LIG1        0.2098
     26 H           2.4354    1.7579   -0.1140 H       1  LIG1        0.0628
     27 H           2.3564   -3.1628   -0.1239 H       1  LIG1        0.0626
     28 H           1.1128   -5.2915   -0.1083 H       1  LIG1        0.0654
     29 H          -0.9510   -6.2428   -0.0761 H       1  LIG1        0.2921
     30 H          -2.6088   -3.1317   -0.0403 H       1  LIG1        0.0661
@<TRIPOS>BOND
     1     1     2    1
     2     2     3   ar
     3     3     4   ar
     4     4     5    1
     5     5     6    1
     6     4     7   ar
     7     7     8   ar
     8     8     9   ar
     9     2     9   ar
    10     9    10    1
    11    10    11    1
    12    11    12   ar
    13    12    13    1
    14     8    13    1
    15    13    14    2
    16    12    15   ar
    17    15    16   ar
    18    16    17   ar
    19    17    18    1
    20    17    19   ar
    21    11    19   ar
    22    10    20    2
    23     1    21    1
    24     3    22    1
    25     5    23    1
    26     5    24    1
    27     6    25    1
    28     7    26    1
    29    15    27    1
    30    16    28    1
    31    18    29    1
    32    19    30    1
