@<TRIPOS>MOLECULE
NuBBE_353
 33 33 0 0 0
SMALL
GASTEIGER

@<TRIPOS>ATOM
      1 O          -0.1530    4.6581    1.4940 O.2     1  LIG1       -0.2450
      2 C          -0.0670    3.4379    1.6051 C.2     1  LIG1        0.3389
      3 O          -0.5153    2.6873    2.6353 O.3     1  LIG1       -0.4645
      4 C          -1.4233    3.3407    3.5180 C.3     1  LIG1        0.0820
      5 C           0.4815    2.5364    0.5580 C.ar    1  LIG1        0.0595
      6 C           1.1050    3.0870   -0.5667 C.ar    1  LIG1       -0.0443
      7 C           1.5334    2.2553   -1.6041 C.ar    1  LIG1       -0.0191
      8 C           1.3432    0.8740   -1.5113 C.ar    1  LIG1        0.1201
      9 O           1.7304    0.0556   -2.5359 O.3     1  LIG1       -0.5065
     10 C           0.7579    0.2983   -0.3795 C.ar    1  LIG1       -0.0024
     11 C           0.6090   -1.1965   -0.2186 C.3     1  LIG1        0.0057
     12 C          -0.7124   -1.7813   -0.7594 C.3     1  LIG1        0.0798
     13 O          -0.8588   -1.5696   -2.1624 O.3     1  LIG1       -0.3872
     14 C          -0.7914   -3.2805   -0.5242 C.2     1  LIG1       -0.0513
     15 C           0.2707   -4.1283   -1.1730 C.3     1  LIG1       -0.0416
     16 C          -1.7535   -3.8491    0.2238 C.2     1  LIG1       -0.0973
     17 C           0.3176    1.1426    0.6453 C.ar    1  LIG1       -0.0410
     18 H          -1.5852    2.6813    4.3747 H       1  LIG1        0.0661
     19 H          -2.3796    3.4761    3.0038 H       1  LIG1        0.0661
     20 H          -1.0302    4.2961    3.8748 H       1  LIG1        0.0661
     21 H           1.2438    4.1644   -0.6444 H       1  LIG1        0.0627
     22 H           2.0069    2.7010   -2.4743 H       1  LIG1        0.0654
     23 H           2.0559    0.6125   -3.2640 H       1  LIG1        0.2921
     24 H           0.7025   -1.4441    0.8482 H       1  LIG1        0.0343
     25 H           1.4717   -1.6676   -0.7030 H       1  LIG1        0.0343
     26 H          -1.5594   -1.2772   -0.2765 H       1  LIG1        0.0643
     27 H           0.0359   -1.5756   -2.5475 H       1  LIG1        0.2102
     28 H           1.2550   -3.8882   -0.7603 H       1  LIG1        0.0275
     29 H           0.2945   -3.9613   -2.2543 H       1  LIG1        0.0275
     30 H           0.1040   -5.1974   -1.0080 H       1  LIG1        0.0275
     31 H          -2.5370   -3.2658    0.6970 H       1  LIG1        0.0535
     32 H          -1.7878   -4.9248    0.3747 H       1  LIG1        0.0535
     33 H          -0.1651    0.7028    1.5147 H       1  LIG1        0.0630
@<TRIPOS>BOND
     1     1     2    2
     2     2     3    1
     3     3     4    1
     4     2     5    1
     5     5     6   ar
     6     6     7   ar
     7     7     8   ar
     8     8     9    1
     9     8    10   ar
    10    10    11    1
    11    11    12    1
    12    12    13    1
    13    12    14    1
    14    14    15    1
    15    14    16    2
    16    10    17   ar
    17     5    17   ar
    18     4    18    1
    19     4    19    1
    20     4    20    1
    21     6    21    1
    22     7    22    1
    23     9    23    1
    24    11    24    1
    25    11    25    1
    26    12    26    1
    27    13    27    1
    28    15    28    1
    29    15    29    1
    30    15    30    1
    31    16    31    1
    32    16    32    1
    33    17    33    1
