@<TRIPOS>MOLECULE
NuBBE_122
 32 34 0 0 0
SMALL
GASTEIGER

@<TRIPOS>ATOM
      1 O          -3.4814   -1.0385   -0.6146 O.2     1  LIG1       -0.2830
      2 C          -2.2794   -0.9196   -0.3903 C.ar    1  LIG1        0.2379
      3 C          -1.4695   -2.1137   -0.1210 C.ar    1  LIG1        0.1092
      4 C          -2.0325   -3.3958   -0.1073 C.ar    1  LIG1        0.1348
      5 O          -3.3621   -3.6289   -0.3377 O.3     1  LIG1       -0.5058
      6 C          -1.2383   -4.5118    0.1467 C.ar    1  LIG1        0.0223
      7 C           0.1212   -4.3353    0.3859 C.ar    1  LIG1        0.1239
      8 O           0.9401   -5.3957    0.6380 O.3     1  LIG1       -0.5065
      9 C           0.6924   -3.0660    0.3748 C.ar    1  LIG1        0.0231
     10 C          -0.1090   -1.9529    0.1200 C.ar    1  LIG1        0.1465
     11 O           0.5078   -0.7298    0.1198 O.2     1  LIG1       -0.4507
     12 C          -0.2565    0.4008   -0.1181 C.ar    1  LIG1        0.1807
     13 C           0.5444    1.6357   -0.0759 C.ar    1  LIG1        0.0247
     14 C           1.5727    1.8341   -1.0140 C.ar    1  LIG1       -0.0473
     15 C           2.3460    2.9999   -0.9930 C.ar    1  LIG1       -0.0159
     16 C           2.0876    3.9643   -0.0278 C.ar    1  LIG1        0.1583
     17 O           2.8043    5.1256    0.0454 O.3     1  LIG1       -0.5033
     18 C           1.0755    3.7688    0.9083 C.ar    1  LIG1        0.1589
     19 O           0.8276    4.7221    1.8535 O.3     1  LIG1       -0.5033
     20 C           0.3057    2.6136    0.8989 C.ar    1  LIG1       -0.0057
     21 C          -1.5796    0.3953   -0.3802 C.ar    1  LIG1        0.2082
     22 O          -2.3379    1.5189   -0.6573 O.3     1  LIG1       -0.5007
     23 H          -3.8003   -2.7614   -0.5018 H       1  LIG1        0.2922
     24 H          -1.6938   -5.4971    0.1527 H       1  LIG1        0.0691
     25 H           0.4102   -6.2111    0.6249 H       1  LIG1        0.2921
     26 H           1.7556   -2.9480    0.5651 H       1  LIG1        0.0691
     27 H           1.7770    1.0762   -1.7689 H       1  LIG1        0.0626
     28 H           3.1335    3.1301   -1.7284 H       1  LIG1        0.0655
     29 H           3.4827    5.1114   -0.6519 H       1  LIG1        0.2923
     30 H           1.4867    5.4238    1.6783 H       1  LIG1        0.2923
     31 H          -0.4660    2.4821    1.6534 H       1  LIG1        0.0662
     32 H          -1.7649    2.3030   -0.6776 H       1  LIG1        0.2924
@<TRIPOS>BOND
     1     1     2    2
     2     2     3   ar
     3     3     4   ar
     4     4     5    1
     5     4     6   ar
     6     6     7   ar
     7     7     8    1
     8     7     9   ar
     9     9    10   ar
    10     3    10   ar
    11    10    11   ar
    12    11    12   ar
    13    12    13    1
    14    13    14   ar
    15    14    15   ar
    16    15    16   ar
    17    16    17    1
    18    16    18   ar
    19    18    19    1
    20    18    20   ar
    21    13    20   ar
    22    12    21   ar
    23     2    21   ar
    24    21    22    1
    25     5    23    1
    26     6    24    1
    27     8    25    1
    28     9    26    1
    29    14    27    1
    30    15    28    1
    31    17    29    1
    32    19    30    1
    33    20    31    1
    34    22    32    1
