REMARK  Name = NuBBE_626
REMARK  8 active torsions:
REMARK  status: ('A' for Active; 'I' for Inactive)
REMARK    1  A    between atoms: C_2  and  O_3
REMARK    2  A    between atoms: C_2  and  C_7
REMARK    3  A    between atoms: O_3  and  C_4
REMARK    4  A    between atoms: C_4  and  C_5
REMARK    5  A    between atoms: C_5  and  C_6
REMARK    6  A    between atoms: C_9  and  O_10
REMARK    7  A    between atoms: C_11  and  O_12
REMARK    8  A    between atoms: C_13  and  O_14
REMARK                            x       y       z     vdW  Elec       q    Type
REMARK                         _______ _______ _______ _____ _____    ______ ____
ROOT
ATOM      1  C   LIG A   1      -0.647   0.591  -0.391  0.00  0.00    +0.066 A 
ATOM      2  C   LIG A   1      -1.083   1.903  -0.128  0.00  0.00    +0.064 A 
ATOM      3  C   LIG A   1      -0.600   2.949  -0.905  0.00  0.00    +0.163 A 
ATOM      4  C   LIG A   1       0.300   2.697  -1.935  0.00  0.00    +0.201 A 
ATOM      5  C   LIG A   1       0.714   1.400  -2.205  0.00  0.00    +0.163 A 
ATOM      6  C   LIG A   1       0.245   0.340  -1.446  0.00  0.00    +0.064 A 
ENDROOT
BRANCH   1   8
ATOM      7  O   LIG A   1      -1.915  -0.329   1.411  0.00  0.00    -0.245 OA
ATOM      8  C   LIG A   1      -1.119  -0.499   0.498  0.00  0.00    +0.339 C 
BRANCH   8   9
ATOM      9  O   LIG A   1      -0.508  -1.659   0.169  0.00  0.00    -0.461 OA
BRANCH   9  10
ATOM     10  C   LIG A   1      -0.799  -2.790   0.998  0.00  0.00    +0.232 C 
BRANCH  10  11
ATOM     11  C   LIG A   1       0.056  -2.782   2.262  0.00  0.00    +0.038 C 
ATOM     12  C   LIG A   1       1.552  -2.785   1.978  0.00  0.00    +0.007 C 
ENDBRANCH  10  11
ENDBRANCH   9  10
ENDBRANCH   8   9
ENDBRANCH   1   8
BRANCH   3  13
ATOM     13  O   LIG A   1      -0.970   4.247  -0.686  0.00  0.00    -0.503 OA
ATOM     14  H   LIG A   1      -1.602   4.267   0.054  0.00  0.00    +0.292 HD
ENDBRANCH   3  13
BRANCH   4  15
ATOM     15  O   LIG A   1       0.798   3.722  -2.691  0.00  0.00    -0.501 OA
ATOM     16  H   LIG A   1       0.381   4.524  -2.314  0.00  0.00    +0.292 HD
ENDBRANCH   4  15
BRANCH   5  17
ATOM     17  O   LIG A   1       1.601   1.154  -3.212  0.00  0.00    -0.503 OA
ATOM     18  H   LIG A   1       1.799   2.034  -3.590  0.00  0.00    +0.292 HD
ENDBRANCH   5  17
TORSDOF 7
