REMARK  Name = NuBBE_234
REMARK  18 active torsions:
REMARK  status: ('A' for Active; 'I' for Inactive)
REMARK    1  A    between atoms: C_1  and  C_2
REMARK    2  A    between atoms: C_4  and  C_5
REMARK    3  A    between atoms: C_4  and  C_6
REMARK    4  A    between atoms: C_6  and  C_7
REMARK    5  A    between atoms: C_8  and  C_9
REMARK    6  A    between atoms: C_8  and  C_11
REMARK    7  A    between atoms: C_12  and  O_14
REMARK    8  A    between atoms: O_14  and  C_15
REMARK    9  A    between atoms: C_15  and  C_16
REMARK   10  A    between atoms: C_16  and  C_17
REMARK   11  A    between atoms: C_17  and  C_18
REMARK   12  A    between atoms: C_20  and  O_22
REMARK   13  A    between atoms: C_28  and  O_30
REMARK   14  A    between atoms: O_30  and  C_31
REMARK   15  A    between atoms: C_31  and  C_32
REMARK   16  A    between atoms: C_35  and  O_37
REMARK   17  A    between atoms: O_37  and  C_38
REMARK   18  A    between atoms: C_38  and  C_39
REMARK                            x       y       z     vdW  Elec       q    Type
REMARK                         _______ _______ _______ _____ _____    ______ ____
ROOT
ATOM      1  C   LIG A   1      -0.351  -1.536  -2.804  0.00  0.00    +0.012 C 
ATOM      2  C   LIG A   1      -0.773  -0.618  -1.638  0.00  0.00    +0.036 C 
ATOM      3  C   LIG A   1      -0.464  -1.244  -0.232  0.00  0.00    -0.018 C 
ATOM      4  C   LIG A   1      -1.340  -2.534  -0.066  0.00  0.00    +0.012 C 
ATOM      5  C   LIG A   1      -0.236   0.831  -1.812  0.00  0.00    +0.209 C 
ATOM      6  C   LIG A   1      -0.653   1.776  -0.649  0.00  0.00    +0.172 C 
ATOM      7  C   LIG A   1      -0.297   1.257   0.775  0.00  0.00    +0.093 C 
ATOM      8  C   LIG A   1      -0.867  -0.201   0.902  0.00  0.00    +0.022 C 
ATOM      9  C   LIG A   1      -2.456  -0.133   0.966  0.00  0.00    +0.084 C 
ATOM     10  C   LIG A   1      -0.966   2.004   1.946  0.00  0.00    +0.016 C 
ATOM     11  C   LIG A   1       0.020   2.263   3.047  0.00  0.00    +0.343 C 
ATOM     12  O   LIG A   1       1.210   1.631   2.595  0.00  0.00    -0.297 OA
ATOM     13  C   LIG A   1       1.166   1.656   1.165  0.00  0.00    +0.327 C 
ATOM     14  C   LIG A   1      -2.283   2.110   2.158  0.00  0.00    +0.052 C 
ATOM     15  C   LIG A   1      -3.109   1.161   1.413  0.00  0.00    +0.157 C 
ATOM     16  O   LIG A   1      -4.307   1.380   1.263  0.00  0.00    -0.293 OA
ENDROOT
BRANCH   6  17
ATOM     17  O   LIG A   1      -0.091   3.075  -0.871  0.00  0.00    -0.387 OA
ATOM     18  H   LIG A   1      -0.302   3.326  -1.790  0.00  0.00    +0.210 HD
ENDBRANCH   6  17
BRANCH   3  19
ATOM     19  C   LIG A   1       1.019  -1.742  -0.186  0.00  0.00    +0.035 C 
BRANCH  19  20
ATOM     20  C   LIG A   1       1.462  -2.359   1.118  0.00  0.00    -0.023 C 
ATOM     21  C   LIG A   1       1.722  -3.661   1.355  0.00  0.00    -0.055 C 
ATOM     22  C   LIG A   1       2.150  -4.133   2.720  0.00  0.00    +0.043 C 
BRANCH  21  23
ATOM     23  C   LIG A   1       1.632  -4.684   0.327  0.00  0.00    -0.005 C 
ATOM     24  C   LIG A   1       0.834  -5.758   0.387  0.00  0.00    +0.008 C 
ENDBRANCH  21  23
ENDBRANCH  19  20
ENDBRANCH   3  19
BRANCH   5  25
ATOM     25  O   LIG A   1      -0.911   1.392  -2.978  0.00  0.00    -0.458 OA
BRANCH  25  26
ATOM     26  C   LIG A   1      -0.370   1.192  -4.212  0.00  0.00    +0.307 C 
ATOM     27  O   LIG A   1       0.758   0.811  -4.441  0.00  0.00    -0.251 OA
BRANCH  26  28
ATOM     28  C   LIG A   1      -1.418   1.493  -5.265  0.00  0.00    +0.120 C 
BRANCH  28  29
ATOM     29  C   LIG A   1      -1.335   2.946  -5.702  0.00  0.00    +0.008 C 
ATOM     30  C   LIG A   1       0.017   3.237  -6.336  0.00  0.00    +0.004 C 
ENDBRANCH  28  29
ENDBRANCH  26  28
ENDBRANCH  25  26
ENDBRANCH   5  25
BRANCH  11  31
ATOM     31  O   LIG A   1      -0.378   1.512   4.197  0.00  0.00    -0.431 OA
BRANCH  31  32
ATOM     32  C   LIG A   1      -0.971   2.191   5.203  0.00  0.00    +0.306 C 
ATOM     33  C   LIG A   1      -1.386   1.227   6.275  0.00  0.00    +0.136 C 
ATOM     34  O   LIG A   1      -1.157   3.397   5.237  0.00  0.00    -0.251 OA
ENDBRANCH  31  32
ENDBRANCH  11  31
BRANCH  13  35
ATOM     35  O   LIG A   1       2.198   0.818   0.690  0.00  0.00    -0.434 OA
BRANCH  35  36
ATOM     36  C   LIG A   1       3.416   1.268   1.112  0.00  0.00    +0.306 C 
ATOM     37  C   LIG A   1       4.069   0.250   1.999  0.00  0.00    +0.136 C 
ATOM     38  O   LIG A   1       3.871   2.381   0.878  0.00  0.00    -0.251 OA
ENDBRANCH  35  36
ENDBRANCH  13  35
TORSDOF 12
