REMARK  Name = NuBBE_1569
REMARK  17 active torsions:
REMARK  status: ('A' for Active; 'I' for Inactive)
REMARK    1  A    between atoms: C_1  and  C_2
REMARK    2  A    between atoms: C_8  and  C_22
REMARK    3  A    between atoms: C_9  and  C_11
REMARK    4  A    between atoms: C_11  and  C_13
REMARK    5  A    between atoms: C_11  and  C_14
REMARK    6  A    between atoms: C_14  and  C_15
REMARK    7  A    between atoms: C_15  and  C_16
REMARK    8  A    between atoms: C_16  and  C_17
REMARK    9  A    between atoms: C_17  and  C_18
REMARK   10  A    between atoms: C_17  and  C_19
REMARK   11  A    between atoms: C_26  and  C_27
REMARK   12  A    between atoms: C_26  and  C_39
REMARK   13  A    between atoms: C_28  and  O_30
REMARK   14  A    between atoms: O_30  and  C_31
REMARK   15  A    between atoms: C_31  and  C_32
REMARK   16  A    between atoms: C_32  and  C_33
REMARK   17  A    between atoms: C_34  and  C_35
REMARK                            x       y       z     vdW  Elec       q    Type
REMARK                         _______ _______ _______ _____ _____    ______ ____
ROOT
ATOM      1  C   LIG A   1      -2.581  -1.199   1.079  0.00  0.00    +0.012 C 
ATOM      2  C   LIG A   1      -1.175  -1.347   0.445  0.00  0.00    -0.023 C 
ATOM      3  C   LIG A   1      -0.718  -0.009  -0.264  0.00  0.00    +0.002 C 
ATOM      4  C   LIG A   1      -0.283   1.087   0.747  0.00  0.00    -0.019 C 
ATOM      5  C   LIG A   1      -0.153   0.614   2.180  0.00  0.00    +0.008 C 
ATOM      6  C   LIG A   1       0.615  -0.696   2.229  0.00  0.00    +0.008 C 
ATOM      7  C   LIG A   1      -0.022  -1.852   1.412  0.00  0.00    -0.023 C 
ATOM      8  C   LIG A   1       1.010  -2.462   0.378  0.00  0.00    -0.002 C 
ATOM      9  C   LIG A   1       0.121  -3.120  -0.696  0.00  0.00    +0.005 C 
ATOM     10  C   LIG A   1      -1.272  -2.519  -0.564  0.00  0.00    +0.008 C 
ATOM     11  C   LIG A   1      -0.512  -2.929   2.408  0.00  0.00    +0.012 C 
ATOM     12  C   LIG A   1      -0.543   2.581   0.443  0.00  0.00    -0.019 C 
ATOM     13  C   LIG A   1      -1.387   2.902  -0.790  0.00  0.00    +0.005 C 
ATOM     14  C   LIG A   1      -1.182   4.383  -1.235  0.00  0.00    +0.005 C 
ATOM     15  C   LIG A   1       0.298   4.722  -1.528  0.00  0.00    +0.015 C 
ATOM     16  C   LIG A   1      -1.732   5.259  -0.061  0.00  0.00    +0.183 C 
ATOM     17  C   LIG A   1      -0.913   5.021   1.217  0.00  0.00    +0.046 C 
ATOM     18  C   LIG A   1      -0.778   3.541   1.611  0.00  0.00    +0.011 C 
ATOM     19  C   LIG A   1      -1.946   4.674  -2.544  0.00  0.00    +0.015 C 
ATOM     20  C   LIG A   1      -1.279   1.847  -1.892  0.00  0.00    +0.005 C 
ATOM     21  C   LIG A   1      -1.721   0.509  -1.307  0.00  0.00    +0.005 C 
ATOM     22  C   LIG A   1       0.841   1.999   0.281  0.00  0.00    +0.015 C 
ENDROOT
BRANCH   8  23
ATOM     23  C   LIG A   1       2.153  -3.412   0.857  0.00  0.00    -0.010 C 
ATOM     24  C   LIG A   1       3.036  -2.765   1.933  0.00  0.00    +0.008 C 
BRANCH  23  25
ATOM     25  C   LIG A   1       3.030  -3.869  -0.355  0.00  0.00    +0.003 C 
BRANCH  25  26
ATOM     26  C   LIG A   1       4.211  -4.761   0.047  0.00  0.00    +0.000 C 
BRANCH  26  27
ATOM     27  C   LIG A   1       5.069  -5.219  -1.139  0.00  0.00    +0.003 C 
BRANCH  27  28
ATOM     28  C   LIG A   1       6.249  -6.117  -0.702  0.00  0.00    -0.017 C 
ATOM     29  C   LIG A   1       7.072  -6.555  -1.915  0.00  0.00    +0.007 C 
ATOM     30  C   LIG A   1       7.171  -5.429   0.310  0.00  0.00    +0.007 C 
ENDBRANCH  27  28
ENDBRANCH  26  27
ENDBRANCH  25  26
ENDBRANCH  23  25
ENDBRANCH   8  23
BRANCH  16  31
ATOM     31  O   LIG A   1      -3.092   4.858   0.261  0.00  0.00    -0.458 OA
BRANCH  31  32
ATOM     32  C   LIG A   1      -4.125   5.430  -0.383  0.00  0.00    +0.335 C 
ATOM     33  O   LIG A   1      -4.072   6.433  -1.056  0.00  0.00    -0.245 OA
BRANCH  32  34
ATOM     34  C   LIG A   1      -5.344   4.553  -0.214  0.00  0.00    +0.029 C 
ATOM     35  C   LIG A   1      -5.297   3.367   0.710  0.00  0.00    +0.051 C 
ATOM     36  C   LIG A   1      -6.434   4.884  -0.942  0.00  0.00    -0.020 C 
ATOM     37  C   LIG A   1      -7.759   4.192  -0.950  0.00  0.00    +0.035 C 
ENDBRANCH  32  34
ENDBRANCH  31  32
ENDBRANCH  16  31
TORSDOF 8
