@<TRIPOS>MOLECULE
NuBBE_1721
 67 70 0 0 0
SMALL
GASTEIGER

@<TRIPOS>ATOM
      1 C          -2.5619    0.8873    0.4651 C.3     1  LIG1       -0.0589
      2 C          -1.0073    0.9952    0.3813 C.3     1  LIG1       -0.0211
      3 C          -0.3228    0.4196   -0.9275 C.3     1  LIG1        0.0208
      4 C           0.2329   -1.0146   -0.8565 C.3     1  LIG1        0.1444
      5 O           1.2691   -1.2343   -1.8869 O.3     1  LIG1       -0.4575
      6 C           2.5852   -1.4564   -1.6520 C.2     1  LIG1        0.3043
      7 O           3.3080   -0.8871   -0.8397 O.2     1  LIG1       -0.2512
      8 C           3.0638   -2.6027   -2.4859 C.3     1  LIG1        0.0332
      9 C           0.6615   -1.5796    0.5225 C.3     1  LIG1        0.1460
     10 C           0.7298   -0.5751    1.7025 C.3     1  LIG1        0.0362
     11 C          -0.5553    0.2983    1.7283 C.3     1  LIG1       -0.0191
     12 C          -0.6447    1.1840    3.0100 C.3     1  LIG1        0.0097
     13 C           0.6800    1.7291    3.3469 C.ar    1  LIG1        0.1110
     14 C           1.9079    1.3107    2.8996 C.ar    1  LIG1        0.0249
     15 C           2.0746    0.2200    1.8846 C.3     1  LIG1        0.0979
     16 C           3.2018   -0.7357    2.3371 C.3     1  LIG1       -0.0314
     17 O           2.4036    0.8582    0.6655 O.3     1  LIG1       -0.3837
     18 C           2.8499    2.1591    3.5384 C.ar    1  LIG1       -0.0177
     19 C           2.1190    3.0151    4.3330 C.ar    1  LIG1        0.0924
     20 O           0.7878    2.7530    4.2246 O.2     1  LIG1       -0.4674
     21 O          -0.2555   -2.6413    0.9613 O.3     1  LIG1       -0.4574
     22 C          -0.3349   -3.7601    0.1917 C.2     1  LIG1        0.3043
     23 O          -0.2341   -3.8072   -1.0440 O.2     1  LIG1       -0.2512
     24 C          -0.3415   -4.9765    1.0383 C.3     1  LIG1        0.0332
     25 C          -1.1061    0.8243   -2.2555 C.3     1  LIG1        0.0717
     26 C          -2.4557    0.0561   -2.4597 C.2     1  LIG1        0.3132
     27 O          -2.5478   -1.1557   -2.5364 O.2     1  LIG1       -0.2502
     28 O          -3.5212    0.9000   -2.6094 O.3     1  LIG1       -0.4675
     29 C          -4.7590    0.2644   -2.9535 C.3     1  LIG1        0.0817
     30 C          -0.3096    0.4753   -3.5486 C.3     1  LIG1       -0.0490
     31 C          -1.2427    2.3807   -2.2893 C.3     1  LIG1       -0.0371
     32 C          -1.3404    3.1512   -0.9646 C.3     1  LIG1       -0.0515
     33 C          -0.6830    2.5110    0.2694 C.3     1  LIG1       -0.0469
     34 H          -2.9022   -0.1526    0.4665 H       1  LIG1        0.0235
     35 H          -3.0995    1.4123   -0.3185 H       1  LIG1        0.0235
     36 H          -2.9203    1.3507    1.3952 H       1  LIG1        0.0235
     37 H           0.6129    0.9848   -1.0427 H       1  LIG1        0.0354
     38 H          -0.5808   -1.6274   -1.2354 H       1  LIG1        0.0775
     39 H           2.2083   -3.1266   -2.9208 H       1  LIG1        0.0342
     40 H           3.5903   -3.3143   -1.8412 H       1  LIG1        0.0342
     41 H           3.7212   -2.2433   -3.2775 H       1  LIG1        0.0342
     42 H           1.6161   -2.1050    0.4680 H       1  LIG1        0.0775
     43 H           0.6471   -1.1882    2.6190 H       1  LIG1        0.0372
     44 H          -1.3342   -0.4604    1.9137 H       1  LIG1        0.0315
     45 H          -0.9637    0.5507    3.8480 H       1  LIG1        0.0347
     46 H          -1.3933    1.9753    2.9276 H       1  LIG1        0.0347
     47 H           2.9903   -1.1742    3.3205 H       1  LIG1        0.0261
     48 H           4.1606   -0.2087    2.4062 H       1  LIG1        0.0261
     49 H           3.3620   -1.5564    1.6333 H       1  LIG1        0.0261
     50 H           3.2729    0.5209    0.3700 H       1  LIG1        0.2106
     51 H           3.9249    2.1582    3.4263 H       1  LIG1        0.0653
     52 H           2.3819    3.8271    4.9960 H       1  LIG1        0.1029
     53 H          -0.5243   -5.8551    0.4114 H       1  LIG1        0.0342
     54 H          -1.1194   -4.9191    1.8039 H       1  LIG1        0.0342
     55 H           0.6489   -5.0727    1.4942 H       1  LIG1        0.0342
     56 H          -4.6718   -0.2251   -3.9284 H       1  LIG1        0.0661
     57 H          -5.5292    1.0392   -3.0298 H       1  LIG1        0.0661
     58 H          -5.0694   -0.4519   -2.1857 H       1  LIG1        0.0661
     59 H           0.7195    0.8484   -3.4924 H       1  LIG1        0.0240
     60 H          -0.7743    0.9441   -4.4269 H       1  LIG1        0.0240
     61 H          -0.2744   -0.5986   -3.7610 H       1  LIG1        0.0240
     62 H          -2.0832    2.6855   -2.9266 H       1  LIG1        0.0276
     63 H          -0.3604    2.7861   -2.8011 H       1  LIG1        0.0276
     64 H          -2.3962    3.3490   -0.7464 H       1  LIG1        0.0266
     65 H          -0.8996    4.1442   -1.1165 H       1  LIG1        0.0266
     66 H          -1.0149    3.0726    1.1461 H       1  LIG1        0.0271
     67 H           0.4028    2.6642    0.2145 H       1  LIG1        0.0271
@<TRIPOS>BOND
     1     1     2    1
     2     2     3    1
     3     3     4    1
     4     4     5    1
     5     5     6    1
     6     6     7    2
     7     6     8    1
     8     4     9    1
     9     9    10    1
    10    10    11    1
    11     2    11    1
    12    11    12    1
    13    12    13    1
    14    13    14   ar
    15    14    15    1
    16    10    15    1
    17    15    16    1
    18    15    17    1
    19    14    18   ar
    20    18    19   ar
    21    19    20   ar
    22    13    20   ar
    23     9    21    1
    24    21    22    1
    25    22    23    2
    26    22    24    1
    27     3    25    1
    28    25    26    1
    29    26    27    2
    30    26    28    1
    31    28    29    1
    32    25    30    1
    33    25    31    1
    34    31    32    1
    35    32    33    1
    36     2    33    1
    37     1    34    1
    38     1    35    1
    39     1    36    1
    40     3    37    1
    41     4    38    1
    42     8    39    1
    43     8    40    1
    44     8    41    1
    45     9    42    1
    46    10    43    1
    47    11    44    1
    48    12    45    1
    49    12    46    1
    50    16    47    1
    51    16    48    1
    52    16    49    1
    53    17    50    1
    54    18    51    1
    55    19    52    1
    56    24    53    1
    57    24    54    1
    58    24    55    1
    59    29    56    1
    60    29    57    1
    61    29    58    1
    62    30    59    1
    63    30    60    1
    64    30    61    1
    65    31    62    1
    66    31    63    1
    67    32    64    1
    68    32    65    1
    69    33    66    1
    70    33    67    1
