REMARK  Name = NuBBE_599
REMARK  6 active torsions:
REMARK  status: ('A' for Active; 'I' for Inactive)
REMARK    1  A    between atoms: C_1  and  O_2
REMARK    2  A    between atoms: O_2  and  C_3
REMARK    3  A    between atoms: C_4  and  O_5
REMARK    4  A    between atoms: O_5  and  C_6
REMARK    5  A    between atoms: C_17  and  O_18
REMARK    6  A    between atoms: O_18  and  C_19
REMARK                            x       y       z     vdW  Elec       q    Type
REMARK                         _______ _______ _______ _____ _____    ______ ____
ROOT
ATOM      1  C   LIG A   1      -1.515  -0.479   1.018  0.00  0.00    +0.188 A 
ATOM      2  C   LIG A   1      -2.053   0.777   1.385  0.00  0.00    +0.164 A 
ATOM      3  C   LIG A   1      -1.421   1.941   0.966  0.00  0.00    +0.050 A 
ATOM      4  C   LIG A   1      -0.263   1.865   0.199  0.00  0.00    +0.017 A 
ATOM      5  C   LIG A   1       0.286   0.626  -0.188  0.00  0.00    +0.047 A 
ATOM      6  C   LIG A   1      -0.356  -0.573   0.214  0.00  0.00    +0.123 A 
ATOM      7  N   LIG A   1       0.101  -1.770  -0.155  0.00  0.00    -0.208 NA
ATOM      8  C   LIG A   1       1.226  -1.800  -0.874  0.00  0.00    +0.231 A 
ATOM      9  O   LIG A   1       1.801  -2.972  -1.253  0.00  0.00    -0.445 OA
ATOM     10  C   LIG A   1       2.932  -2.658  -1.926  0.00  0.00    +0.198 A 
ATOM     11  C   LIG A   1       3.087  -1.292  -1.991  0.00  0.00    +0.055 A 
ATOM     12  C   LIG A   1       1.970  -0.720  -1.317  0.00  0.00    +0.082 A 
ATOM     13  C   LIG A   1       1.466   0.552  -0.985  0.00  0.00    +0.142 A 
ENDROOT
BRANCH   1  15
ATOM     14  C   LIG A   1      -1.568  -2.800   1.663  0.00  0.00    +0.277 C 
ATOM     15  O   LIG A   1      -2.250  -1.564   1.471  0.00  0.00    -0.489 OA
ENDBRANCH   1  15
BRANCH   2  16
ATOM     16  O   LIG A   1      -3.183   0.760   2.168  0.00  0.00    -0.491 OA
ATOM     17  C   LIG A   1      -3.742   2.013   2.543  0.00  0.00    +0.277 C 
ENDBRANCH   2  16
BRANCH  13  18
ATOM     18  O   LIG A   1       2.077   1.761  -1.295  0.00  0.00    -0.494 OA
ATOM     19  C   LIG A   1       2.749   1.804  -2.547  0.00  0.00    +0.277 C 
ENDBRANCH  13  18
TORSDOF 3
