@<TRIPOS>MOLECULE
NuBBE_2065
 47 50 0 0 0
SMALL
GASTEIGER

@<TRIPOS>ATOM
      1 C           2.9820    2.5100    3.0684 C.3     1  LIG1        0.0372
      2 O           3.3140    1.4497    2.1874 O.3     1  LIG1       -0.3757
      3 C           2.6994    1.5308    0.8997 C.3     1  LIG1        0.0790
      4 H           3.0014    2.4821    0.4422 H       1  LIG1        0.0641
      5 C           3.3155    0.4179    0.0872 C.2     1  LIG1       -0.0553
      6 C           2.7841   -0.8127    0.0549 C.2     1  LIG1       -0.0583
      7 C           1.5898   -1.0385    0.8153 C.2     1  LIG1       -0.0256
      8 C           1.3899   -2.0534    1.6589 C.2     1  LIG1       -0.0648
      9 C           0.2474   -1.7278    2.5584 C.3     1  LIG1        0.0189
     10 N           0.0617   -0.2766    2.3667 N.3     1  LIG1       -0.2825
     11 C          -1.2826    0.2068    2.6779 C.3     1  LIG1        0.0305
     12 C          -2.3912   -0.2160    1.6965 C.3     1  LIG1        0.0933
     13 H          -3.2236    0.4895    1.8082 H       1  LIG1        0.0656
     14 O          -2.8983   -1.5051    2.0508 O.3     1  LIG1       -0.3859
     15 C          -1.9314   -0.2015    0.2586 C.ar    1  LIG1       -0.0090
     16 C          -2.8913   -0.3296   -0.7605 C.ar    1  LIG1       -0.0103
     17 C          -2.5329   -0.3439   -2.1136 C.ar    1  LIG1        0.1618
     18 O          -3.6083   -0.4829   -2.9534 O.3     1  LIG1       -0.4914
     19 C          -3.3671   -1.1260   -4.1992 C.3     1  LIG1        0.0790
     20 C          -1.1901   -0.1742   -2.4739 C.ar    1  LIG1        0.1618
     21 O          -0.8839   -0.1110   -3.8068 O.3     1  LIG1       -0.4914
     22 C           0.4615    0.1621   -4.1761 C.3     1  LIG1        0.0790
     23 C          -0.2328   -0.0569   -1.4555 C.ar    1  LIG1       -0.0107
     24 C          -0.5734   -0.0867   -0.0821 C.ar    1  LIG1       -0.0134
     25 C           0.5399    0.0473    0.9918 C.3     1  LIG1        0.0756
     26 C           1.1572    1.4745    0.9194 C.3     1  LIG1        0.0039
     27 H           3.6993    2.5036    3.8937 H       1  LIG1        0.0524
     28 H           1.9863    2.3569    3.4929 H       1  LIG1        0.0524
     29 H           3.0388    3.4796    2.5651 H       1  LIG1        0.0524
     30 H           4.2732    0.6105   -0.3868 H       1  LIG1        0.0598
     31 H           3.2951   -1.6449   -0.4165 H       1  LIG1        0.0619
     32 H           2.0368   -2.9068    1.7973 H       1  LIG1        0.0588
     33 H           0.5037   -1.9294    3.6031 H       1  LIG1        0.0470
     34 H          -0.6122   -2.3405    2.2770 H       1  LIG1        0.0470
     35 H          -1.5490   -0.0945    3.6988 H       1  LIG1        0.0456
     36 H          -1.2404    1.3036    2.6924 H       1  LIG1        0.0456
     37 H          -2.8162   -2.0817    1.2720 H       1  LIG1        0.2103
     38 H          -3.9442   -0.4328   -0.4988 H       1  LIG1        0.0659
     39 H          -4.3250   -1.5112   -4.5628 H       1  LIG1        0.0660
     40 H          -2.6878   -1.9801   -4.1021 H       1  LIG1        0.0660
     41 H          -3.0071   -0.4062   -4.9401 H       1  LIG1        0.0660
     42 H           1.1395   -0.6190   -3.8172 H       1  LIG1        0.0660
     43 H           0.7719    1.1519   -3.8252 H       1  LIG1        0.0660
     44 H           0.5132    0.1644   -5.2691 H       1  LIG1        0.0660
     45 H           0.8140    0.0708   -1.7114 H       1  LIG1        0.0659
     46 H           0.7515    2.1048    1.7178 H       1  LIG1        0.0318
     47 H           0.8215    1.9731   -0.0015 H       1  LIG1        0.0318
@<TRIPOS>BOND
     1     1     2    1
     2     3     5    1
     3     5     6    2
     4     6     7    1
     5     7     8    2
     6     8     9    1
     7     9    10    1
     8    10    11    1
     9    11    12    1
    10    12    15    1
    11    15    16   ar
    12    16    17   ar
    13    18    19    1
    14    17    20   ar
    15    21    22    1
    16    20    23   ar
    17    23    24   ar
    18    15    24   ar
    19    24    25    1
    20    10    25    1
    21     7    25    1
    22    25    26    1
    23     3    26    1
    24    17    18    1
    25    20    21    1
    26    12    14    1
    27    12    13    1
    28     3     4    1
    29     3     2    1
    30     1    27    1
    31     1    28    1
    32     1    29    1
    33     5    30    1
    34     6    31    1
    35     8    32    1
    36     9    33    1
    37     9    34    1
    38    11    35    1
    39    11    36    1
    40    14    37    1
    41    16    38    1
    42    19    39    1
    43    19    40    1
    44    19    41    1
    45    22    42    1
    46    22    43    1
    47    22    44    1
    48    23    45    1
    49    26    46    1
    50    26    47    1
