@<TRIPOS>MOLECULE
NuBBE_2390
 57 58 0 0 0
SMALL
GASTEIGER

@<TRIPOS>ATOM
      1 C          -1.6674   -0.8849   -1.0529 C.3     1  LIG1       -0.0587
      2 C          -0.9526   -0.8185    0.3162 C.3     1  LIG1       -0.0217
      3 C          -1.9232   -0.4654    1.5148 C.3     1  LIG1       -0.0193
      4 H          -1.2694   -0.5337    2.4014 H       1  LIG1        0.0317
      5 C          -3.0766   -1.4797    1.8491 C.3     1  LIG1        0.0681
      6 C          -4.2693   -1.4878    0.8846 C.2     1  LIG1        0.3110
      7 O          -4.6109   -2.4761    0.2180 O.2     1  LIG1       -0.2504
      8 O          -4.9929   -0.3570    0.8219 O.3     1  LIG1       -0.4802
      9 C          -3.6305   -1.1837    3.2737 C.3     1  LIG1       -0.0491
     10 C          -2.4750   -2.9159    1.9446 C.3     1  LIG1       -0.0372
     11 C          -1.4840   -3.2894    0.8468 C.3     1  LIG1       -0.0515
     12 C          -0.3911   -2.2364    0.6384 C.3     1  LIG1       -0.0468
     13 C          -2.3591    1.0054    1.4807 C.3     1  LIG1       -0.0450
     14 C          -1.1380    1.8957    1.6353 C.3     1  LIG1       -0.0314
     15 C          -0.2563    1.7083    0.4325 C.2     1  LIG1       -0.0730
     16 C          -0.0236    2.7912   -0.3296 C.2     1  LIG1       -0.0992
     17 C           0.2547    0.2666    0.2380 C.3     1  LIG1       -0.0145
     18 H           0.8932    0.0676    1.1124 H       1  LIG1        0.0351
     19 C           1.1732    0.0604   -1.0097 C.3     1  LIG1       -0.0458
     20 C           2.5082    0.8366   -1.0155 C.3     1  LIG1       -0.0498
     21 C           3.3322    0.6516   -2.3146 C.3     1  LIG1       -0.0418
     22 H           2.7262    0.9973   -3.1632 H       1  LIG1        0.0299
     23 C           4.6324    1.4889   -2.2941 C.3     1  LIG1       -0.0271
     24 C           4.4040    2.9935   -2.1637 C.3     1  LIG1        0.0444
     25 O           5.6594    3.6619   -2.1659 O.3     1  LIG1       -0.3950
     26 C           3.6759   -0.8211   -2.5617 C.3     1  LIG1       -0.0623
     27 H          -2.5161   -1.5697   -1.0593 H       1  LIG1        0.0235
     28 H          -0.9885   -1.2651   -1.8269 H       1  LIG1        0.0235
     29 H          -2.0275    0.0937   -1.3787 H       1  LIG1        0.0235
     30 H          -4.7280    0.3690    1.4012 H       1  LIG1        0.2951
     31 H          -4.1587   -0.2292    3.3438 H       1  LIG1        0.0240
     32 H          -2.8166   -1.1555    4.0101 H       1  LIG1        0.0240
     33 H          -4.3371   -1.9573    3.5937 H       1  LIG1        0.0240
     34 H          -3.2810   -3.6656    1.9592 H       1  LIG1        0.0276
     35 H          -1.9579   -3.0299    2.9044 H       1  LIG1        0.0276
     36 H          -2.0139   -3.4851   -0.0910 H       1  LIG1        0.0266
     37 H          -1.0103   -4.2403    1.1227 H       1  LIG1        0.0266
     38 H           0.2744   -2.5905   -0.1558 H       1  LIG1        0.0271
     39 H           0.2192   -2.1879    1.5506 H       1  LIG1        0.0271
     40 H          -3.0352    1.2441    2.3048 H       1  LIG1        0.0271
     41 H          -2.8873    1.2380    0.5479 H       1  LIG1        0.0271
     42 H          -0.5848    1.6459    2.5490 H       1  LIG1        0.0310
     43 H          -1.4702    2.9341    1.7485 H       1  LIG1        0.0310
     44 H          -0.4152    3.7664   -0.0474 H       1  LIG1        0.0534
     45 H           0.5552    2.7828   -1.2419 H       1  LIG1        0.0534
     46 H           1.4181   -1.0028   -1.0646 H       1  LIG1        0.0271
     47 H           0.6227    0.3121   -1.9242 H       1  LIG1        0.0271
     48 H           3.1077    0.5566   -0.1427 H       1  LIG1        0.0268
     49 H           2.3133    1.9010   -0.9097 H       1  LIG1        0.0268
     50 H           5.2039    1.3053   -3.2144 H       1  LIG1        0.0290
     51 H           5.2852    1.1538   -1.4777 H       1  LIG1        0.0290
     52 H           3.9062    3.2440   -1.2241 H       1  LIG1        0.0557
     53 H           3.8066    3.3733   -2.9985 H       1  LIG1        0.0557
     54 H           5.4857    4.5869   -1.9185 H       1  LIG1        0.2094
     55 H           2.7754   -1.4366   -2.6445 H       1  LIG1        0.0232
     56 H           4.2919   -1.2245   -1.7514 H       1  LIG1        0.0232
     57 H           4.2232   -0.9425   -3.5022 H       1  LIG1        0.0232
@<TRIPOS>BOND
     1     1     2    1
     2     2     3    1
     3     3     4    1
     4     3     5    1
     5     5     6    1
     6     6     7    2
     7     6     8    1
     8     5     9    1
     9     5    10    1
    10    10    11    1
    11    11    12    1
    12     2    12    1
    13     3    13    1
    14    13    14    1
    15    14    15    1
    16    15    16    2
    17    15    17    1
    18     2    17    1
    19    19    20    1
    20    20    21    1
    21    21    22    1
    22    21    23    1
    23    23    24    1
    24    24    25    1
    25    21    26    1
    26    17    19    1
    27    17    18    1
    28     1    27    1
    29     1    28    1
    30     1    29    1
    31     8    30    1
    32     9    31    1
    33     9    32    1
    34     9    33    1
    35    10    34    1
    36    10    35    1
    37    11    36    1
    38    11    37    1
    39    12    38    1
    40    12    39    1
    41    13    40    1
    42    13    41    1
    43    14    42    1
    44    14    43    1
    45    16    44    1
    46    16    45    1
    47    19    46    1
    48    19    47    1
    49    20    48    1
    50    20    49    1
    51    23    50    1
    52    23    51    1
    53    24    52    1
    54    24    53    1
    55    25    54    1
    56    26    55    1
    57    26    56    1
    58    26    57    1
