REMARK  Name = NuBBE_46
REMARK  17 active torsions:
REMARK  status: ('A' for Active; 'I' for Inactive)
REMARK    1  A    between atoms: O_1  and  C_2
REMARK    2  A    between atoms: C_4  and  O_5
REMARK    3  A    between atoms: C_8  and  O_9
REMARK    4  A    between atoms: O_9  and  C_10
REMARK    5  A    between atoms: C_13  and  C_15
REMARK    6  A    between atoms: C_15  and  O_16
REMARK    7  A    between atoms: O_16  and  C_17
REMARK    8  A    between atoms: C_19  and  O_21
REMARK    9  A    between atoms: C_22  and  O_24
REMARK   10  A    between atoms: C_25  and  O_27
REMARK   11  A    between atoms: C_28  and  C_30
REMARK   12  A    between atoms: C_32  and  O_34
REMARK   13  A    between atoms: C_35  and  O_37
REMARK   14  A    between atoms: C_38  and  O_40
REMARK   15  A    between atoms: C_41  and  C_42
REMARK   16  A    between atoms: C_44  and  O_45
REMARK   17  A    between atoms: C_46  and  O_47
REMARK                            x       y       z     vdW  Elec       q    Type
REMARK                         _______ _______ _______ _____ _____    ______ ____
ROOT
ATOM      1  C   LIG A   1      -1.719   0.068  -1.812  0.00  0.00    +0.340 C 
ATOM      2  O   LIG A   1      -0.570  -0.586  -1.248  0.00  0.00    -0.331 OA
ATOM      3  C   LIG A   1      -0.886  -1.935  -0.857  0.00  0.00    +0.179 C 
ATOM      4  C   LIG A   1      -1.060  -2.764  -2.136  0.00  0.00    +0.177 C 
ATOM      5  C   LIG A   1      -2.258  -2.207  -2.903  0.00  0.00    +0.180 C 
ATOM      6  C   LIG A   1      -2.170  -0.684  -3.103  0.00  0.00    +0.214 C 
ENDROOT
BRANCH   6   7
ATOM      7  O   LIG A   1      -3.450  -0.220  -3.562  0.00  0.00    -0.383 OA
ATOM      8  H   LIG A   1      -3.733  -0.826  -4.272  0.00  0.00    +0.210 HD
ENDBRANCH   6   7
BRANCH   5   9
ATOM      9  O   LIG A   1      -2.368  -2.876  -4.177  0.00  0.00    -0.386 OA
ATOM     10  H   LIG A   1      -1.538  -2.743  -4.670  0.00  0.00    +0.210 HD
ENDBRANCH   5   9
BRANCH   4  11
ATOM     11  O   LIG A   1      -1.265  -4.151  -1.861  0.00  0.00    -0.387 OA
ATOM     12  H   LIG A   1      -1.574  -4.566  -2.691  0.00  0.00    +0.210 HD
ENDBRANCH   4  11
BRANCH   3  13
ATOM     13  C   LIG A   1       0.234  -2.506   0.012  0.00  0.00    +0.197 C 
BRANCH  13  14
ATOM     14  O   LIG A   1       0.326  -1.805   1.264  0.00  0.00    -0.346 OA
BRANCH  14  15
ATOM     15  C   LIG A   1       1.465  -2.239   1.999  0.00  0.00    +0.282 C 
ATOM     16  C   LIG A   1       1.652  -1.508   3.339  0.00  0.00    +0.201 C 
ATOM     17  C   LIG A   1       0.481  -1.793   4.278  0.00  0.00    +0.179 C 
ATOM     18  C   LIG A   1       0.190  -3.297   4.402  0.00  0.00    +0.174 C 
ATOM     19  C   LIG A   1       0.297  -4.041   3.060  0.00  0.00    +0.149 C 
ATOM     20  C   LIG A   1       0.460  -5.543   3.285  0.00  0.00    +0.040 C 
ATOM     21  O   LIG A   1       1.440  -3.643   2.287  0.00  0.00    -0.343 OA
BRANCH  18  22
ATOM     22  O   LIG A   1      -1.120  -3.482   4.957  0.00  0.00    -0.387 OA
ATOM     23  H   LIG A   1      -1.206  -2.828   5.678  0.00  0.00    +0.210 HD
ENDBRANCH  18  22
BRANCH  17  24
ATOM     24  O   LIG A   1       0.794  -1.291   5.598  0.00  0.00    -0.386 OA
ATOM     25  H   LIG A   1       1.761  -1.429   5.700  0.00  0.00    +0.210 HD
ENDBRANCH  17  24
BRANCH  16  26
ATOM     26  O   LIG A   1       2.857  -1.983   3.993  0.00  0.00    -0.384 OA
ATOM     27  H   LIG A   1       2.984  -2.908   3.693  0.00  0.00    +0.210 HD
ENDBRANCH  16  26
ENDBRANCH  14  15
ENDBRANCH  13  14
ENDBRANCH   3  13
BRANCH   1  28
ATOM     28  O   LIG A   1      -1.412   1.425  -2.194  0.00  0.00    -0.453 OA
BRANCH  28  34
ATOM     29  C   LIG A   1       1.479   4.221   2.834  0.00  0.00    +0.124 A 
ATOM     30  C   LIG A   1       0.764   3.139   3.338  0.00  0.00    +0.091 A 
ATOM     31  C   LIG A   1      -0.086   2.434   2.488  0.00  0.00    +0.135 A 
ATOM     32  C   LIG A   1      -0.191   2.775   1.139  0.00  0.00    +0.109 A 
ATOM     33  C   LIG A   1      -1.154   2.155   0.212  0.00  0.00    +0.238 A 
ATOM     34  C   LIG A   1      -0.828   2.242  -1.238  0.00  0.00    +0.214 A 
ATOM     35  C   LIG A   1      -0.031   3.276  -1.581  0.00  0.00    +0.181 A 
ATOM     36  O   LIG A   1       0.578   4.149  -0.700  0.00  0.00    -0.451 OA
ATOM     37  O   LIG A   1      -2.242   1.707   0.610  0.00  0.00    -0.283 OA
ATOM     38  C   LIG A   1       0.602   3.809   0.629  0.00  0.00    +0.146 A 
ATOM     39  C   LIG A   1       1.416   4.555   1.484  0.00  0.00    +0.092 A 
BRANCH  35  40
ATOM     40  C   LIG A   1       0.185   3.611  -2.992  0.00  0.00    +0.025 A 
ATOM     41  C   LIG A   1       1.220   3.011  -3.721  0.00  0.00    +0.060 A 
ATOM     42  C   LIG A   1       1.352   3.305  -5.074  0.00  0.00    +0.159 A 
ATOM     43  C   LIG A   1       0.473   4.190  -5.697  0.00  0.00    +0.158 A 
ATOM     44  C   LIG A   1      -0.547   4.800  -4.984  0.00  0.00    +0.050 A 
ATOM     45  C   LIG A   1      -0.692   4.509  -3.627  0.00  0.00    +0.015 A 
BRANCH  43  46
ATOM     46  O   LIG A   1       0.604   4.458  -7.029  0.00  0.00    -0.503 OA
ATOM     47  H   LIG A   1       1.364   3.913  -7.314  0.00  0.00    +0.292 HD
ENDBRANCH  43  46
BRANCH  42  48
ATOM     48  O   LIG A   1       2.329   2.735  -5.845  0.00  0.00    -0.503 OA
ATOM     49  H   LIG A   1       2.855   2.148  -5.276  0.00  0.00    +0.292 HD
ENDBRANCH  42  48
ENDBRANCH  35  40
BRANCH  29  50
ATOM     50  O   LIG A   1       2.243   4.995   3.656  0.00  0.00    -0.506 OA
ATOM     51  H   LIG A   1       2.048   4.762   4.580  0.00  0.00    +0.292 HD
ENDBRANCH  29  50
BRANCH  31  52
ATOM     52  O   LIG A   1      -0.807   1.400   3.010  0.00  0.00    -0.506 OA
ATOM     53  H   LIG A   1      -1.129   1.669   3.888  0.00  0.00    +0.292 HD
ENDBRANCH  31  52
ENDBRANCH  28  34
ENDBRANCH   1  28
TORSDOF 16
