@<TRIPOS>MOLECULE
NuBBE_2068
 47 52 0 0 0
SMALL
GASTEIGER

@<TRIPOS>ATOM
      1 O          -3.9371    1.1636   -0.7267 O.2     1  LIG1       -0.2500
      2 C          -3.0536    0.4923   -0.1915 C.2     1  LIG1        0.3189
      3 C          -2.2094    0.8093    1.0185 C.3     1  LIG1        0.1249
      4 C          -3.0741    0.1157    2.1335 C.3     1  LIG1       -0.0440
      5 C          -1.6188    2.0881    1.6254 C.3     1  LIG1        0.1832
      6 O          -2.6261    2.9824    2.0487 O.3     1  LIG1       -0.3636
      7 C          -0.7047    1.6681    2.8439 C.3     1  LIG1        0.0029
      8 C           0.3083    0.5678    2.4036 C.3     1  LIG1       -0.0397
      9 C           0.3453    0.5224    0.8620 C.3     1  LIG1        0.0052
     10 C           0.4660    2.0449    0.4570 C.3     1  LIG1        0.0573
     11 O          -0.7388    2.7709    0.7385 O.3     1  LIG1       -0.3471
     12 C           1.4297   -0.4157    0.2197 C.3     1  LIG1       -0.0228
     13 H           2.0494   -0.7947    1.0463 H       1  LIG1        0.0314
     14 C           2.4005    0.4241   -0.6720 C.3     1  LIG1       -0.0448
     15 C           3.4177   -0.4342   -1.3946 C.3     1  LIG1       -0.0208
     16 C           2.5903   -1.1964   -2.3395 C.2     1  LIG1        0.0361
     17 C           1.4484   -1.7993   -2.0102 C.2     1  LIG1        0.1084
     18 O           0.6354   -2.2422   -3.0493 O.2     1  LIG1       -0.4877
     19 C           1.2516   -1.7515   -4.2643 C.3     1  LIG1        0.1512
     20 C           2.3606   -0.8976   -3.7440 C.2     1  LIG1        0.1994
     21 O           2.9243    0.0068   -4.3414 O.2     1  LIG1       -0.2886
     22 C           0.9312   -1.7487   -0.5733 C.3     1  LIG1        0.0238
     23 H           1.4897   -2.5670   -0.0855 H       1  LIG1        0.0383
     24 C          -0.5537   -2.1914   -0.4626 C.3     1  LIG1       -0.0054
     25 C          -1.5244   -1.2258    0.1709 C.3     1  LIG1        0.1083
     26 O          -2.7055   -0.8405   -0.5892 O.3     1  LIG1       -0.4605
     27 H          -1.8639   -1.7034    1.0965 H       1  LIG1        0.0737
     28 C          -1.0074    0.1387    0.3482 C.3     1  LIG1        0.0247
     29 H          -0.9270    0.5266   -0.6953 H       1  LIG1        0.0355
     30 H          -3.8102    0.8268    2.5273 H       1  LIG1        0.0242
     31 H          -2.4818   -0.2682    2.9653 H       1  LIG1        0.0242
     32 H          -3.6824   -0.7201    1.7655 H       1  LIG1        0.0242
     33 H          -2.8318    2.8174    2.9795 H       1  LIG1        0.2128
     34 H          -1.2821    1.3334    3.7122 H       1  LIG1        0.0317
     35 H          -0.1460    2.5450    3.1989 H       1  LIG1        0.0317
     36 H           0.0253   -0.4065    2.8186 H       1  LIG1        0.0273
     37 H           1.2991    0.8088    2.8112 H       1  LIG1        0.0273
     38 H           0.6103    2.1970   -0.6133 H       1  LIG1        0.0566
     39 H           1.3028    2.5321    0.9734 H       1  LIG1        0.0566
     40 H           2.9081    1.1998   -0.0940 H       1  LIG1        0.0271
     41 H           1.8132    0.9307   -1.4535 H       1  LIG1        0.0271
     42 H           3.9468   -1.0933   -0.6977 H       1  LIG1        0.0315
     43 H           4.1552    0.1863   -1.9101 H       1  LIG1        0.0315
     44 H           0.5179   -1.1627   -4.8195 H       1  LIG1        0.0781
     45 H           1.6561   -2.5767   -4.8553 H       1  LIG1        0.0781
     46 H          -0.5352   -3.0677    0.2079 H       1  LIG1        0.0308
     47 H          -0.9694   -2.5956   -1.3900 H       1  LIG1        0.0308
@<TRIPOS>BOND
     1     1     2    2
     2     2     3    1
     3     3     4    1
     4     3     5    1
     5     5     6    1
     6     5     7    1
     7     7     8    1
     8     8     9    1
     9     9    10    1
    10    10    11    1
    11     5    11    1
    12     9    12    1
    13    12    13    1
    14    12    14    1
    15    14    15    1
    16    15    16    1
    17    16    17    2
    18    17    18    1
    19    18    19    1
    20    19    20    1
    21    16    20    1
    22    20    21    2
    23    17    22    1
    24    22    23    1
    25    12    22    1
    26    22    24    1
    27    24    25    1
    28    25    26    1
    29     2    26    1
    30    25    27    1
    31    25    28    1
    32     9    28    1
    33     3    28    1
    34    28    29    1
    35     4    30    1
    36     4    31    1
    37     4    32    1
    38     6    33    1
    39     7    34    1
    40     7    35    1
    41     8    36    1
    42     8    37    1
    43    10    38    1
    44    10    39    1
    45    14    40    1
    46    14    41    1
    47    15    42    1
    48    15    43    1
    49    19    44    1
    50    19    45    1
    51    24    46    1
    52    24    47    1
