@<TRIPOS>MOLECULE
NuBBE_2419
 44 48 0 0 0
SMALL
GASTEIGER

@<TRIPOS>ATOM
      1 O          -2.5210    1.2539    0.8315 O.3     1  LIG1       -0.4908
      2 C          -3.4261    1.4894   -0.2464 C.3     1  LIG1        0.0790
      3 C          -1.2034    1.4207    0.4569 C.ar    1  LIG1        0.1698
      4 C          -0.3676    0.2598    0.2628 C.ar    1  LIG1        0.0373
      5 C           1.0239    0.5197    0.0506 C.ar    1  LIG1        0.0107
      6 C           1.9508   -0.5360   -0.1940 C.ar    1  LIG1        0.0382
      7 C           1.4497   -1.8304   -0.3482 C.ar    1  LIG1       -0.0322
      8 C           0.1116   -2.1456   -0.1443 C.ar    1  LIG1       -0.0117
      9 C          -0.8199   -1.1281    0.2268 C.ar    1  LIG1       -0.0027
     10 C          -2.1403   -1.5848    0.5034 C.ar    1  LIG1       -0.0077
     11 C          -2.4869   -2.9116    0.3357 C.ar    1  LIG1        0.1668
     12 C          -1.5757   -3.8401   -0.0743 C.ar    1  LIG1        0.1668
     13 C          -0.2728   -3.4896   -0.3082 C.ar    1  LIG1       -0.0084
     14 O          -2.1066   -5.0840   -0.1917 O.3     1  LIG1       -0.4526
     15 C          -3.4743   -4.8262    0.1868 C.3     1  LIG1        0.2332
     16 O          -3.7193   -3.4488    0.5399 O.3     1  LIG1       -0.4526
     17 N           3.3382   -0.2735   -0.3395 N.pl3   1  LIG1       -0.3321
     18 C           4.2841   -1.3862   -0.3378 C.3     1  LIG1        0.0007
     19 C           3.7690    0.9155    0.4018 C.3     1  LIG1        0.0159
     20 C           2.9790    2.1267   -0.0669 C.3     1  LIG1       -0.0112
     21 C           1.5011    1.8550    0.0762 C.ar    1  LIG1       -0.0327
     22 C           0.6386    2.9476    0.1919 C.ar    1  LIG1       -0.0124
     23 C          -0.7184    2.7423    0.3652 C.ar    1  LIG1        0.1624
     24 O          -1.6117    3.7763    0.5051 O.3     1  LIG1       -0.4914
     25 C          -1.2899    4.9609   -0.2227 C.3     1  LIG1        0.0790
     26 H          -3.8118    2.5109   -0.1968 H       1  LIG1        0.0660
     27 H          -4.2747    0.8093   -0.1145 H       1  LIG1        0.0660
     28 H          -2.9835    1.2894   -1.2279 H       1  LIG1        0.0660
     29 H           2.1244   -2.6388   -0.6161 H       1  LIG1        0.0642
     30 H          -2.9163   -0.9256    0.8671 H       1  LIG1        0.0662
     31 H           0.4368   -4.2532   -0.6138 H       1  LIG1        0.0661
     32 H          -3.7248   -5.4596    1.0452 H       1  LIG1        0.1166
     33 H          -4.1268   -5.0951   -0.6521 H       1  LIG1        0.1166
     34 H           4.1292   -2.0362   -1.2055 H       1  LIG1        0.0428
     35 H           4.2089   -1.9737    0.5840 H       1  LIG1        0.0428
     36 H           5.3133   -1.0182   -0.4155 H       1  LIG1        0.0428
     37 H           4.8356    1.1064    0.2341 H       1  LIG1        0.0467
     38 H           3.6394    0.7515    1.4812 H       1  LIG1        0.0467
     39 H           3.2000    2.3490   -1.1176 H       1  LIG1        0.0329
     40 H           3.2693    2.9944    0.5373 H       1  LIG1        0.0329
     41 H           1.0602    3.9472    0.1777 H       1  LIG1        0.0658
     42 H          -2.1721    5.6081   -0.2224 H       1  LIG1        0.0660
     43 H          -1.0406    4.7379   -1.2669 H       1  LIG1        0.0660
     44 H          -0.4786    5.5136    0.2620 H       1  LIG1        0.0660
@<TRIPOS>BOND
     1     1     2    1
     2     1     3    1
     3     3     4   ar
     4     4     5   ar
     5     5     6   ar
     6     6     7   ar
     7     7     8   ar
     8     8     9   ar
     9     4     9   ar
    10     9    10   ar
    11    10    11   ar
    12    11    12   ar
    13    12    13   ar
    14     8    13   ar
    15    12    14    1
    16    14    15    1
    17    15    16    1
    18    11    16    1
    19     6    17    1
    20    17    18    1
    21    17    19    1
    22    19    20    1
    23    20    21    1
    24     5    21   ar
    25    21    22   ar
    26    22    23   ar
    27     3    23   ar
    28    23    24    1
    29    24    25    1
    30     2    26    1
    31     2    27    1
    32     2    28    1
    33     7    29    1
    34    10    30    1
    35    13    31    1
    36    15    32    1
    37    15    33    1
    38    18    34    1
    39    18    35    1
    40    18    36    1
    41    19    37    1
    42    19    38    1
    43    20    39    1
    44    20    40    1
    45    22    41    1
    46    25    42    1
    47    25    43    1
    48    25    44    1
