@<TRIPOS>MOLECULE
NuBBE_579
 46 48 0 0 0
SMALL
GASTEIGER

@<TRIPOS>ATOM
      1 O           1.5716   -0.1031    4.1488 O.3     1  LIG1       -0.3891
      2 C           0.6577    0.0537    3.0592 C.3     1  LIG1        0.0861
      3 H          -0.1794    0.6418    3.4511 H       1  LIG1        0.0621
      4 C           0.1786   -1.3137    2.6105 C.3     1  LIG1        0.0022
      5 C          -0.7165   -1.2042    1.3799 C.3     1  LIG1        0.0654
      6 H          -0.8977   -2.2298    1.0422 H       1  LIG1        0.0598
      7 C          -2.0814   -0.5470    1.6536 C.3     1  LIG1        0.0111
      8 C          -2.9983   -0.4355    0.4173 C.3     1  LIG1        0.1091
      9 H          -2.5254    0.2449   -0.3008 H       1  LIG1        0.0738
     10 O          -4.2323    0.2249    0.8185 O.3     1  LIG1       -0.4579
     11 C          -5.2550   -0.4767    1.3680 C.2     1  LIG1        0.3319
     12 C          -5.1913   -1.9458    1.2629 C.2     1  LIG1        0.0187
     13 C          -4.3023   -2.5494    0.4615 C.2     1  LIG1       -0.0738
     14 C          -3.3090   -1.7454   -0.3087 C.3     1  LIG1        0.0032
     15 O          -6.2127    0.0664    1.9089 O.2     1  LIG1       -0.2456
     16 O          -0.0017   -0.5635    0.3239 O.3     1  LIG1       -0.3665
     17 C           0.5002    0.7443    0.6190 C.3     1  LIG1        0.1057
     18 H          -0.3494    1.4339    0.6931 H       1  LIG1        0.0667
     19 C           1.3434    0.8059    1.9138 C.3     1  LIG1        0.1107
     20 H           2.3411    0.3767    1.7531 H       1  LIG1        0.0648
     21 O           1.5384    2.1589    2.3656 O.3     1  LIG1       -0.3863
     22 C           1.3221    1.2062   -0.5667 C.2     1  LIG1       -0.0525
     23 C           1.9901    0.4064   -1.4190 C.2     1  LIG1       -0.0560
     24 C           2.7602    0.8456   -2.5989 C.ar    1  LIG1       -0.0252
     25 C           3.4343   -0.1194   -3.3639 C.ar    1  LIG1       -0.0546
     26 C           4.1739    0.2461   -4.4939 C.ar    1  LIG1       -0.0612
     27 C           4.2521    1.5828   -4.8747 C.ar    1  LIG1       -0.0617
     28 C           3.5810    2.5509   -4.1348 C.ar    1  LIG1       -0.0612
     29 C           2.8382    2.1838   -3.0093 C.ar    1  LIG1       -0.0546
     30 H           1.9282    0.7909    4.3178 H       1  LIG1        0.2099
     31 H          -0.3313   -1.8339    3.4291 H       1  LIG1        0.0316
     32 H           1.0569   -1.9260    2.3621 H       1  LIG1        0.0316
     33 H          -2.5912   -1.0873    2.4605 H       1  LIG1        0.0326
     34 H          -1.9472    0.4717    2.0388 H       1  LIG1        0.0326
     35 H          -5.9467   -2.4992    1.8062 H       1  LIG1        0.0686
     36 H          -4.3149   -3.6280    0.3389 H       1  LIG1        0.0575
     37 H          -3.7466   -1.5289   -1.2915 H       1  LIG1        0.0343
     38 H          -2.4035   -2.3289   -0.4900 H       1  LIG1        0.0343
     39 H           1.9052    2.6689    1.6224 H       1  LIG1        0.2100
     40 H           1.3281    2.2816   -0.7075 H       1  LIG1        0.0599
     41 H           1.9783   -0.6696   -1.2451 H       1  LIG1        0.0621
     42 H           3.3892   -1.1722   -3.0927 H       1  LIG1        0.0623
     43 H           4.6865   -0.5145   -5.0772 H       1  LIG1        0.0618
     44 H           4.8300    1.8703   -5.7488 H       1  LIG1        0.0618
     45 H           3.6285    3.5952   -4.4320 H       1  LIG1        0.0618
     46 H           2.3200    2.9703   -2.4711 H       1  LIG1        0.0623
@<TRIPOS>BOND
     1     2     4    1
     2     4     5    1
     3     7     8    1
     4     8     9    1
     5     8    10    1
     6    10    11    1
     7    11    12    1
     8    12    13    2
     9    13    14    1
    10     8    14    1
    11    11    15    2
    12     5    16    1
    13    16    17    1
    14    17    18    1
    15    17    19    1
    16     2    19    1
    17    17    22    1
    18    22    23    2
    19    23    24    1
    20    24    25   ar
    21    25    26   ar
    22    26    27   ar
    23    27    28   ar
    24    28    29   ar
    25    24    29   ar
    26     2     3    1
    27     2     1    1
    28     5     7    1
    29     5     6    1
    30    19    21    1
    31    19    20    1
    32     1    30    1
    33     4    31    1
    34     4    32    1
    35     7    33    1
    36     7    34    1
    37    12    35    1
    38    13    36    1
    39    14    37    1
    40    14    38    1
    41    21    39    1
    42    22    40    1
    43    23    41    1
    44    25    42    1
    45    26    43    1
    46    27    44    1
    47    28    45    1
    48    29    46    1
