REMARK  Name = NuBBE_1870
REMARK  12 active torsions:
REMARK  status: ('A' for Active; 'I' for Inactive)
REMARK    1  A    between atoms: C_1  and  O_2
REMARK    2  A    between atoms: O_2  and  C_3
REMARK    3  A    between atoms: C_4  and  C_5
REMARK    4  A    between atoms: C_7  and  O_8
REMARK    5  A    between atoms: C_9  and  O_10
REMARK    6  A    between atoms: O_10  and  C_11
REMARK    7  A    between atoms: C_12  and  O_13
REMARK    8  A    between atoms: O_13  and  C_14
REMARK    9  A    between atoms: C_19  and  O_20
REMARK   10  A    between atoms: C_21  and  O_22
REMARK   11  A    between atoms: C_23  and  O_24
REMARK   12  A    between atoms: O_24  and  C_25
REMARK                            x       y       z     vdW  Elec       q    Type
REMARK                         _______ _______ _______ _____ _____    ______ ____
ROOT
ATOM      1  C   LIG A   1      -0.931   0.498  -1.377  0.00  0.00    +0.211 A 
ATOM      2  C   LIG A   1      -0.237   0.077  -0.293  0.00  0.00    +0.181 A 
ATOM      3  O   LIG A   1       0.377   0.896   0.640  0.00  0.00    -0.451 OA
ATOM      4  C   LIG A   1       0.213   2.251   0.535  0.00  0.00    +0.147 A 
ATOM      5  C   LIG A   1      -0.488   2.836  -0.512  0.00  0.00    +0.113 A 
ATOM      6  C   LIG A   1      -0.638   4.217  -0.561  0.00  0.00    +0.177 A 
ATOM      7  C   LIG A   1      -0.091   5.024   0.435  0.00  0.00    +0.202 A 
ATOM      8  C   LIG A   1       0.631   4.457   1.488  0.00  0.00    +0.169 A 
ATOM      9  C   LIG A   1       0.767   3.060   1.533  0.00  0.00    +0.096 A 
ATOM     10  C   LIG A   1      -1.056   1.967  -1.546  0.00  0.00    +0.238 A 
ATOM     11  O   LIG A   1      -1.622   2.508  -2.507  0.00  0.00    -0.283 OA
ENDROOT
BRANCH   2  12
ATOM     12  C   LIG A   1      -0.007  -1.352  -0.033  0.00  0.00    +0.028 A 
ATOM     13  C   LIG A   1       1.102  -1.978  -0.601  0.00  0.00    +0.061 A 
ATOM     14  C   LIG A   1       1.359  -3.326  -0.345  0.00  0.00    +0.163 A 
ATOM     15  C   LIG A   1       0.509  -4.095   0.470  0.00  0.00    +0.203 A 
ATOM     16  C   LIG A   1      -0.607  -3.459   1.058  0.00  0.00    +0.166 A 
ATOM     17  C   LIG A   1      -0.854  -2.096   0.796  0.00  0.00    +0.061 A 
BRANCH  14  18
ATOM     18  O   LIG A   1       2.500  -3.862  -0.880  0.00  0.00    -0.503 OA
ATOM     19  H   LIG A   1       2.971  -3.187  -1.393  0.00  0.00    +0.292 HD
ENDBRANCH  14  18
BRANCH  15  20
ATOM     20  O   LIG A   1       0.761  -5.398   0.809  0.00  0.00    -0.488 OA
ATOM     21  C   LIG A   1       1.365  -6.246  -0.158  0.00  0.00    +0.277 C 
ENDBRANCH  15  20
BRANCH  16  22
ATOM     22  O   LIG A   1      -1.545  -4.004   1.904  0.00  0.00    -0.491 OA
ATOM     23  C   LIG A   1      -1.439  -5.383   2.235  0.00  0.00    +0.277 C 
ENDBRANCH  16  22
ENDBRANCH   2  12
BRANCH   1  25
ATOM     24  C   LIG A   1      -1.653  -0.015  -3.602  0.00  0.00    +0.277 C 
ATOM     25  O   LIG A   1      -1.514  -0.419  -2.241  0.00  0.00    -0.488 OA
ENDBRANCH   1  25
BRANCH   6  26
ATOM     26  O   LIG A   1      -1.331   4.872  -1.557  0.00  0.00    -0.503 OA
ATOM     27  H   LIG A   1      -1.647   4.191  -2.195  0.00  0.00    +0.292 HD
ENDBRANCH   6  26
BRANCH   7  28
ATOM     28  O   LIG A   1      -0.325   6.368   0.329  0.00  0.00    -0.501 OA
ATOM     29  H   LIG A   1      -0.878   6.465  -0.474  0.00  0.00    +0.292 HD
ENDBRANCH   7  28
BRANCH   8  30
ATOM     30  O   LIG A   1       1.212   5.119   2.537  0.00  0.00    -0.491 OA
ATOM     31  C   LIG A   1       1.562   6.481   2.310  0.00  0.00    +0.277 C 
ENDBRANCH   8  30
TORSDOF 8
