REMARK  Name = NuBBE_1856
REMARK  7 active torsions:
REMARK  status: ('A' for Active; 'I' for Inactive)
REMARK    1  A    between atoms: O_1  and  C_2
REMARK    2  A    between atoms: C_5  and  C_8
REMARK    3  A    between atoms: C_8  and  C_9
REMARK    4  A    between atoms: C_9  and  C_10
REMARK    5  A    between atoms: C_13  and  C_18
REMARK    6  A    between atoms: C_21  and  O_22
REMARK    7  A    between atoms: O_22  and  C_23
REMARK                            x       y       z     vdW  Elec       q    Type
REMARK                         _______ _______ _______ _____ _____    ______ ____
ROOT
ATOM      1  C   LIG A   1      -1.472   1.447   0.340  0.00  0.00    +0.119 C 
ATOM      2  O   LIG A   1      -0.870   0.464  -0.504  0.00  0.00    -0.369 OA
ATOM      3  C   LIG A   1      -1.728   0.023  -1.568  0.00  0.00    +0.149 C 
ATOM      4  C   LIG A   1      -2.091   1.204  -2.478  0.00  0.00    +0.036 C 
ATOM      5  C   LIG A   1      -2.693   2.346  -1.663  0.00  0.00    +0.005 C 
ATOM      6  C   LIG A   1      -1.790   2.699  -0.482  0.00  0.00    +0.032 C 
ENDROOT
BRANCH   3   7
ATOM      7  C   LIG A   1      -1.016  -1.073  -2.339  0.00  0.00    -0.019 A 
ATOM      8  C   LIG A   1       0.382  -1.080  -2.444  0.00  0.00    +0.010 A 
ATOM      9  C   LIG A   1       1.049  -2.091  -3.139  0.00  0.00    +0.046 A 
ATOM     10  C   LIG A   1       0.329  -3.115  -3.754  0.00  0.00    +0.120 A 
ATOM     11  C   LIG A   1      -1.063  -3.111  -3.670  0.00  0.00    +0.046 A 
ATOM     12  C   LIG A   1      -1.735  -2.099  -2.968  0.00  0.00    +0.010 A 
BRANCH  10  13
ATOM     13  O   LIG A   1       0.878  -4.155  -4.455  0.00  0.00    -0.495 OA
ATOM     14  C   LIG A   1       2.300  -4.187  -4.517  0.00  0.00    +0.277 C 
ENDBRANCH  10  13
ENDBRANCH   3   7
BRANCH   1  15
ATOM     15  C   LIG A   1      -0.500   1.761   1.490  0.00  0.00    +0.036 C 
BRANCH  15  16
ATOM     16  C   LIG A   1      -0.185   0.508   2.317  0.00  0.00    +0.037 C 
BRANCH  16  20
ATOM     17  C   LIG A   1       2.461   1.133   5.658  0.00  0.00    +0.117 A 
ATOM     18  C   LIG A   1       2.994   0.864   4.402  0.00  0.00    +0.045 A 
ATOM     19  C   LIG A   1       2.134   0.688   3.313  0.00  0.00    +0.007 A 
ATOM     20  C   LIG A   1       0.743   0.772   3.480  0.00  0.00    -0.047 A 
ATOM     21  C   LIG A   1       0.229   1.070   4.751  0.00  0.00    +0.007 A 
ATOM     22  C   LIG A   1       1.088   1.246   5.838  0.00  0.00    +0.045 A 
BRANCH  17  23
ATOM     23  O   LIG A   1       3.261   1.285   6.752  0.00  0.00    -0.507 OA
ATOM     24  H   LIG A   1       4.180   1.120   6.486  0.00  0.00    +0.292 HD
ENDBRANCH  17  23
ENDBRANCH  16  20
ENDBRANCH  15  16
ENDBRANCH   1  15
TORSDOF 6
