@<TRIPOS>MOLECULE
NuBBE_2489
 50 52 0 0 0
SMALL
GASTEIGER

@<TRIPOS>ATOM
      1 C          -2.5378    0.4399    0.6107 C.3     1  LIG1       -0.0553
      2 C          -1.0354    0.0807    0.8078 C.3     1  LIG1       -0.0035
      3 C          -0.2548    1.0858   -0.0878 C.ar    1  LIG1       -0.0377
      4 C           0.4936    0.6908   -1.2238 C.ar    1  LIG1       -0.0397
      5 C           1.0987    1.6698   -2.0815 C.ar    1  LIG1       -0.0302
      6 C           1.8695    1.2328   -3.3176 C.3     1  LIG1       -0.0295
      7 C           3.3484    1.0026   -3.0359 C.3     1  LIG1       -0.0612
      8 C           0.9907    3.0407   -1.7428 C.ar    1  LIG1        0.0623
      9 C           0.2679    3.4171   -0.6062 C.ar    1  LIG1       -0.0472
     10 C          -0.3455    2.4608    0.1972 C.ar    1  LIG1       -0.0570
     11 C           1.5767    4.1393   -2.5670 C.2     1  LIG1        0.3371
     12 O           1.7609    4.1637   -3.7698 O.2     1  LIG1       -0.2451
     13 O           1.9221    5.2020   -1.8135 O.3     1  LIG1       -0.4771
     14 C           0.5869   -0.7798   -1.5547 C.3     1  LIG1       -0.0268
     15 C           0.5023   -1.6482   -0.3126 C.3     1  LIG1       -0.0449
     16 C          -0.8288   -1.4356    0.4216 C.3     1  LIG1       -0.0262
     17 H          -1.6085   -1.6635   -0.3219 H       1  LIG1        0.0314
     18 C          -1.0092   -2.4824    1.6034 C.3     1  LIG1       -0.0312
     19 C           0.3223   -2.9650    2.2314 C.3     1  LIG1       -0.0595
     20 C          -1.7147   -3.7402    1.0406 C.3     1  LIG1       -0.0595
     21 C          -1.8881   -1.9192    2.7357 C.3     1  LIG1       -0.0476
     22 C          -1.3937   -0.5877    3.2881 C.3     1  LIG1       -0.0518
     23 C          -0.6241    0.2754    2.2886 C.3     1  LIG1       -0.0433
     24 H          -2.7907    0.4905   -0.4561 H       1  LIG1        0.0238
     25 H          -2.7875    1.4117    1.0514 H       1  LIG1        0.0238
     26 H          -3.2188   -0.2875    1.0537 H       1  LIG1        0.0238
     27 H           1.4245    0.3261   -3.7422 H       1  LIG1        0.0311
     28 H           1.7613    1.9537   -4.1300 H       1  LIG1        0.0311
     29 H           3.4995    0.2237   -2.2816 H       1  LIG1        0.0233
     30 H           3.8362    1.9142   -2.6759 H       1  LIG1        0.0233
     31 H           3.8592    0.6851   -3.9511 H       1  LIG1        0.0233
     32 H           0.1506    4.4670   -0.3455 H       1  LIG1        0.0626
     33 H          -0.9247    2.8183    1.0459 H       1  LIG1        0.0621
     34 H           2.2865    5.8347   -2.4673 H       1  LIG1        0.2954
     35 H           1.5418   -1.0180   -2.0318 H       1  LIG1        0.0313
     36 H          -0.2128   -1.0361   -2.2596 H       1  LIG1        0.0313
     37 H           1.3491   -1.4167    0.3456 H       1  LIG1        0.0271
     38 H           0.6016   -2.6957   -0.6205 H       1  LIG1        0.0271
     39 H           0.9345   -2.1361    2.5964 H       1  LIG1        0.0235
     40 H           0.9239   -3.5424    1.5213 H       1  LIG1        0.0235
     41 H           0.1337   -3.6278    3.0849 H       1  LIG1        0.0235
     42 H          -2.7004   -3.4912    0.6306 H       1  LIG1        0.0235
     43 H          -1.8658   -4.4945    1.8215 H       1  LIG1        0.0235
     44 H          -1.1277   -4.2029    0.2400 H       1  LIG1        0.0235
     45 H          -1.9593   -2.6369    3.5645 H       1  LIG1        0.0271
     46 H          -2.9210   -1.8096    2.3878 H       1  LIG1        0.0271
     47 H          -0.7502   -0.7662    4.1588 H       1  LIG1        0.0266
     48 H          -2.2568   -0.0274    3.6690 H       1  LIG1        0.0266
     49 H           0.4498    0.0674    2.3870 H       1  LIG1        0.0274
     50 H          -0.7358    1.3166    2.6128 H       1  LIG1        0.0274
@<TRIPOS>BOND
     1     2     3    1
     2     3     4   ar
     3     4     5   ar
     4     6     7    1
     5     5     8   ar
     6     8     9   ar
     7     9    10   ar
     8     3    10   ar
     9    11    12    2
    10    11    13    1
    11     4    14    1
    12    14    15    1
    13    15    16    1
    14     2    16    1
    15    16    18    1
    16    18    21    1
    17    21    22    1
    18    22    23    1
    19     2    23    1
    20     1     2    1
    21     5     6    1
    22     8    11    1
    23    16    17    1
    24    18    19    1
    25    18    20    1
    26     1    24    1
    27     1    25    1
    28     1    26    1
    29     6    27    1
    30     6    28    1
    31     7    29    1
    32     7    30    1
    33     7    31    1
    34     9    32    1
    35    10    33    1
    36    13    34    1
    37    14    35    1
    38    14    36    1
    39    15    37    1
    40    15    38    1
    41    19    39    1
    42    19    40    1
    43    19    41    1
    44    20    42    1
    45    20    43    1
    46    20    44    1
    47    21    45    1
    48    21    46    1
    49    22    47    1
    50    22    48    1
    51    23    49    1
    52    23    50    1
