@<TRIPOS>MOLECULE
NuBBE_1765
 39 42 0 0 0
SMALL
GASTEIGER

@<TRIPOS>ATOM
      1 O          -0.6358    3.6670    0.4637 O.3     1  LIG1       -0.3843
      2 C          -1.1470    2.3699    0.1469 C.3     1  LIG1        0.1134
      3 H          -2.2422    2.4322    0.1538 H       1  LIG1        0.0672
      4 C          -0.6915    1.3716    1.2133 C.3     1  LIG1        0.1299
      5 H          -1.2388    1.5788    2.1434 H       1  LIG1        0.0666
      6 C          -0.9448   -0.0506    0.7055 C.3     1  LIG1        0.1543
      7 H          -2.0238   -0.2172    0.5860 H       1  LIG1        0.0812
      8 C          -0.3883   -1.0445    1.7027 C.ar    1  LIG1        0.0043
      9 C           0.6406   -0.6500    2.5865 C.ar    1  LIG1       -0.0115
     10 C           1.1401    0.7779    2.6052 C.3     1  LIG1        0.0738
     11 O           0.7142    1.5680    1.4900 O.3     1  LIG1       -0.3650
     12 C           1.1728   -1.5813    3.4946 C.ar    1  LIG1       -0.0108
     13 C           0.6915   -2.8857    3.5010 C.ar    1  LIG1        0.1586
     14 C          -0.3136   -3.2713    2.6192 C.ar    1  LIG1        0.1586
     15 C          -0.8547   -2.3676    1.7179 C.ar    1  LIG1       -0.0094
     16 O          -0.7778   -4.5554    2.6336 O.3     1  LIG1       -0.5033
     17 O           1.1776   -3.8317    4.3611 O.3     1  LIG1       -0.5033
     18 O          -0.2966   -0.3404   -0.5403 O.3     1  LIG1       -0.4810
     19 C          -0.3497    0.6375   -1.4939 C.ar    1  LIG1        0.1307
     20 C          -0.7275    1.9563   -1.2350 C.ar    1  LIG1        0.0254
     21 C          -0.7509    2.8705   -2.2970 C.ar    1  LIG1       -0.0491
     22 C          -0.3740    2.4738   -3.5816 C.ar    1  LIG1       -0.0194
     23 C           0.0273    1.1608   -3.8302 C.ar    1  LIG1        0.1236
     24 C           0.0397    0.2446   -2.7794 C.ar    1  LIG1        0.0222
     25 O           0.3752    0.9040   -5.1278 O.3     1  LIG1       -0.4950
     26 C           0.8050   -0.4186   -5.4261 C.3     1  LIG1        0.0788
     27 H           0.3049    3.5118    0.6839 H       1  LIG1        0.2103
     28 H           2.2351    0.7868    2.6017 H       1  LIG1        0.0610
     29 H           0.7969    1.2697    3.5229 H       1  LIG1        0.0610
     30 H           1.9555   -1.2760    4.1828 H       1  LIG1        0.0659
     31 H          -1.6262   -2.6961    1.0268 H       1  LIG1        0.0659
     32 H          -0.2495   -4.9987    3.3269 H       1  LIG1        0.2923
     33 H           1.8913   -3.4295    4.8852 H       1  LIG1        0.2923
     34 H          -1.0553    3.9013   -2.1245 H       1  LIG1        0.0623
     35 H          -0.3896    3.1961   -4.3942 H       1  LIG1        0.0654
     36 H           0.3432   -0.7867   -2.9246 H       1  LIG1        0.0691
     37 H           1.0509   -0.4575   -6.4917 H       1  LIG1        0.0660
     38 H           0.0056   -1.1441   -5.2425 H       1  LIG1        0.0660
     39 H           1.7101   -0.6758   -4.8661 H       1  LIG1        0.0660
@<TRIPOS>BOND
     1     2     4    1
     2     4     5    1
     3     4     6    1
     4     6     7    1
     5     6     8    1
     6     8     9   ar
     7     9    10    1
     8    10    11    1
     9     4    11    1
    10     9    12   ar
    11    12    13   ar
    12    13    14   ar
    13    14    15   ar
    14     8    15   ar
    15    14    16    1
    16    13    17    1
    17     6    18    1
    18    18    19    1
    19    19    20   ar
    20     2    20    1
    21    20    21   ar
    22    21    22   ar
    23    22    23   ar
    24    23    24   ar
    25    19    24   ar
    26    23    25    1
    27    25    26    1
    28     2     3    1
    29     2     1    1
    30     1    27    1
    31    10    28    1
    32    10    29    1
    33    12    30    1
    34    15    31    1
    35    16    32    1
    36    17    33    1
    37    21    34    1
    38    22    35    1
    39    24    36    1
    40    26    37    1
    41    26    38    1
    42    26    39    1
