@<TRIPOS>MOLECULE
NuBBE_2207
 50 50 0 0 0
SMALL
GASTEIGER

@<TRIPOS>ATOM
      1 C          -1.9842    0.7682    2.1894 C.2     1  LIG1        0.1895
      2 O          -2.2511    1.9628    2.2675 O.2     1  LIG1       -0.2872
      3 C          -3.0373   -0.2957    2.1771 C.2     1  LIG1       -0.0155
      4 C          -4.3765   -0.1797    2.2733 C.2     1  LIG1       -0.0721
      5 C          -5.1664    1.0911    2.4077 C.3     1  LIG1       -0.0436
      6 C          -5.2174   -1.4322    2.2154 C.3     1  LIG1       -0.0436
      7 C          -0.5576    0.3412    2.0074 C.ar    1  LIG1        0.0634
      8 C           0.2981    1.2205    1.3097 C.ar    1  LIG1       -0.0408
      9 C           1.6521    0.9002    1.0826 C.ar    1  LIG1       -0.0066
     10 C           2.6273    1.8080    0.3484 C.3     1  LIG1        0.1256
     11 O           2.4725    1.5408   -1.0488 O.3     1  LIG1       -0.4535
     12 C           3.2748    0.5881   -1.6074 C.2     1  LIG1        0.3387
     13 O           4.2939    0.1354   -1.1333 O.2     1  LIG1       -0.2452
     14 C           2.6042    0.0478   -2.8303 C.2     1  LIG1        0.0695
     15 C           1.7341    0.7576   -3.5748 C.2     1  LIG1       -0.0739
     16 C           1.2899    2.1711   -3.3852 C.3     1  LIG1       -0.0459
     17 C           2.9232   -1.3900   -3.1729 C.3     1  LIG1        0.1238
     18 O           2.0688   -2.2864   -2.4332 O.3     1  LIG1       -0.4598
     19 C           0.8212   -2.4718   -2.9445 C.2     1  LIG1        0.3043
     20 O           0.3810   -1.9618   -3.9662 O.2     1  LIG1       -0.2512
     21 C           0.0221   -3.4174   -2.1046 C.3     1  LIG1        0.0332
     22 C           2.3984    3.2957    0.6203 C.3     1  LIG1       -0.0234
     23 C           2.1242   -0.3414    1.5280 C.ar    1  LIG1       -0.0516
     24 C           1.2980   -1.2109    2.2351 C.ar    1  LIG1       -0.0191
     25 C          -0.0277   -0.8624    2.4945 C.ar    1  LIG1        0.1277
     26 O          -0.7752   -1.7151    3.2591 O.3     1  LIG1       -0.5061
     27 H          -2.6490   -1.3000    2.0587 H       1  LIG1        0.0655
     28 H          -4.6024    1.9883    2.1510 H       1  LIG1        0.0274
     29 H          -5.5439    1.1983    3.4298 H       1  LIG1        0.0274
     30 H          -6.0296    1.0672    1.7319 H       1  LIG1        0.0274
     31 H          -4.6188   -2.3216    1.9868 H       1  LIG1        0.0274
     32 H          -5.9737   -1.3468    1.4286 H       1  LIG1        0.0274
     33 H          -5.7190   -1.6057    3.1723 H       1  LIG1        0.0274
     34 H          -0.1123    2.1630    0.9477 H       1  LIG1        0.0630
     35 H           3.6503    1.5873    0.6733 H       1  LIG1        0.0782
     36 H           1.2457    0.2575   -4.4105 H       1  LIG1        0.0575
     37 H           2.0962    2.8166   -3.0263 H       1  LIG1        0.0272
     38 H           0.4440    2.2120   -2.6906 H       1  LIG1        0.0272
     39 H           0.9634    2.5776   -4.3447 H       1  LIG1        0.0272
     40 H           3.9599   -1.6506   -2.9280 H       1  LIG1        0.0751
     41 H           2.8268   -1.5860   -4.2500 H       1  LIG1        0.0751
     42 H           0.5580   -3.6852   -1.1908 H       1  LIG1        0.0342
     43 H          -0.1719   -4.3239   -2.6835 H       1  LIG1        0.0342
     44 H          -0.9192   -2.9368   -1.8245 H       1  LIG1        0.0342
     45 H           1.4453    3.6626    0.2235 H       1  LIG1        0.0269
     46 H           3.1795    3.8943    0.1393 H       1  LIG1        0.0269
     47 H           2.4258    3.4976    1.6969 H       1  LIG1        0.0269
     48 H           3.1580   -0.6305    1.3398 H       1  LIG1        0.0623
     49 H           1.7140   -2.1500    2.5869 H       1  LIG1        0.0654
     50 H          -0.2173   -2.4488    3.5681 H       1  LIG1        0.2922
@<TRIPOS>BOND
     1     1     2    2
     2     1     3    1
     3     3     4    2
     4     4     5    1
     5     4     6    1
     6     1     7    1
     7     7     8   ar
     8     8     9   ar
     9     9    10    1
    10    10    11    1
    11    11    12    1
    12    12    13    2
    13    12    14    1
    14    14    15    2
    15    15    16    1
    16    14    17    1
    17    17    18    1
    18    18    19    1
    19    19    20    2
    20    19    21    1
    21    10    22    1
    22     9    23   ar
    23    23    24   ar
    24    24    25   ar
    25     7    25   ar
    26    25    26    1
    27     3    27    1
    28     5    28    1
    29     5    29    1
    30     5    30    1
    31     6    31    1
    32     6    32    1
    33     6    33    1
    34     8    34    1
    35    10    35    1
    36    15    36    1
    37    16    37    1
    38    16    38    1
    39    16    39    1
    40    17    40    1
    41    17    41    1
    42    21    42    1
    43    21    43    1
    44    21    44    1
    45    22    45    1
    46    22    46    1
    47    22    47    1
    48    23    48    1
    49    24    49    1
    50    26    50    1
