@<TRIPOS>MOLECULE
NuBBE_1682
 54 54 0 0 0
SMALL
GASTEIGER

@<TRIPOS>ATOM
      1 C           5.8630   -0.1937    0.0687 C.3     1  LIG1       -0.0650
      2 C           6.6297   -1.2838    0.7863 C.3     1  LIG1       -0.0525
      3 C           6.0581   -1.6733    2.1555 C.3     1  LIG1       -0.0350
      4 C           4.7264   -2.3751    2.2003 C.2     1  LIG1       -0.0876
      5 C           3.4829   -1.9338    1.9401 C.2     1  LIG1       -0.0842
      6 C           2.9939   -0.6066    1.4286 C.3     1  LIG1       -0.0165
      7 C           2.5453   -0.7738    0.0014 C.2     1  LIG1       -0.0842
      8 C           1.8898    0.1009   -0.7725 C.2     1  LIG1       -0.0876
      9 C           1.4550    1.4808   -0.3831 C.3     1  LIG1       -0.0348
     10 C           0.5870    2.1495   -1.4462 C.3     1  LIG1       -0.0496
     11 C          -0.5991    1.3251   -1.8683 C.3     1  LIG1       -0.0528
     12 C          -1.6674    1.0659   -0.8298 C.3     1  LIG1       -0.0530
     13 C          -1.5248    0.3570    0.5154 C.3     1  LIG1       -0.0528
     14 C          -2.8010    0.2490    1.4137 C.3     1  LIG1       -0.0491
     15 C          -4.0240   -0.6623    1.0674 C.3     1  LIG1       -0.0276
     16 C          -5.0580   -0.2036    0.0645 C.ar    1  LIG1       -0.0439
     17 C          -4.6626    0.4016   -1.0910 C.ar    1  LIG1       -0.0170
     18 C          -5.4580    0.8485   -2.1400 C.ar    1  LIG1        0.1171
     19 O          -4.9128    1.4943   -3.2042 O.3     1  LIG1       -0.5068
     20 C          -6.8073    0.5890   -2.0755 C.ar    1  LIG1       -0.0202
     21 C          -7.2886   -0.0587   -0.9330 C.ar    1  LIG1       -0.0581
     22 C          -6.4351   -0.4439    0.1291 C.ar    1  LIG1       -0.0583
     23 H           5.5827    0.6101    0.7551 H       1  LIG1        0.0230
     24 H           4.9814   -0.6223   -0.4024 H       1  LIG1        0.0230
     25 H           6.4439    0.2569   -0.7376 H       1  LIG1        0.0230
     26 H           7.6533   -0.9203    0.9359 H       1  LIG1        0.0266
     27 H           6.6965   -2.1649    0.1377 H       1  LIG1        0.0266
     28 H           6.0476   -0.8128    2.8338 H       1  LIG1        0.0307
     29 H           6.7844   -2.3733    2.5976 H       1  LIG1        0.0307
     30 H           4.7953   -3.4109    2.5397 H       1  LIG1        0.0569
     31 H           2.6754   -2.6565    2.0659 H       1  LIG1        0.0572
     32 H           3.7598    0.1657    1.5157 H       1  LIG1        0.0350
     33 H           2.1612   -0.2660    2.0514 H       1  LIG1        0.0350
     34 H           2.8489   -1.7003   -0.4878 H       1  LIG1        0.0572
     35 H           1.6829   -0.2279   -1.7905 H       1  LIG1        0.0569
     36 H           2.3331    2.1060   -0.2310 H       1  LIG1        0.0307
     37 H           0.9308    1.4573    0.5692 H       1  LIG1        0.0307
     38 H           1.1926    2.3230   -2.3462 H       1  LIG1        0.0268
     39 H           0.2438    3.1308   -1.1012 H       1  LIG1        0.0268
     40 H          -0.2880    0.3618   -2.2914 H       1  LIG1        0.0265
     41 H          -1.0919    1.8328   -2.7171 H       1  LIG1        0.0265
     42 H          -2.1125    0.2730   -1.4200 H       1  LIG1        0.0265
     43 H          -2.2902    1.9634   -0.7258 H       1  LIG1        0.0265
     44 H          -0.8111    0.9011    1.1337 H       1  LIG1        0.0265
     45 H          -1.1182   -0.6439    0.3472 H       1  LIG1        0.0265
     46 H          -3.1537    1.2556    1.6649 H       1  LIG1        0.0268
     47 H          -2.4086   -0.1655    2.3566 H       1  LIG1        0.0268
     48 H          -4.5565   -0.8021    2.0183 H       1  LIG1        0.0313
     49 H          -3.6547   -1.6534    0.7790 H       1  LIG1        0.0313
     50 H          -3.6523    0.5168   -1.3044 H       1  LIG1        0.0657
     51 H          -4.0029    1.7652   -2.9851 H       1  LIG1        0.2921
     52 H          -7.4459    0.8798   -2.8982 H       1  LIG1        0.0654
     53 H          -8.3526   -0.2804   -0.8782 H       1  LIG1        0.0619
     54 H          -6.8665   -0.9521    0.9877 H       1  LIG1        0.0620
@<TRIPOS>BOND
     1     1     2    1
     2     2     3    1
     3     3     4    1
     4     4     5    2
     5     5     6    1
     6     6     7    1
     7     7     8    2
     8     8     9    1
     9     9    10    1
    10    10    11    1
    11    11    12    1
    12    12    13    1
    13    13    14    1
    14    14    15    1
    15    15    16    1
    16    16    17   ar
    17    17    18   ar
    18    18    19    1
    19    18    20   ar
    20    20    21   ar
    21    21    22   ar
    22    16    22   ar
    23     1    23    1
    24     1    24    1
    25     1    25    1
    26     2    26    1
    27     2    27    1
    28     3    28    1
    29     3    29    1
    30     4    30    1
    31     5    31    1
    32     6    32    1
    33     6    33    1
    34     7    34    1
    35     8    35    1
    36     9    36    1
    37     9    37    1
    38    10    38    1
    39    10    39    1
    40    11    40    1
    41    11    41    1
    42    12    42    1
    43    12    43    1
    44    13    44    1
    45    13    45    1
    46    14    46    1
    47    14    47    1
    48    15    48    1
    49    15    49    1
    50    17    50    1
    51    19    51    1
    52    20    52    1
    53    21    53    1
    54    22    54    1
