@<TRIPOS>MOLECULE
NuBBE_852
 43 46 0 0 0
SMALL
GASTEIGER

@<TRIPOS>ATOM
      1 O          -0.7412    3.2954   -1.2596 O.2     1  LIG1       -0.2891
      2 C          -0.1890    2.9173   -0.2187 C.2     1  LIG1        0.1961
      3 C           0.2958    3.9316    0.9032 C.3     1  LIG1        0.1537
      4 O          -1.0155    3.3256    1.3817 O.3     1  LIG1       -0.3783
      5 C           1.7686    3.4891    0.5081 C.3     1  LIG1        0.0189
      6 C           1.9886    2.2553    1.3567 C.3     1  LIG1        0.1191
      7 H           3.0443    1.9861    1.4515 H       1  LIG1        0.0678
      8 O           1.4430    2.6374    2.6236 O.3     1  LIG1       -0.3655
      9 C           0.7985    3.9080    2.3949 C.3     1  LIG1        0.0847
     10 C           0.1318    1.4399   -0.0639 C.2     1  LIG1        0.0384
     11 C           1.1620    1.1432    0.7590 C.2     1  LIG1        0.1337
     12 O           1.6241   -0.1494    0.9839 O.2     1  LIG1       -0.4869
     13 C           1.1399   -1.0999    0.0213 C.3     1  LIG1        0.1112
     14 C           2.0170   -0.9986   -1.2440 C.3     1  LIG1       -0.0247
     15 C          -0.3767   -0.9342   -0.1781 C.3     1  LIG1        0.0093
     16 C          -0.6888    0.4223   -0.7943 C.3     1  LIG1       -0.0140
     17 H          -0.8539   -0.9359    0.8177 H       1  LIG1        0.0348
     18 C          -0.8019   -2.2120   -0.9140 C.3     1  LIG1       -0.0122
     19 H          -0.5386   -2.1215   -1.9766 H       1  LIG1        0.0350
     20 C          -2.2965   -2.4828   -0.8328 C.2     1  LIG1       -0.0586
     21 C          -3.1382   -1.9133   -1.9521 C.3     1  LIG1        0.0437
     22 CL         -3.0358   -2.9561   -3.3870 Cl      1  LIG1       -0.1207
     23 C          -2.8825   -3.1666    0.1676 C.2     1  LIG1       -0.0981
     24 C           0.1518   -3.2886   -0.3140 C.3     1  LIG1       -0.0425
     25 C           1.1744   -2.5339    0.5558 C.3     1  LIG1       -0.0123
     26 H          -0.8406    2.5543    1.9633 H       1  LIG1        0.2109
     27 H           2.4776    4.2932    0.7622 H       1  LIG1        0.0327
     28 H           1.9713    3.3301   -0.5639 H       1  LIG1        0.0327
     29 H           1.5203    4.7139    2.5944 H       1  LIG1        0.0593
     30 H           0.0219    4.0433    3.1603 H       1  LIG1        0.0593
     31 H           1.9718   -0.0046   -1.7001 H       1  LIG1        0.0268
     32 H           1.7481   -1.7297   -2.0113 H       1  LIG1        0.0268
     33 H           3.0694   -1.1597   -0.9808 H       1  LIG1        0.0268
     34 H          -1.7555    0.6462   -0.6848 H       1  LIG1        0.0319
     35 H          -0.4499    0.4428   -1.8632 H       1  LIG1        0.0319
     36 H          -2.8061   -0.9102   -2.2327 H       1  LIG1        0.0475
     37 H          -4.1940   -1.8416   -1.6708 H       1  LIG1        0.0475
     38 H          -3.9550   -3.3451    0.1790 H       1  LIG1        0.0535
     39 H          -2.3261   -3.5760    1.0039 H       1  LIG1        0.0535
     40 H           0.6708   -3.8010   -1.1338 H       1  LIG1        0.0272
     41 H          -0.3413   -4.0694    0.2701 H       1  LIG1        0.0272
     42 H           2.1700   -2.9873    0.5095 H       1  LIG1        0.0304
     43 H           0.8659   -2.5573    1.6089 H       1  LIG1        0.0304
@<TRIPOS>BOND
     1     1     2    2
     2     2     3    1
     3     3     4    1
     4     3     5    1
     5     5     6    1
     6     6     7    1
     7     6     8    1
     8     8     9    1
     9     3     9    1
    10     2    10    1
    11    10    11    2
    12     6    11    1
    13    11    12    1
    14    12    13    1
    15    13    14    1
    16    13    15    1
    17    15    16    1
    18    10    16    1
    19    15    17    1
    20    15    18    1
    21    20    21    1
    22    21    22    1
    23    20    23    2
    24    18    24    1
    25    24    25    1
    26    13    25    1
    27    18    20    1
    28    18    19    1
    29     4    26    1
    30     5    27    1
    31     5    28    1
    32     9    29    1
    33     9    30    1
    34    14    31    1
    35    14    32    1
    36    14    33    1
    37    16    34    1
    38    16    35    1
    39    21    36    1
    40    21    37    1
    41    23    38    1
    42    23    39    1
    43    24    40    1
    44    24    41    1
    45    25    42    1
    46    25    43    1
