@<TRIPOS>MOLECULE
NuBBE_372
 61 65 0 0 0
SMALL
GASTEIGER

@<TRIPOS>ATOM
      1 O           4.7440   -5.9760    4.2822 O.3     1  LIG1       -0.5032
      2 C           3.8143   -5.2942    3.5501 C.ar    1  LIG1        0.1618
      3 C           4.1774   -4.1563    2.8268 C.ar    1  LIG1        0.0265
      4 C           3.2083   -3.4665    2.0943 C.ar    1  LIG1        0.1430
      5 O           3.6324   -2.3475    1.4191 O.2     1  LIG1       -0.4542
      6 C           2.7017   -1.5993    0.7369 C.ar    1  LIG1        0.1463
      7 C           3.1772   -0.4432    0.1217 C.ar    1  LIG1        0.0235
      8 C           2.3042    0.3814   -0.6037 C.ar    1  LIG1        0.1296
      9 C           0.9379    0.0771   -0.7485 C.ar    1  LIG1        0.0684
     10 C           0.0076    0.9248   -1.6348 C.3     1  LIG1        0.1303
     11 H          -0.9527    0.4073   -1.6945 H       1  LIG1        0.0687
     12 O           0.5536    0.8756   -2.9679 O.3     1  LIG1       -0.3598
     13 C          -0.1846    1.6858   -3.8968 C.3     1  LIG1        0.1109
     14 H          -1.2484    1.4159   -3.8465 H       1  LIG1        0.0646
     15 C           0.0430    3.1558   -3.5452 C.3     1  LIG1        0.1128
     16 H           1.1127    3.3896   -3.4784 H       1  LIG1        0.0647
     17 C          -0.6151    3.4207   -2.1954 C.3     1  LIG1        0.1231
     18 H          -1.6956    3.4783   -2.3474 H       1  LIG1        0.0658
     19 C          -0.2307    2.3810   -1.1147 C.3     1  LIG1        0.1618
     20 H           0.6774    2.7554   -0.6285 H       1  LIG1        0.0791
     21 O          -1.2273    2.3759   -0.0495 O.3     1  LIG1       -0.4522
     22 C          -2.5054    2.0543   -0.3707 C.2     1  LIG1        0.3396
     23 C          -3.3333    2.0724    0.8489 C.ar    1  LIG1        0.0592
     24 C          -2.7661    1.7656    2.0919 C.ar    1  LIG1       -0.0443
     25 C          -3.5635    1.7413    3.2336 C.ar    1  LIG1       -0.0194
     26 C          -4.9197    2.0241    3.1267 C.ar    1  LIG1        0.1169
     27 C          -5.4959    2.3310    1.8945 C.ar    1  LIG1       -0.0194
     28 C          -4.7025    2.3537    0.7477 C.ar    1  LIG1       -0.0443
     29 O          -5.7302    2.0060    4.2206 O.3     1  LIG1       -0.5068
     30 O          -2.9434    1.7951   -1.4838 O.2     1  LIG1       -0.2449
     31 O          -0.2694    4.7554   -1.7689 O.3     1  LIG1       -0.3854
     32 O          -0.5396    4.0707   -4.4839 O.3     1  LIG1       -0.3865
     33 C           0.3257    1.3498   -5.2977 C.3     1  LIG1        0.0729
     34 O           0.1471   -0.0391   -5.5668 O.3     1  LIG1       -0.3924
     35 C           0.4789   -1.0944   -0.1047 C.ar    1  LIG1        0.1405
     36 O          -0.8526   -1.4127   -0.2168 O.3     1  LIG1       -0.5054
     37 O           2.8074    1.5089   -1.1936 O.3     1  LIG1       -0.5062
     38 C           1.3549   -1.9260    0.6301 C.ar    1  LIG1        0.1064
     39 C           0.8987   -3.1563    1.3048 C.ar    1  LIG1        0.2038
     40 O          -0.2711   -3.5148    1.2223 O.2     1  LIG1       -0.2863
     41 C           1.8912   -3.9206    2.0828 C.ar    1  LIG1        0.0684
     42 C           1.5217   -5.0641    2.7993 C.ar    1  LIG1       -0.0022
     43 C           2.4917   -5.7455    3.5366 C.ar    1  LIG1        0.1591
     44 O           2.1618   -6.8576    4.2580 O.3     1  LIG1       -0.5033
     45 H           5.6093   -5.5468    4.1998 H       1  LIG1        0.2923
     46 H           5.2030   -3.8004    2.8321 H       1  LIG1        0.0692
     47 H           4.2327   -0.2002    0.2097 H       1  LIG1        0.0691
     48 H          -1.7072    1.5283    2.1703 H       1  LIG1        0.0627
     49 H          -3.1058    1.4911    4.1885 H       1  LIG1        0.0654
     50 H          -6.5587    2.5455    1.8295 H       1  LIG1        0.0654
     51 H          -5.1488    2.5892   -0.2165 H       1  LIG1        0.0627
     52 H          -5.1944    1.7926    5.0013 H       1  LIG1        0.2921
     53 H          -0.4948    5.3232   -2.5340 H       1  LIG1        0.2101
     54 H          -0.0963    3.9618   -5.3424 H       1  LIG1        0.2100
     55 H           1.3948    1.5660   -5.3860 H       1  LIG1        0.0584
     56 H          -0.2154    1.9103   -6.0651 H       1  LIG1        0.0584
     57 H           0.4880   -0.5031   -4.7770 H       1  LIG1        0.2095
     58 H          -1.0088   -2.2771    0.2288 H       1  LIG1        0.2922
     59 H           3.7709    1.5357   -1.0663 H       1  LIG1        0.2922
     60 H           0.4917   -5.4066    2.7831 H       1  LIG1        0.0663
     61 H           1.2163   -7.0481    4.1539 H       1  LIG1        0.2923
@<TRIPOS>BOND
     1     1     2    1
     2     2     3   ar
     3     3     4   ar
     4     4     5   ar
     5     5     6   ar
     6     6     7   ar
     7     7     8   ar
     8     8     9   ar
     9    10    12    1
    10    12    13    1
    11    13    14    1
    12    13    15    1
    13    15    17    1
    14    17    18    1
    15    17    19    1
    16    10    19    1
    17    21    22    1
    18    22    23    1
    19    23    24   ar
    20    24    25   ar
    21    25    26   ar
    22    26    27   ar
    23    27    28   ar
    24    23    28   ar
    25    26    29    1
    26    22    30    2
    27    17    31    1
    28    13    33    1
    29    33    34    1
    30     9    35   ar
    31    35    36    1
    32     8    37    1
    33     6    38   ar
    34    35    38   ar
    35    38    39   ar
    36    39    40    2
    37     4    41   ar
    38    39    41   ar
    39    41    42   ar
    40    42    43   ar
    41     2    43   ar
    42    43    44    1
    43    10    11    1
    44    10     9    1
    45    15    32    1
    46    15    16    1
    47    19    21    1
    48    19    20    1
    49     1    45    1
    50     3    46    1
    51     7    47    1
    52    24    48    1
    53    25    49    1
    54    27    50    1
    55    28    51    1
    56    29    52    1
    57    31    53    1
    58    32    54    1
    59    33    55    1
    60    33    56    1
    61    34    57    1
    62    36    58    1
    63    37    59    1
    64    42    60    1
    65    44    61    1
