@<TRIPOS>MOLECULE
NuBBE_1179
 93 101 0 0 0
SMALL
GASTEIGER

@<TRIPOS>ATOM
      1 O          -5.7877   -6.1141    0.0483 O.3     1  LIG1       -0.5009
      2 C          -4.6896   -5.3186   -0.9289 C.ar    1  LIG1        0.2012
      3 C          -4.3941   -3.3909   -0.9170 C.ar    1  LIG1        0.1708
      4 O          -5.2412   -3.6676    0.5206 O.3     1  LIG1       -0.5028
      5 C          -3.2347   -1.7747   -1.0497 C.ar    1  LIG1        0.0458
      6 C          -3.0326    0.2453   -1.4140 C.ar    1  LIG1        0.0458
      7 C          -3.1057    2.2506   -1.0197 C.ar    1  LIG1        0.1708
      8 O          -3.9184    3.2870   -2.2406 O.3     1  LIG1       -0.5028
      9 C          -2.3223    4.0801   -1.0964 C.ar    1  LIG1        0.2012
     10 O          -2.9408    5.6716   -1.2416 O.3     1  LIG1       -0.5009
     11 C          -1.3259    4.7880   -1.9525 C.ar    1  LIG1        0.1628
     12 O          -0.3596    6.0214   -1.5849 O.3     1  LIG1       -0.5032
     13 C          -1.1072    3.5044   -2.3009 C.ar    1  LIG1       -0.0017
     14 C          -1.9448    1.7539   -2.0529 C.ar    1  LIG1        0.0740
     15 C          -1.6615    1.7353   -3.4246 C.2     1  LIG1        0.3405
     16 O          -0.6030    0.9511   -2.8885 O.3     1  LIG1       -0.4501
     17 C          -0.3366    0.5464   -1.1886 C.3     1  LIG1        0.1834
     18 H          -1.2273    0.6708   -0.6134 H       1  LIG1        0.0812
     19 C           0.2270    2.4041   -0.4183 C.3     1  LIG1        0.1830
     20 H           0.3229    2.9306   -1.2794 H       1  LIG1        0.0812
     21 C          -0.1166    4.3787    0.2696 C.3     1  LIG1        0.1735
     22 H          -0.9275    5.0197   -0.0467 H       1  LIG1        0.0803
     23 C           0.9064    5.6814    0.7700 C.3     1  LIG1        0.1249
     24 H           1.1999    6.4595    0.0595 H       1  LIG1        0.0684
     25 C           1.8745    4.7491    1.2689 C.ar    1  LIG1        0.0444
     26 C           1.2359    3.5385    1.8444 C.ar    1  LIG1        0.0798
     27 C           1.9905    2.4430    1.5569 C.ar    1  LIG1        0.0462
     28 C           3.4085    2.7580    0.9340 C.ar    1  LIG1        0.1708
     29 O           4.3386    2.0838    0.1307 O.3     1  LIG1       -0.5028
     30 C           3.9800    4.0133    0.7642 C.ar    1  LIG1        0.2016
     31 O           5.2714    4.1572    0.3293 O.3     1  LIG1       -0.5009
     32 C           3.1707    5.0516    0.8695 C.ar    1  LIG1        0.1687
     33 O           3.6072    6.2874    0.5248 O.3     1  LIG1       -0.5030
     34 O           0.7467    6.3701    2.0761 O.3     1  LIG1       -0.3832
     35 O          -0.7200    4.7216    1.6138 O.3     1  LIG1       -0.4510
     36 C          -0.5686    3.4996    1.8527 C.2     1  LIG1        0.3408
     37 O          -1.5525    3.0190    1.2676 O.2     1  LIG1       -0.2449
     38 O           1.6986    2.0330   -0.8933 O.3     1  LIG1       -0.4501
     39 C           2.1857    0.8049   -0.5359 C.2     1  LIG1        0.3411
     40 C           1.5949    0.2342    0.5893 C.ar    1  LIG1        0.0819
     41 C           1.3525   -1.0693    0.7698 C.ar    1  LIG1        0.0464
     42 C           0.2640   -0.9926    1.5393 C.ar    1  LIG1        0.1708
     43 O           0.3784   -1.5482    2.7429 O.3     1  LIG1       -0.5028
     44 C          -0.7838   -0.1878    1.3416 C.ar    1  LIG1        0.2019
     45 O          -2.1224   -0.3791    1.2065 O.3     1  LIG1       -0.5009
     46 C          -0.2527    0.9138    1.7919 C.ar    1  LIG1        0.1708
     47 O          -1.3159    1.4604    2.4026 O.3     1  LIG1       -0.5028
     48 C           1.1321    1.1888    1.4852 C.ar    1  LIG1        0.0464
     49 O           3.3048    0.3262   -0.5186 O.2     1  LIG1       -0.2449
     50 O          -1.7635    2.6834   -4.2226 O.2     1  LIG1       -0.2449
     51 C          -2.6609   -3.7069   -0.7387 C.ar    1  LIG1        0.0740
     52 C          -1.2275   -5.0143   -0.4396 C.2     1  LIG1        0.3401
     53 O          -0.0081   -4.5249   -0.8762 O.3     1  LIG1       -0.4573
     54 C          -0.2917   -3.2917   -1.5527 C.3     1  LIG1        0.1333
     55 C          -0.4994   -1.5104   -0.9763 C.3     1  LIG1        0.1774
     56 H           0.5071   -1.6749   -1.3469 H       1  LIG1        0.0808
     57 O          -0.9196   -2.3592    0.5779 O.3     1  LIG1       -0.4505
     58 C          -0.1951   -3.5010    1.3126 C.2     1  LIG1        0.3405
     59 C           1.3684   -3.5969    0.9789 C.ar    1  LIG1        0.0740
     60 C           2.0678   -2.3674    0.7066 C.ar    1  LIG1        0.0458
     61 C           3.4573   -2.4668    0.6026 C.ar    1  LIG1        0.1708
     62 O           4.3131   -1.4051    0.6278 O.3     1  LIG1       -0.5028
     63 C           4.1464   -3.6654    0.6251 C.ar    1  LIG1        0.2012
     64 O           5.5172   -3.6194    0.6254 O.3     1  LIG1       -0.5009
     65 C           3.4668   -4.8559    0.6975 C.ar    1  LIG1        0.1628
     66 O           4.1790   -6.0179    0.6319 O.3     1  LIG1       -0.5032
     67 C           2.0784   -4.8472    0.8819 C.ar    1  LIG1       -0.0017
     68 O          -0.8322   -4.1443    2.1465 O.2     1  LIG1       -0.2449
     69 O          -0.9812   -6.1745   -0.0428 O.2     1  LIG1       -0.2449
     70 C          -3.0739   -5.5704   -0.6716 C.ar    1  LIG1       -0.0017
     71 C          -3.9700   -6.5465   -1.0145 C.ar    1  LIG1        0.1628
     72 O          -4.1624   -7.8944   -0.0305 O.3     1  LIG1       -0.5032
     73 H          -5.5905   -7.1513    0.0959 H       1  LIG1        0.2924
     74 H          -5.5140   -4.6756    0.6093 H       1  LIG1        0.2923
     75 H          -3.6330    4.3100   -2.2904 H       1  LIG1        0.2923
     76 H          -2.1912    6.4302   -1.4273 H       1  LIG1        0.2924
     77 H          -0.1073    7.0472   -1.6934 H       1  LIG1        0.2923
     78 H           0.0232    3.7647   -2.5705 H       1  LIG1        0.0664
     79 H           4.2561    1.1302    0.0386 H       1  LIG1        0.2923
     80 H           5.5354    3.2143    0.1983 H       1  LIG1        0.2924
     81 H           4.5815    6.1749    0.4804 H       1  LIG1        0.2923
     82 H           0.4215    7.2786    2.0128 H       1  LIG1        0.2104
     83 H          -0.4377   -2.0613    2.6650 H       1  LIG1        0.2923
     84 H          -2.3869   -1.3134    1.0785 H       1  LIG1        0.2924
     85 H          -1.9201    1.6897    1.5992 H       1  LIG1        0.2923
     86 H          -0.8793   -3.3406   -0.7239 H       1  LIG1        0.0736
     87 H          -0.8601   -3.7888   -2.3306 H       1  LIG1        0.0736
     88 H           3.7636   -0.6291    0.8116 H       1  LIG1        0.2923
     89 H           5.7117   -2.6525    0.6455 H       1  LIG1        0.2924
     90 H           5.1221   -5.7429    0.6368 H       1  LIG1        0.2923
     91 H           1.5792   -5.8193    0.8587 H       1  LIG1        0.0664
     92 H          -2.6348   -6.4602   -0.0180 H       1  LIG1        0.0664
     93 H          -3.9530   -8.9231   -0.1422 H       1  LIG1        0.2923
@<TRIPOS>BOND
     1     1     2    1
     2     2     3   ar
     3     3     4    1
     4     3     5   ar
     5     5     6    1
     6     6     7   ar
     7     7     8    1
     8     7     9   ar
     9     9    10    1
    10     9    11   ar
    11    11    12    1
    12    11    13   ar
    13    13    14   ar
    14     6    14   ar
    15    14    15    1
    16    15    16    1
    17    16    17    1
    18    17    18    1
    19    17    19    1
    20    19    20    1
    21    19    21    1
    22    21    22    1
    23    21    23    1
    24    23    24    1
    25    23    25    1
    26    25    26   ar
    27    26    27   ar
    28    27    28   ar
    29    28    29    1
    30    28    30   ar
    31    30    31    1
    32    30    32   ar
    33    25    32   ar
    34    32    33    1
    35    23    34    1
    36    21    35    1
    37    35    36    1
    38    26    36    1
    39    36    37    2
    40    19    38    1
    41    38    39    1
    42    39    40    1
    43    40    41   ar
    44    41    42   ar
    45    42    43    1
    46    42    44   ar
    47    44    45    1
    48    44    46   ar
    49    46    47    1
    50    46    48   ar
    51    40    48   ar
    52    27    48    1
    53    39    49    2
    54    15    50    2
    55     5    51   ar
    56    51    52    1
    57    52    53    1
    58    53    54    1
    59    54    55    1
    60    55    56    1
    61    17    55    1
    62    55    57    1
    63    57    58    1
    64    58    59    1
    65    59    60   ar
    66    41    60    1
    67    60    61   ar
    68    61    62    1
    69    61    63   ar
    70    63    64    1
    71    63    65   ar
    72    65    66    1
    73    65    67   ar
    74    59    67   ar
    75    58    68    2
    76    52    69    2
    77    51    70   ar
    78    70    71   ar
    79     2    71   ar
    80    71    72    1
    81     1    73    1
    82     4    74    1
    83     8    75    1
    84    10    76    1
    85    12    77    1
    86    13    78    1
    87    29    79    1
    88    31    80    1
    89    33    81    1
    90    34    82    1
    91    43    83    1
    92    45    84    1
    93    47    85    1
    94    54    86    1
    95    54    87    1
    96    62    88    1
    97    64    89    1
    98    66    90    1
    99    67    91    1
   100    70    92    1
   101    72    93    1
