REMARK  Name = NuBBE_1679
REMARK  18 active torsions:
REMARK  status: ('A' for Active; 'I' for Inactive)
REMARK    1  A    between atoms: C_1  and  O_3
REMARK    2  A    between atoms: C_1  and  C_4
REMARK    3  A    between atoms: C_5  and  C_6
REMARK    4  A    between atoms: C_6  and  C_7
REMARK    5  A    between atoms: C_7  and  C_8
REMARK    6  A    between atoms: C_8  and  C_9
REMARK    7  A    between atoms: C_9  and  C_10
REMARK    8  A    between atoms: C_10  and  C_11
REMARK    9  A    between atoms: C_11  and  C_12
REMARK   10  A    between atoms: C_12  and  C_13
REMARK   11  A    between atoms: C_13  and  C_14
REMARK   12  A    between atoms: C_14  and  C_15
REMARK   13  A    between atoms: C_15  and  C_16
REMARK   14  A    between atoms: C_16  and  C_17
REMARK   15  A    between atoms: C_17  and  C_18
REMARK   16  A    between atoms: C_18  and  C_19
REMARK   17  A    between atoms: C_19  and  C_20
REMARK   18  A    between atoms: C_24  and  O_25
REMARK                            x       y       z     vdW  Elec       q    Type
REMARK                         _______ _______ _______ _____ _____    ______ ____
ROOT
ATOM      1  C   LIG A   1      -1.086  -4.160  -1.872  0.00  0.00    +0.005 C 
ENDROOT
BRANCH   1   2
ATOM      2  C   LIG A   1      -1.359  -3.061  -0.750  0.00  0.00    +0.000 C 
BRANCH   2   3
ATOM      3  C   LIG A   1      -1.939  -1.528  -0.980  0.00  0.00    +0.000 C 
BRANCH   3   4
ATOM      4  C   LIG A   1      -1.131  -0.401  -1.849  0.00  0.00    -0.000 C 
BRANCH   4   5
ATOM      5  C   LIG A   1      -1.633   1.139  -2.021  0.00  0.00    -0.000 C 
BRANCH   5   6
ATOM      6  C   LIG A   1      -0.879   2.184  -2.977  0.00  0.00    -0.000 C 
BRANCH   6   7
ATOM      7  C   LIG A   1      -1.431   3.643  -2.797  0.00  0.00    -0.000 C 
BRANCH   7   8
ATOM      8  C   LIG A   1      -1.458   4.177  -1.341  0.00  0.00    -0.000 C 
BRANCH   8   9
ATOM      9  C   LIG A   1      -0.055   4.271  -0.706  0.00  0.00    -0.000 C 
BRANCH   9  10
ATOM     10  C   LIG A   1       0.024   4.516   0.830  0.00  0.00    -0.000 C 
BRANCH  10  11
ATOM     11  C   LIG A   1      -0.500   5.877   1.346  0.00  0.00    -0.000 C 
BRANCH  11  12
ATOM     12  C   LIG A   1      -0.509   6.095   2.934  0.00  0.00    -0.000 C 
BRANCH  12  13
ATOM     13  C   LIG A   1       0.690   6.496   3.880  0.00  0.00    -0.003 C 
ATOM     14  C   LIG A   1       0.522   6.926   5.395  0.00  0.00    +0.004 C 
ENDBRANCH  12  13
ENDBRANCH  11  12
ENDBRANCH  10  11
ENDBRANCH   9  10
ENDBRANCH   8   9
ENDBRANCH   7   8
ENDBRANCH   6   7
ENDBRANCH   5   6
ENDBRANCH   4   5
ENDBRANCH   3   4
ENDBRANCH   2   3
ENDBRANCH   1   2
BRANCH   1  15
ATOM     15  C   LIG A   1      -0.420  -5.646  -1.472  0.00  0.00    +0.036 C 
BRANCH  15  17
ATOM     16  C   LIG A   1       1.636  -6.936  -0.281  0.00  0.00    +0.103 A 
ATOM     17  C   LIG A   1       0.925  -5.765  -0.700  0.00  0.00    -0.030 A 
ATOM     18  C   LIG A   1       1.519  -4.535  -0.345  0.00  0.00    +0.005 A 
ATOM     19  C   LIG A   1       2.593  -4.417   0.532  0.00  0.00    +0.004 A 
ATOM     20  C   LIG A   1       3.221  -5.545   1.014  0.00  0.00    +0.046 A 
ATOM     21  C   LIG A   1       2.775  -6.795   0.591  0.00  0.00    +0.131 A 
BRANCH  21  22
ATOM     22  O   LIG A   1       3.457  -7.881   1.097  0.00  0.00    -0.506 OA
ATOM     23  H   LIG A   1       4.111  -7.587   1.751  0.00  0.00    +0.292 HD
ENDBRANCH  21  22
BRANCH  16  24
ATOM     24  C   LIG A   1       1.277  -8.349  -0.663  0.00  0.00    +0.341 C 
ATOM     25  O   LIG A   1       0.213  -8.804  -0.736  0.00  0.00    -0.245 OA
BRANCH  24  26
ATOM     26  O   LIG A   1       2.401  -9.132  -0.940  0.00  0.00    -0.477 OA
ATOM     27  H   LIG A   1       2.048 -10.021  -1.097  0.00  0.00    +0.295 HD
ENDBRANCH  24  26
ENDBRANCH  16  24
ENDBRANCH  15  17
ENDBRANCH   1  15
TORSDOF 17
