@<TRIPOS>MOLECULE
NuBBE_86
 59 62 0 0 0
SMALL
GASTEIGER

@<TRIPOS>ATOM
      1 C           1.2340    1.4385   -4.3642 C.3     1  LIG1       -0.0593
      2 C           0.5055    0.8403   -3.1597 C.3     1  LIG1       -0.0058
      3 H          -0.4858    0.6094   -3.5503 H       1  LIG1        0.0331
      4 C           0.4760    1.8269   -1.9986 C.3     1  LIG1        0.0876
      5 H           0.8051    2.8226   -2.3342 H       1  LIG1        0.0649
      6 C          -0.8522    2.0578   -1.2746 C.ar    1  LIG1       -0.0115
      7 C          -0.8958    2.9646   -0.1892 C.ar    1  LIG1       -0.0104
      8 C          -2.0857    3.2717    0.4922 C.ar    1  LIG1        0.1657
      9 O          -2.1979    4.1250    1.5362 O.3     1  LIG1       -0.4913
     10 C          -0.9883    4.7281    2.0064 C.3     1  LIG1        0.0790
     11 C          -3.2341    2.6473    0.0455 C.ar    1  LIG1        0.2075
     12 O          -4.5026    2.7935    0.5332 O.3     1  LIG1       -0.4489
     13 C          -5.2416    1.9095   -0.3217 C.3     1  LIG1        0.2334
     14 O          -4.4178    1.2513   -1.3212 O.3     1  LIG1       -0.4525
     15 C          -3.2061    1.7604   -1.0066 C.ar    1  LIG1        0.1702
     16 C          -2.0470    1.4376   -1.6722 C.ar    1  LIG1       -0.0103
     17 O           1.4479    1.3933   -1.0331 O.3     1  LIG1       -0.3635
     18 C           1.9458    0.0819   -1.3589 C.3     1  LIG1        0.0899
     19 H           3.0008    0.2419   -1.6156 H       1  LIG1        0.0650
     20 C           1.8993   -0.7941   -0.1195 C.ar    1  LIG1       -0.0114
     21 C           2.7983   -1.8546    0.0741 C.ar    1  LIG1       -0.0104
     22 C           2.7437   -2.6650    1.2288 C.ar    1  LIG1        0.1655
     23 O           3.7391   -3.6166    1.2757 O.3     1  LIG1       -0.4913
     24 C           3.8176   -4.4204    2.4503 C.3     1  LIG1        0.0790
     25 C           1.7276   -2.4498    2.1837 C.ar    1  LIG1        0.2035
     26 O           1.6632   -3.2753    3.2779 O.3     1  LIG1       -0.4885
     27 C           0.3678   -3.6467    3.7385 C.3     1  LIG1        0.0791
     28 C           0.8578   -1.3622    2.0183 C.ar    1  LIG1        0.1655
     29 O          -0.0157   -1.0778    3.0366 O.3     1  LIG1       -0.4913
     30 C          -1.2562   -0.5138    2.6321 C.3     1  LIG1        0.0790
     31 C           0.9585   -0.5469    0.8881 C.ar    1  LIG1       -0.0104
     32 C           1.2062   -0.4085   -2.6126 C.3     1  LIG1        0.0178
     33 H           1.9452   -0.7628   -3.3436 H       1  LIG1        0.0355
     34 C           0.2320   -1.5733   -2.4035 C.3     1  LIG1        0.0500
     35 O          -0.3790   -1.9005   -3.6514 O.3     1  LIG1       -0.3946
     36 H           2.2782    1.6701   -4.1394 H       1  LIG1        0.0233
     37 H           0.7350    2.3604   -4.6863 H       1  LIG1        0.0233
     38 H           1.2024    0.7390   -5.2061 H       1  LIG1        0.0233
     39 H           0.0506    3.4348    0.1004 H       1  LIG1        0.0659
     40 H          -1.2262    5.3701    2.8579 H       1  LIG1        0.0660
     41 H          -0.5475    5.3606    1.2269 H       1  LIG1        0.0660
     42 H          -0.2718    3.9720    2.3496 H       1  LIG1        0.0660
     43 H          -6.0221    2.4760   -0.8443 H       1  LIG1        0.1166
     44 H          -5.7162    1.1320    0.2845 H       1  LIG1        0.1166
     45 H          -2.1113    0.7297   -2.4729 H       1  LIG1        0.0659
     46 H           3.5713   -2.0500   -0.6697 H       1  LIG1        0.0659
     47 H           4.6506   -5.1212    2.3489 H       1  LIG1        0.0660
     48 H           2.9168   -5.0336    2.5584 H       1  LIG1        0.0660
     49 H           4.0154   -3.8082    3.3389 H       1  LIG1        0.0660
     50 H           0.4406   -4.6501    4.1703 H       1  LIG1        0.0660
     51 H          -0.3804   -3.6877    2.9388 H       1  LIG1        0.0660
     52 H           0.0592   -2.9726    4.5422 H       1  LIG1        0.0660
     53 H          -1.9641   -0.6568    3.4527 H       1  LIG1        0.0660
     54 H          -1.6608   -1.0190    1.7477 H       1  LIG1        0.0660
     55 H          -1.1452    0.5600    2.4617 H       1  LIG1        0.0660
     56 H           0.3187    0.3248    0.8002 H       1  LIG1        0.0659
     57 H           0.7629   -2.4671   -2.0616 H       1  LIG1        0.0561
     58 H          -0.5611   -1.3311   -1.6906 H       1  LIG1        0.0561
     59 H          -0.9604   -2.6656   -3.4949 H       1  LIG1        0.2094
@<TRIPOS>BOND
     1     2     4    1
     2     4     5    1
     3     4     6    1
     4     6     7   ar
     5     7     8   ar
     6     8     9    1
     7     9    10    1
     8     8    11   ar
     9    11    12    1
    10    12    13    1
    11    13    14    1
    12    11    15   ar
    13    14    15    1
    14    15    16   ar
    15     6    16   ar
    16     4    17    1
    17    17    18    1
    18    20    21   ar
    19    21    22   ar
    20    22    23    1
    21    23    24    1
    22    22    25   ar
    23    25    26    1
    24    26    27    1
    25    25    28   ar
    26    28    29    1
    27    29    30    1
    28    28    31   ar
    29    20    31   ar
    30    18    32    1
    31     2    32    1
    32    34    35    1
    33     2     3    1
    34     2     1    1
    35    32    34    1
    36    32    33    1
    37    18    20    1
    38    18    19    1
    39     1    36    1
    40     1    37    1
    41     1    38    1
    42     7    39    1
    43    10    40    1
    44    10    41    1
    45    10    42    1
    46    13    43    1
    47    13    44    1
    48    16    45    1
    49    21    46    1
    50    24    47    1
    51    24    48    1
    52    24    49    1
    53    27    50    1
    54    27    51    1
    55    27    52    1
    56    30    53    1
    57    30    54    1
    58    30    55    1
    59    31    56    1
    60    34    57    1
    61    34    58    1
    62    35    59    1
