@<TRIPOS>MOLECULE
NuBBE_469
 32 34 0 0 0
SMALL
GASTEIGER

@<TRIPOS>ATOM
      1 O          -4.2815   -0.2321    0.2184 O.2     1  LIG1       -0.2832
      2 C          -3.0598   -0.1911    0.2224 C.2     1  LIG1        0.2334
      3 C          -2.2508   -1.4224    0.2335 C.ar    1  LIG1        0.0362
      4 C          -2.9056   -2.6635    0.2495 C.ar    1  LIG1       -0.0501
      5 C          -2.1640   -3.8410    0.2634 C.ar    1  LIG1       -0.0610
      6 C          -0.7738   -3.7783    0.2626 C.ar    1  LIG1       -0.0611
      7 C          -0.1244   -2.5386    0.2447 C.ar    1  LIG1       -0.0504
      8 C          -0.8525   -1.3367    0.2276 C.ar    1  LIG1        0.0280
      9 C          -0.1717   -0.0257    0.2018 C.2     1  LIG1        0.1360
     10 C          -0.8525    1.1326    0.2209 C.2     1  LIG1        0.0455
     11 C          -0.1784    2.4701    0.2479 C.3     1  LIG1       -0.0168
     12 C           1.3055    2.3218    0.5571 C.3     1  LIG1       -0.0092
     13 C           1.9074    1.1296   -0.1996 C.3     1  LIG1        0.1054
     14 C           1.8795    1.3173   -1.7253 C.3     1  LIG1       -0.0252
     15 C           3.3661    0.9436    0.2390 C.3     1  LIG1       -0.0252
     16 O           1.2107   -0.0885    0.1376 O.2     1  LIG1       -0.4852
     17 C          -2.3352    1.1432    0.2161 C.2     1  LIG1        0.2325
     18 O          -2.9656    2.1909    0.1926 O.2     1  LIG1       -0.2834
     19 H          -3.9935   -2.7126    0.2511 H       1  LIG1        0.0625
     20 H          -2.6700   -4.8035    0.2756 H       1  LIG1        0.0618
     21 H          -0.1897   -4.6960    0.2754 H       1  LIG1        0.0618
     22 H           0.9644   -2.5268    0.2455 H       1  LIG1        0.0625
     23 H          -0.6319    3.1200    1.0054 H       1  LIG1        0.0317
     24 H          -0.3119    2.9627   -0.7227 H       1  LIG1        0.0317
     25 H           1.4111    2.1533    1.6384 H       1  LIG1        0.0307
     26 H           1.8341    3.2537    0.3252 H       1  LIG1        0.0307
     27 H           2.3992    2.2333   -2.0245 H       1  LIG1        0.0268
     28 H           0.8586    1.3596   -2.1185 H       1  LIG1        0.0268
     29 H           2.3566    0.4674   -2.2267 H       1  LIG1        0.0268
     30 H           3.9710    1.8261    0.0028 H       1  LIG1        0.0268
     31 H           3.8163    0.0744   -0.2539 H       1  LIG1        0.0268
     32 H           3.4322    0.7570    1.3168 H       1  LIG1        0.0268
@<TRIPOS>BOND
     1     1     2    2
     2     2     3    1
     3     3     4   ar
     4     4     5   ar
     5     5     6   ar
     6     6     7   ar
     7     7     8   ar
     8     3     8   ar
     9     8     9    1
    10     9    10    2
    11    10    11    1
    12    11    12    1
    13    12    13    1
    14    13    14    1
    15    13    15    1
    16    13    16    1
    17     9    16    1
    18     2    17    1
    19    10    17    1
    20    17    18    2
    21     4    19    1
    22     5    20    1
    23     6    21    1
    24     7    22    1
    25    11    23    1
    26    11    24    1
    27    12    25    1
    28    12    26    1
    29    14    27    1
    30    14    28    1
    31    14    29    1
    32    15    30    1
    33    15    31    1
    34    15    32    1
