REMARK  Name = NuBBE_2297
REMARK  10 active torsions:
REMARK  status: ('A' for Active; 'I' for Inactive)
REMARK    1  A    between atoms: C_2  and  C_3
REMARK    2  A    between atoms: C_3  and  C_4
REMARK    3  A    between atoms: C_6  and  O_7
REMARK    4  A    between atoms: O_7  and  C_8
REMARK    5  A    between atoms: C_9  and  O_11
REMARK    6  A    between atoms: C_12  and  O_13
REMARK    7  A    between atoms: O_13  and  C_14
REMARK    8  A    between atoms: C_15  and  O_16
REMARK    9  A    between atoms: C_18  and  C_20
REMARK   10  A    between atoms: C_21  and  C_23
REMARK                            x       y       z     vdW  Elec       q    Type
REMARK                         _______ _______ _______ _____ _____    ______ ____
ROOT
ATOM      1  C   LIG A   1      -0.922  -1.391  -0.480  0.00  0.00    +0.028 C 
ATOM      2  C   LIG A   1      -0.391  -2.804  -0.271  0.00  0.00    +0.027 C 
ATOM      3  C   LIG A   1       0.907  -3.027  -0.037  0.00  0.00    +0.125 C 
ATOM      4  C   LIG A   1       1.879  -1.857  -0.023  0.00  0.00    +0.214 C 
ATOM      5  C   LIG A   1       1.262  -0.441  -0.346  0.00  0.00    +0.135 C 
ATOM      6  C   LIG A   1       0.099  -0.615  -1.350  0.00  0.00    +0.160 C 
ATOM      7  C   LIG A   1      -0.880  -0.600   0.880  0.00  0.00    +0.009 C 
ATOM      8  C   LIG A   1      -1.041  -1.445   2.152  0.00  0.00    +0.009 C 
ATOM      9  C   LIG A   1       0.478   0.198   0.866  0.00  0.00    +0.060 C 
ENDROOT
BRANCH   9  10
ATOM     10  C   LIG A   1       0.171   1.711   0.852  0.00  0.00    -0.037 A 
ATOM     11  C   LIG A   1       0.528   2.566  -0.202  0.00  0.00    +0.053 A 
ATOM     12  C   LIG A   1       0.254   3.914  -0.103  0.00  0.00    +0.167 A 
ATOM     13  O   LIG A   1       0.584   4.849  -1.032  0.00  0.00    -0.453 OA
ATOM     14  C   LIG A   1       0.094   6.043  -0.393  0.00  0.00    +0.466 C 
ATOM     15  O   LIG A   1      -0.554   5.793   0.873  0.00  0.00    -0.453 OA
ATOM     16  C   LIG A   1      -0.392   4.447   0.981  0.00  0.00    +0.166 A 
ATOM     17  C   LIG A   1      -0.799   3.655   2.029  0.00  0.00    +0.050 A 
ATOM     18  C   LIG A   1      -0.503   2.284   1.966  0.00  0.00    +0.008 A 
ENDBRANCH   9  10
BRANCH   3  19
ATOM     19  O   LIG A   1       1.493  -4.246   0.219  0.00  0.00    -0.497 OA
ATOM     20  C   LIG A   1       0.635  -5.380   0.188  0.00  0.00    +0.276 C 
ENDBRANCH   3  19
BRANCH   4  21
ATOM     21  O   LIG A   1       2.524  -1.837   1.259  0.00  0.00    -0.381 OA
ATOM     22  H   LIG A   1       2.523  -2.764   1.570  0.00  0.00    +0.210 HD
ENDBRANCH   4  21
BRANCH   5  23
ATOM     23  O   LIG A   1       2.271   0.387  -0.961  0.00  0.00    -0.370 OA
ATOM     24  C   LIG A   1       3.422   0.638  -0.162  0.00  0.00    +0.195 C 
ENDBRANCH   5  23
BRANCH   6  25
ATOM     25  O   LIG A   1       0.488  -1.283  -2.546  0.00  0.00    -0.388 OA
ATOM     26  H   LIG A   1       1.263  -0.789  -2.878  0.00  0.00    +0.210 HD
ENDBRANCH   6  25
BRANCH   1  27
ATOM     27  C   LIG A   1      -2.329  -1.469  -1.126  0.00  0.00    +0.040 C 
BRANCH  27  29
ATOM     28  C   LIG A   1      -3.414   0.245  -2.605  0.00  0.00    +0.004 C 
ATOM     29  C   LIG A   1      -3.016  -0.156  -1.395  0.00  0.00    -0.034 C 
ENDBRANCH  27  29
ENDBRANCH   1  27
TORSDOF 7
