@<TRIPOS>MOLECULE
NuBBE_5
 42 42 0 0 0
SMALL
GASTEIGER

@<TRIPOS>ATOM
      1 O          -4.3839   -6.8532    1.2884 O.2     1  LIG1       -0.2451
      2 C          -4.7421   -5.8836    0.6345 C.2     1  LIG1        0.3368
      3 O          -5.9495   -5.8132    0.0363 O.3     1  LIG1       -0.4771
      4 C          -3.8664   -4.7056    0.3977 C.ar    1  LIG1        0.0591
      5 C          -4.3816   -3.4237    0.1773 C.ar    1  LIG1       -0.0443
      6 C          -3.5108   -2.3475   -0.0233 C.ar    1  LIG1       -0.0192
      7 C          -2.1250   -2.5286   -0.0067 C.ar    1  LIG1        0.1210
      8 O          -1.3950   -1.3838   -0.1816 O.3     1  LIG1       -0.4880
      9 C          -0.0934   -1.5310   -0.7598 C.3     1  LIG1        0.1081
     10 C           0.5114   -0.1575   -0.8991 C.2     1  LIG1       -0.0481
     11 C           1.8192    0.1772   -0.8537 C.2     1  LIG1       -0.0731
     12 C           2.9514   -0.8006   -0.6868 C.3     1  LIG1       -0.0437
     13 C           2.2490    1.6253   -1.0239 C.3     1  LIG1       -0.0285
     14 C           2.4716    2.3305    0.3199 C.3     1  LIG1       -0.0308
     15 C           2.8778    3.7680    0.1216 C.2     1  LIG1       -0.0850
     16 C           2.2283    4.8756    0.5311 C.2     1  LIG1       -0.0796
     17 C           0.9241    4.8918    1.2800 C.3     1  LIG1       -0.0440
     18 C           2.7918    6.2457    0.2511 C.3     1  LIG1       -0.0440
     19 C          -1.6087   -3.7998    0.2469 C.ar    1  LIG1       -0.0192
     20 C          -2.4771   -4.8836    0.4491 C.ar    1  LIG1       -0.0443
     21 H          -6.0712   -5.0721   -0.5822 H       1  LIG1        0.2954
     22 H          -5.4492   -3.2265    0.1924 H       1  LIG1        0.0627
     23 H          -3.9166   -1.3515   -0.1869 H       1  LIG1        0.0654
     24 H          -0.1891   -1.9788   -1.7559 H       1  LIG1        0.0742
     25 H           0.5292   -2.1534   -0.1141 H       1  LIG1        0.0742
     26 H          -0.2149    0.6426   -1.0437 H       1  LIG1        0.0605
     27 H           2.6153   -1.8313   -0.5542 H       1  LIG1        0.0274
     28 H           3.5593   -0.5382    0.1847 H       1  LIG1        0.0274
     29 H           3.5955   -0.7816   -1.5728 H       1  LIG1        0.0274
     30 H           1.4948    2.1739   -1.6038 H       1  LIG1        0.0313
     31 H           3.1667    1.6628   -1.6264 H       1  LIG1        0.0313
     32 H           3.2674    1.8289    0.8837 H       1  LIG1        0.0310
     33 H           1.5676    2.2398    0.9277 H       1  LIG1        0.0310
     34 H           3.8203    3.8921   -0.4130 H       1  LIG1        0.0572
     35 H           0.5016    3.9004    1.4509 H       1  LIG1        0.0274
     36 H           0.1780    5.4656    0.7206 H       1  LIG1        0.0274
     37 H           1.0598    5.3618    2.2596 H       1  LIG1        0.0274
     38 H           3.7436    6.2037   -0.2888 H       1  LIG1        0.0274
     39 H           2.9658    6.7833    1.1891 H       1  LIG1        0.0274
     40 H           2.0903    6.8262   -0.3572 H       1  LIG1        0.0274
     41 H          -0.5415   -3.9803    0.3285 H       1  LIG1        0.0654
     42 H          -2.0643   -5.8699    0.6626 H       1  LIG1        0.0627
@<TRIPOS>BOND
     1     1     2    2
     2     2     3    1
     3     2     4    1
     4     4     5   ar
     5     5     6   ar
     6     6     7   ar
     7     7     8    1
     8     8     9    1
     9     9    10    1
    10    10    11    2
    11    11    12    1
    12    11    13    1
    13    13    14    1
    14    14    15    1
    15    15    16    2
    16    16    17    1
    17    16    18    1
    18     7    19   ar
    19    19    20   ar
    20     4    20   ar
    21     3    21    1
    22     5    22    1
    23     6    23    1
    24     9    24    1
    25     9    25    1
    26    10    26    1
    27    12    27    1
    28    12    28    1
    29    12    29    1
    30    13    30    1
    31    13    31    1
    32    14    32    1
    33    14    33    1
    34    15    34    1
    35    17    35    1
    36    17    36    1
    37    17    37    1
    38    18    38    1
    39    18    39    1
    40    18    40    1
    41    19    41    1
    42    20    42    1
