REMARK  Name = NuBBE_104
REMARK  15 active torsions:
REMARK  status: ('A' for Active; 'I' for Inactive)
REMARK    1  A    between atoms: C_2  and  C_3
REMARK    2  A    between atoms: C_4  and  O_31
REMARK    3  A    between atoms: C_8  and  C_27
REMARK    4  A    between atoms: C_9  and  C_10
REMARK    5  A    between atoms: C_10  and  C_11
REMARK    6  A    between atoms: CA_13  and  C_14
REMARK    7  A    between atoms: C_14  and  O_15
REMARK    8  A    between atoms: C_27  and  O_28
REMARK    9  A    between atoms: O_28  and  C_29
REMARK   10  A    between atoms: O_31  and  C_32
REMARK   11  A    between atoms: C_35  and  C_43
REMARK   12  A    between atoms: C_37  and  O_42
REMARK   13  A    between atoms: C_39  and  O_41
REMARK   14  A    between atoms: C_43  and  O_44
REMARK   15  A    between atoms: C_45  and  O_47
REMARK                            x       y       z     vdW  Elec       q    Type
REMARK                         _______ _______ _______ _____ _____    ______ ____
ROOT
ATOM      1  C   LIG A   1      -0.905  -0.167   0.393  0.00  0.00    +0.088 C 
ATOM      2  C   LIG A   1      -1.618  -0.780  -0.856  0.00  0.00    +0.316 C 
ATOM      3  O   LIG A   1      -2.284  -1.993  -0.490  0.00  0.00    -0.470 OA
ATOM      4  C   LIG A   1      -1.432  -2.916   0.038  0.00  0.00    +0.201 C 
ATOM      5  C   LIG A   1      -0.266  -2.638   0.648  0.00  0.00    +0.075 C 
ATOM      6  C   LIG A   1       0.177  -1.206   0.917  0.00  0.00    +0.048 C 
ENDROOT
BRANCH   1   8
ATOM      7  C   LIG A   1      -2.657  -0.331   2.259  0.00  0.00    +0.004 C 
ATOM      8  C   LIG A   1      -1.933   0.367   1.376  0.00  0.00    -0.025 C 
ENDBRANCH   1   8
BRANCH   5   9
ATOM      9  C   LIG A   1       0.631  -3.782   0.949  0.00  0.00    +0.338 C 
ATOM     10  O   LIG A   1       1.832  -3.656   1.190  0.00  0.00    -0.245 OA
BRANCH   9  11
ATOM     11  O   LIG A   1      -0.042  -4.953   0.861  0.00  0.00    -0.465 OA
ATOM     12  C   LIG A   1       0.748  -6.133   0.934  0.00  0.00    +0.280 C 
ENDBRANCH   9  11
ENDBRANCH   5   9
BRANCH   6  13
ATOM     13  C   LIG A   1       0.642  -1.020   2.388  0.00  0.00    +0.067 C 
BRANCH  13  14
ATOM     14  C   LIG A   1       1.261   0.318   2.689  0.00  0.00    +0.067 A 
ATOM     15  N   LIG A   1       0.423   1.304   3.088  0.00  0.00    -0.243 NA
ATOM     16  CA  LIG A   1       0.900   2.536   3.387  0.00  0.00    +0.148 A 
ATOM     17  C   LIG A   1       2.237   2.896   3.310  0.00  0.00    +0.045 A 
ATOM     18  C   LIG A   1       3.131   1.891   2.907  0.00  0.00    +0.011 A 
ATOM     19  C   LIG A   1       2.626   0.622   2.617  0.00  0.00    +0.069 A 
ATOM     20  N   LIG A   1       3.705  -0.174   2.296  0.00  0.00    -0.353 N 
ATOM     21  C   LIG A   1       4.876   0.546   2.329  0.00  0.00    +0.048 A 
ATOM     22  C   LIG A   1       6.191   0.143   2.062  0.00  0.00    +0.026 A 
ATOM     23  C   LIG A   1       7.198   1.106   2.170  0.00  0.00    +0.002 A 
ATOM     24  C   LIG A   1       6.902   2.416   2.537  0.00  0.00    +0.001 A 
ATOM     25  C   LIG A   1       5.583   2.799   2.809  0.00  0.00    +0.010 A 
ATOM     26  C   LIG A   1       4.547   1.848   2.703  0.00  0.00    +0.007 A 
ATOM     27  H   LIG A   1       3.649  -1.159   2.076  0.00  0.00    +0.166 HD
BRANCH  16  28
ATOM     28  C   LIG A   1      -0.100   3.550   3.829  0.00  0.00    +0.355 C 
ATOM     29  OXT LIG A   1       0.121   4.511   4.536  0.00  0.00    -0.243 OA
BRANCH  28  30
ATOM     30  O   LIG A   1      -1.327   3.322   3.311  0.00  0.00    -0.476 OA
ATOM     31  H   LIG A   1      -1.888   4.040   3.663  0.00  0.00    +0.295 HD
ENDBRANCH  28  30
ENDBRANCH  16  28
ENDBRANCH  13  14
ENDBRANCH   6  13
BRANCH   2  32
ATOM     32  O   LIG A   1      -2.530   0.126  -1.522  0.00  0.00    -0.309 OA
BRANCH  32  33
ATOM     33  C   LIG A   1      -3.161  -0.528  -2.641  0.00  0.00    +0.286 C 
ATOM     34  O   LIG A   1      -2.210  -0.851  -3.664  0.00  0.00    -0.340 OA
ATOM     35  C   LIG A   1      -1.856   0.165  -4.610  0.00  0.00    +0.178 C 
ATOM     36  C   LIG A   1      -3.050   0.962  -5.165  0.00  0.00    +0.177 C 
ATOM     37  C   LIG A   1      -4.045   1.395  -4.082  0.00  0.00    +0.179 C 
ATOM     38  C   LIG A   1      -4.414   0.200  -3.198  0.00  0.00    +0.201 C 
BRANCH  37  39
ATOM     39  O   LIG A   1      -3.600   2.514  -3.324  0.00  0.00    -0.386 OA
ATOM     40  H   LIG A   1      -2.680   2.357  -3.018  0.00  0.00    +0.210 HD
ENDBRANCH  37  39
BRANCH  36  41
ATOM     41  O   LIG A   1      -3.732   0.136  -6.131  0.00  0.00    -0.387 OA
ATOM     42  H   LIG A   1      -4.125  -0.614  -5.635  0.00  0.00    +0.210 HD
ENDBRANCH  36  41
BRANCH  38  43
ATOM     43  O   LIG A   1      -5.159  -0.745  -4.012  0.00  0.00    -0.384 OA
ATOM     44  H   LIG A   1      -6.026  -0.341  -4.207  0.00  0.00    +0.210 HD
ENDBRANCH  38  43
BRANCH  35  45
ATOM     45  C   LIG A   1      -0.706   1.056  -4.122  0.00  0.00    +0.190 C 
BRANCH  45  46
ATOM     46  O   LIG A   1      -1.025   1.792  -2.951  0.00  0.00    -0.392 OA
ATOM     47  H   LIG A   1      -0.975   1.165  -2.205  0.00  0.00    +0.209 HD
ENDBRANCH  45  46
ENDBRANCH  35  45
ENDBRANCH  32  33
ENDBRANCH   2  32
TORSDOF 14
