@<TRIPOS>MOLECULE
NuBBE_2515
 48 51 0 0 0
SMALL
GASTEIGER

@<TRIPOS>ATOM
      1 C          -2.5721   -1.1136   -1.3832 C.3     1  LIG1       -0.0185
      2 C          -3.1127   -0.2618   -2.5106 C.2     1  LIG1       -0.0899
      3 C          -4.3987   -0.2185   -2.8820 C.2     1  LIG1       -0.1026
      4 C          -1.9043   -0.3205   -0.2180 C.3     1  LIG1        0.0592
      5 C          -0.7274    0.4836   -0.6913 C.2     1  LIG1        0.1125
      6 C          -0.7292    1.8015   -0.8919 C.2     1  LIG1        0.0271
      7 C          -1.9435    2.5829   -0.5707 C.2     1  LIG1        0.2231
      8 O          -2.0239    3.7363   -0.9678 O.2     1  LIG1       -0.2839
      9 C          -2.9761    1.9078    0.3104 C.2     1  LIG1        0.1637
     10 C          -2.9258    0.5710    0.4553 C.2     1  LIG1       -0.0243
     11 O          -3.9774    2.5909    0.9867 O.2     1  LIG1       -0.4916
     12 C          -3.9699    4.0101    0.8915 C.3     1  LIG1        0.0790
     13 O           0.4461   -0.2325   -0.7223 O.2     1  LIG1       -0.4914
     14 C           0.3002   -1.2574    0.2803 C.3     1  LIG1        0.1075
     15 H           0.5298   -2.2154   -0.2012 H       1  LIG1        0.0739
     16 C          -1.1590   -1.2077    0.7964 C.3     1  LIG1        0.0099
     17 H          -1.1727   -0.7059    1.7761 H       1  LIG1        0.0347
     18 C          -1.7190   -2.6083    1.0398 C.3     1  LIG1       -0.0578
     19 C           1.2878   -0.9829    1.4315 C.3     1  LIG1        0.0099
     20 C           2.7390   -0.9785    1.0111 C.ar    1  LIG1       -0.0402
     21 C           3.3427    0.2146    0.5758 C.ar    1  LIG1       -0.0128
     22 C           4.6790    0.1833    0.2385 C.ar    1  LIG1        0.1665
     23 C           5.4158   -0.9738    0.3133 C.ar    1  LIG1        0.1662
     24 C           4.8556   -2.1654    0.7194 C.ar    1  LIG1       -0.0159
     25 C           3.5010   -2.1655    1.0675 C.ar    1  LIG1       -0.0548
     26 O           6.7144   -0.7866   -0.0442 O.3     1  LIG1       -0.4526
     27 C           6.7148    0.6281   -0.3282 C.3     1  LIG1        0.2332
     28 O           5.4191    1.2445   -0.1803 O.3     1  LIG1       -0.4526
     29 H          -1.8527   -1.8154   -1.8249 H       1  LIG1        0.0320
     30 H          -3.3901   -1.7271   -0.9800 H       1  LIG1        0.0320
     31 H          -2.3955    0.3485   -3.0576 H       1  LIG1        0.0567
     32 H          -5.1624   -0.8078   -2.3851 H       1  LIG1        0.0532
     33 H          -4.7165    0.4208   -3.7013 H       1  LIG1        0.0532
     34 H           0.1450    2.3503   -1.2168 H       1  LIG1        0.0691
     35 H          -3.6792    0.0866    1.0714 H       1  LIG1        0.0620
     36 H          -4.7455    4.3954    1.5598 H       1  LIG1        0.0660
     37 H          -4.2246    4.3291   -0.1236 H       1  LIG1        0.0660
     38 H          -3.0142    4.4295    1.2235 H       1  LIG1        0.0660
     39 H          -1.1549   -3.1070    1.8360 H       1  LIG1        0.0234
     40 H          -1.6470   -3.2411    0.1489 H       1  LIG1        0.0234
     41 H          -2.7678   -2.5669    1.3490 H       1  LIG1        0.0234
     42 H           1.0689   -0.0084    1.8901 H       1  LIG1        0.0349
     43 H           1.1489   -1.7270    2.2262 H       1  LIG1        0.0349
     44 H           2.7845    1.1431    0.5099 H       1  LIG1        0.0658
     45 H           5.4505   -3.0696    0.7760 H       1  LIG1        0.0655
     46 H           3.0413   -3.0944    1.3979 H       1  LIG1        0.0621
     47 H           7.0621    0.7794   -1.3565 H       1  LIG1        0.1166
     48 H           7.4159    1.1216    0.3553 H       1  LIG1        0.1166
@<TRIPOS>BOND
     1     1     2    1
     2     2     3    2
     3     1     4    1
     4     4     5    1
     5     5     6    2
     6     6     7    1
     7     7     8    2
     8     7     9    1
     9     9    10    2
    10     4    10    1
    11     9    11    1
    12    11    12    1
    13     5    13    1
    14    13    14    1
    15    14    16    1
    16    16    17    1
    17     4    16    1
    18    16    18    1
    19    19    20    1
    20    20    21   ar
    21    21    22   ar
    22    22    23   ar
    23    23    24   ar
    24    24    25   ar
    25    20    25   ar
    26    23    26    1
    27    26    27    1
    28    27    28    1
    29    22    28    1
    30    14    19    1
    31    14    15    1
    32     1    29    1
    33     1    30    1
    34     2    31    1
    35     3    32    1
    36     3    33    1
    37     6    34    1
    38    10    35    1
    39    12    36    1
    40    12    37    1
    41    12    38    1
    42    18    39    1
    43    18    40    1
    44    18    41    1
    45    19    42    1
    46    19    43    1
    47    21    44    1
    48    24    45    1
    49    25    46    1
    50    27    47    1
    51    27    48    1
