@<TRIPOS>MOLECULE
NuBBE_1111
 42 43 0 0 0
SMALL
GASTEIGER

@<TRIPOS>ATOM
      1 C          -2.6529    0.8501    1.6007 C.3     1  LIG1        0.1215
      2 O          -1.2132    0.9574    1.6405 O.3     1  LIG1       -0.4589
      3 C          -0.5190   -0.2014    1.7365 C.2     1  LIG1        0.3320
      4 O          -0.9950   -1.3249    1.7962 O.2     1  LIG1       -0.2456
      5 C           0.9156    0.1090    1.6400 C.2     1  LIG1        0.0231
      6 C           1.8111   -0.8873    1.5849 C.2     1  LIG1       -0.0477
      7 C           3.2386   -0.5942    1.4693 C.ar    1  LIG1       -0.0211
      8 C           3.8441   -0.5772    0.2093 C.ar    1  LIG1       -0.0094
      9 C           5.1951   -0.2617    0.1076 C.ar    1  LIG1        0.1588
     10 O           5.8428   -0.2222   -1.0945 O.3     1  LIG1       -0.5033
     11 C           5.9354    0.0283    1.2529 C.ar    1  LIG1        0.1582
     12 C           5.3476    0.0102    2.5069 C.ar    1  LIG1       -0.0160
     13 C           3.9869   -0.3032    2.6184 C.ar    1  LIG1       -0.0509
     14 O           7.2614    0.3415    1.1465 O.3     1  LIG1       -0.5033
     15 C          -3.1849    0.6592    0.1649 C.3     1  LIG1        0.1240
     16 H          -4.2800    0.6125    0.2403 H       1  LIG1        0.0658
     17 C          -2.6553   -0.6160   -0.5018 C.3     1  LIG1        0.1129
     18 H          -1.5605   -0.6114   -0.5403 H       1  LIG1        0.0647
     19 O          -3.0752   -1.7912    0.1968 O.3     1  LIG1       -0.3864
     20 C          -3.1196   -0.7352   -1.9516 C.3     1  LIG1        0.1141
     21 H          -4.1941   -0.9405   -2.0126 H       1  LIG1        0.0648
     22 O          -2.4690   -1.8826   -2.5234 O.3     1  LIG1       -0.3864
     23 C          -2.7502    0.5390   -2.7164 C.3     1  LIG1        0.1339
     24 H          -1.6577    0.5832   -2.8082 H       1  LIG1        0.0671
     25 C          -3.2525    1.7822   -1.9534 C.3     1  LIG1        0.1854
     26 H          -2.8378    2.6710   -2.4403 H       1  LIG1        0.0935
     27 O          -2.8268    1.8189   -0.5984 O.3     1  LIG1       -0.3396
     28 O          -4.6672    1.9274   -2.0479 O.3     1  LIG1       -0.3649
     29 O          -3.2862    0.5085   -4.0456 O.3     1  LIG1       -0.3841
     30 H          -3.0315    1.7980    2.0008 H       1  LIG1        0.0725
     31 H          -3.0017    0.0570    2.2725 H       1  LIG1        0.0725
     32 H           1.2011    1.1537    1.5936 H       1  LIG1        0.0689
     33 H           1.5254   -1.9356    1.6143 H       1  LIG1        0.0626
     34 H           3.2592   -0.8014   -0.6780 H       1  LIG1        0.0661
     35 H           5.2002   -0.4539   -1.7919 H       1  LIG1        0.2923
     36 H           5.9328    0.2363    3.3910 H       1  LIG1        0.0655
     37 H           3.5244   -0.3163    3.6012 H       1  LIG1        0.0625
     38 H           7.4505    0.2927    0.1862 H       1  LIG1        0.2923
     39 H          -2.4076   -1.9409    0.9058 H       1  LIG1        0.2100
     40 H          -2.6166   -2.6083   -1.8845 H       1  LIG1        0.2100
     41 H          -5.0866    1.0762   -1.8510 H       1  LIG1        0.2126
     42 H          -4.1311    0.9931   -4.0374 H       1  LIG1        0.2101
@<TRIPOS>BOND
     1     1     2    1
     2     2     3    1
     3     3     4    2
     4     3     5    1
     5     5     6    2
     6     6     7    1
     7     7     8   ar
     8     8     9   ar
     9     9    10    1
    10     9    11   ar
    11    11    12   ar
    12    12    13   ar
    13     7    13   ar
    14    11    14    1
    15    15    17    1
    16    17    18    1
    17    17    19    1
    18    17    20    1
    19    20    21    1
    20    20    22    1
    21    20    23    1
    22    23    25    1
    23    25    27    1
    24    15    27    1
    25    15    16    1
    26    15     1    1
    27    23    29    1
    28    23    24    1
    29    25    28    1
    30    25    26    1
    31     1    30    1
    32     1    31    1
    33     5    32    1
    34     6    33    1
    35     8    34    1
    36    10    35    1
    37    12    36    1
    38    13    37    1
    39    14    38    1
    40    19    39    1
    41    22    40    1
    42    28    41    1
    43    29    42    1
