@<TRIPOS>MOLECULE
NuBBE_1200
 16 16 0 0 0
SMALL
GASTEIGER

@<TRIPOS>ATOM
      1 O          -3.2552   -0.2310    0.3325 O.3     1  LIG1       -0.5068
      2 C          -1.9015   -0.1572    0.1928 C.ar    1  LIG1        0.1169
      3 C          -1.2405    1.0677    0.1737 C.ar    1  LIG1       -0.0194
      4 C           0.1496    1.0965    0.0286 C.ar    1  LIG1       -0.0443
      5 C           0.8700   -0.0999   -0.0964 C.ar    1  LIG1        0.0591
      6 C           2.3447   -0.1180   -0.2519 C.2     1  LIG1        0.3368
      7 O           2.8849    1.1137   -0.2509 O.3     1  LIG1       -0.4771
      8 O           3.0386   -1.1108   -0.3702 O.2     1  LIG1       -0.2451
      9 C           0.1895   -1.3244   -0.0755 C.ar    1  LIG1       -0.0443
     10 C          -1.1988   -1.3508    0.0696 C.ar    1  LIG1       -0.0194
     11 H          -3.6123    0.6691    0.4078 H       1  LIG1        0.2921
     12 H          -1.7837    2.0028    0.2693 H       1  LIG1        0.0654
     13 H           0.6623    2.0553    0.0141 H       1  LIG1        0.0627
     14 H           3.8448    0.9462   -0.3582 H       1  LIG1        0.2954
     15 H           0.7366   -2.2601   -0.1716 H       1  LIG1        0.0627
     16 H          -1.7293   -2.2990    0.0864 H       1  LIG1        0.0654
@<TRIPOS>BOND
     1     1     2    1
     2     2     3   ar
     3     3     4   ar
     4     4     5   ar
     5     5     6    1
     6     6     7    1
     7     6     8    2
     8     5     9   ar
     9     9    10   ar
    10     2    10   ar
    11     1    11    1
    12     3    12    1
    13     4    13    1
    14     7    14    1
    15     9    15    1
    16    10    16    1
