REMARK  Name = NuBBE_942
REMARK  7 active torsions:
REMARK  status: ('A' for Active; 'I' for Inactive)
REMARK    1  A    between atoms: N_7  and  C_8
REMARK    2  A    between atoms: C_9  and  O_10
REMARK    3  A    between atoms: O_10  and  C_11
REMARK    4  A    between atoms: C_12  and  O_15
REMARK    5  A    between atoms: O_15  and  C_16
REMARK    6  A    between atoms: C_18  and  C_21
REMARK    7  A    between atoms: C_18  and  C_22
REMARK                            x       y       z     vdW  Elec       q    Type
REMARK                         _______ _______ _______ _____ _____    ______ ____
ROOT
ATOM      1  O   LIG A   1       2.052   1.881  -2.662  0.00  0.00    -0.267 OA
ATOM      2  C   LIG A   1       1.409   1.247  -1.826  0.00  0.00    +0.262 A 
ATOM      3  C   LIG A   1       1.936   1.148  -0.433  0.00  0.00    +0.082 A 
ATOM      4  C   LIG A   1       1.266   0.457   0.498  0.00  0.00    +0.143 A 
ATOM      5  C   LIG A   1       0.051  -0.294   0.148  0.00  0.00    +0.045 A 
ATOM      6  C   LIG A   1      -0.492  -0.215  -1.152  0.00  0.00    +0.101 A 
ATOM      7  N   LIG A   1       0.184   0.639  -2.103  0.00  0.00    -0.307 N 
ATOM      8  C   LIG A   1      -0.375   0.886  -3.422  0.00  0.00    +0.152 C 
ATOM      9  C   LIG A   1      -1.658  -0.987  -1.448  0.00  0.00    +0.186 A 
ATOM     10  C   LIG A   1      -2.234  -1.822  -0.459  0.00  0.00    +0.164 A 
ATOM     11  C   LIG A   1      -1.674  -1.874   0.816  0.00  0.00    +0.050 A 
ATOM     12  C   LIG A   1      -0.551  -1.113   1.116  0.00  0.00    +0.017 A 
ATOM     13  O   LIG A   1       1.661   0.367   1.820  0.00  0.00    -0.481 OA
ATOM     14  C   LIG A   1       2.719   1.228   2.298  0.00  0.00    +0.123 C 
ATOM     15  C   LIG A   1       3.560   1.841   1.203  0.00  0.00    +0.020 C 
ATOM     16  C   LIG A   1       3.178   1.799  -0.078  0.00  0.00    +0.016 C 
ATOM     17  C   LIG A   1       2.063   2.339   3.126  0.00  0.00    +0.060 C 
ATOM     18  C   LIG A   1       3.594   0.354   3.203  0.00  0.00    +0.060 C 
ENDROOT
BRANCH   9  19
ATOM     19  O   LIG A   1      -2.124  -0.967  -2.744  0.00  0.00    -0.489 OA
ATOM     20  C   LIG A   1      -3.534  -1.036  -2.938  0.00  0.00    +0.277 C 
ENDBRANCH   9  19
BRANCH  10  21
ATOM     21  O   LIG A   1      -3.275  -2.644  -0.813  0.00  0.00    -0.491 OA
ATOM     22  C   LIG A   1      -4.213  -2.950   0.216  0.00  0.00    +0.277 C 
ENDBRANCH  10  21
TORSDOF 2
