REMARK  Name = NuBBE_1600
REMARK  17 active torsions:
REMARK  status: ('A' for Active; 'I' for Inactive)
REMARK    1  A    between atoms: C_1  and  C_2
REMARK    2  A    between atoms: C_5  and  C_6
REMARK    3  A    between atoms: C_8  and  O_11
REMARK    4  A    between atoms: C_12  and  C_13
REMARK    5  A    between atoms: C_12  and  C_17
REMARK    6  A    between atoms: C_13  and  O_15
REMARK    7  A    between atoms: O_15  and  C_16
REMARK    8  A    between atoms: C_22  and  O_24
REMARK    9  A    between atoms: O_24  and  C_25
REMARK   10  A    between atoms: C_25  and  C_27
REMARK   11  A    between atoms: C_28  and  O_42
REMARK   12  A    between atoms: C_30  and  C_41
REMARK   13  A    between atoms: C_34  and  C_36
REMARK   14  A    between atoms: O_42  and  C_43
REMARK   15  A    between atoms: C_43  and  C_45
REMARK   16  A    between atoms: C_45  and  C_46
REMARK   17  A    between atoms: C_45  and  C_47
REMARK                            x       y       z     vdW  Elec       q    Type
REMARK                         _______ _______ _______ _____ _____    ______ ____
ROOT
ATOM      1  C   LIG A   1      -1.572   1.589  -1.317  0.00  0.00    +0.024 C 
ATOM      2  C   LIG A   1      -0.406   0.613  -1.702  0.00  0.00    +0.063 C 
ATOM      3  C   LIG A   1      -0.116  -0.621  -0.769  0.00  0.00    +0.065 C 
ATOM      4  C   LIG A   1      -1.446  -1.154  -0.065  0.00  0.00    +0.020 C 
ATOM      5  C   LIG A   1      -1.180  -2.401   0.805  0.00  0.00    +0.021 C 
ATOM      6  C   LIG A   1      -2.473  -1.468  -1.220  0.00  0.00    +0.009 C 
ATOM      7  C   LIG A   1      -2.185  -1.142  -2.511  0.00  0.00    +0.162 C 
ATOM      8  C   LIG A   1      -1.031  -0.179  -2.887  0.00  0.00    +0.207 C 
ATOM      9  O   LIG A   1      -0.717  -0.072  -4.069  0.00  0.00    -0.288 OA
ATOM     10  C   LIG A   1      -3.844  -2.066  -0.742  0.00  0.00    +0.152 C 
ATOM     11  C   LIG A   1      -5.010  -1.864  -1.747  0.00  0.00    +0.036 C 
ATOM     12  C   LIG A   1      -4.312  -1.282   0.521  0.00  0.00    +0.176 C 
ATOM     13  O   LIG A   1      -5.427  -1.417   1.030  0.00  0.00    -0.291 OA
ATOM     14  C   LIG A   1      -3.419  -0.274   1.173  0.00  0.00    +0.044 C 
ATOM     15  C   LIG A   1      -2.105  -0.212   0.911  0.00  0.00    -0.012 C 
ATOM     16  C   LIG A   1       1.255  -0.708  -0.047  0.00  0.00    +0.223 C 
ATOM     17  C   LIG A   1       2.048   0.609   0.150  0.00  0.00    +0.228 C 
ATOM     18  C   LIG A   1       2.093   1.544  -1.103  0.00  0.00    +0.037 C 
ATOM     19  C   LIG A   1       0.800   1.542  -1.938  0.00  0.00    -0.050 C 
ATOM     20  C   LIG A   1       0.755   2.682  -2.664  0.00  0.00    -0.025 C 
ATOM     21  C   LIG A   1       1.851   3.651  -2.325  0.00  0.00    +0.036 C 
ATOM     22  C   LIG A   1       2.364   3.105  -0.960  0.00  0.00    +0.039 C 
ATOM     23  C   LIG A   1       3.298   1.049  -1.999  0.00  0.00    +0.020 C 
ENDROOT
BRANCH  22  24
ATOM     24  C   LIG A   1       1.784   3.865   0.212  0.00  0.00    -0.005 A 
ATOM     25  C   LIG A   1       0.604   4.666   0.283  0.00  0.00    +0.045 A 
ATOM     26  C   LIG A   1       0.539   5.182   1.556  0.00  0.00    +0.195 A 
ATOM     27  O   LIG A   1       1.622   4.796   2.271  0.00  0.00    -0.471 OA
ATOM     28  C   LIG A   1       2.386   4.038   1.445  0.00  0.00    +0.198 A 
ENDBRANCH  22  24
BRANCH   7  29
ATOM     29  O   LIG A   1      -2.921  -1.619  -3.575  0.00  0.00    -0.503 OA
ATOM     30  H   LIG A   1      -2.406  -1.387  -4.378  0.00  0.00    +0.292 HD
ENDBRANCH   7  29
BRANCH  10  31
ATOM     31  C   LIG A   1      -3.830  -3.587  -0.458  0.00  0.00    +0.325 C 
ATOM     32  O   LIG A   1      -4.749  -4.212   0.063  0.00  0.00    -0.249 OA
BRANCH  31  33
ATOM     33  O   LIG A   1      -2.677  -4.184  -0.870  0.00  0.00    -0.467 OA
ATOM     34  C   LIG A   1      -2.471  -5.516  -0.383  0.00  0.00    +0.280 C 
ENDBRANCH  31  33
ENDBRANCH  10  31
BRANCH  16  35
ATOM     35  O   LIG A   1       2.134  -1.634  -0.792  0.00  0.00    -0.457 OA
BRANCH  35  36
ATOM     36  C   LIG A   1       2.063  -2.966  -0.472  0.00  0.00    +0.304 C 
ATOM     37  O   LIG A   1       1.314  -3.468   0.322  0.00  0.00    -0.251 OA
ATOM     38  C   LIG A   1       3.064  -3.781  -1.242  0.00  0.00    +0.136 C 
ENDBRANCH  35  36
ENDBRANCH  16  35
BRANCH  17  39
ATOM     39  O   LIG A   1       1.611   1.233   1.370  0.00  0.00    -0.457 OA
BRANCH  39  40
ATOM     40  C   LIG A   1       2.130   0.622   2.493  0.00  0.00    +0.310 C 
ATOM     41  O   LIG A   1       2.660  -0.470   2.510  0.00  0.00    -0.251 OA
BRANCH  40  42
ATOM     42  C   LIG A   1       2.003   1.516   3.706  0.00  0.00    +0.092 C 
ATOM     43  C   LIG A   1       0.732   1.186   4.460  0.00  0.00    +0.019 C 
ATOM     44  C   LIG A   1       3.266   1.417   4.562  0.00  0.00    +0.019 C 
ENDBRANCH  40  42
ENDBRANCH  39  40
ENDBRANCH  17  39
TORSDOF 9
