REMARK  Name = NuBBE_2344
REMARK  7 active torsions:
REMARK  status: ('A' for Active; 'I' for Inactive)
REMARK    1  A    between atoms: C_1  and  O_2
REMARK    2  A    between atoms: O_2  and  C_3
REMARK    3  A    between atoms: C_10  and  C_11
REMARK    4  A    between atoms: C_16  and  O_17
REMARK    5  A    between atoms: C_18  and  O_19
REMARK    6  A    between atoms: O_19  and  C_20
REMARK    7  A    between atoms: C_23  and  C_25
REMARK                            x       y       z     vdW  Elec       q    Type
REMARK                         _______ _______ _______ _____ _____    ______ ____
ROOT
ATOM      1  C   LIG A   1      -0.587  -1.293  -0.920  0.00  0.00    +0.211 C 
ATOM      2  O   LIG A   1      -1.570  -1.468   0.138  0.00  0.00    -0.483 OA
ATOM      3  C   LIG A   1      -2.174  -0.244   0.259  0.00  0.00    +0.129 A 
ATOM      4  C   LIG A   1      -3.026   0.103   1.284  0.00  0.00    +0.095 A 
ATOM      5  C   LIG A   1      -3.538   1.396   1.270  0.00  0.00    +0.162 A 
ATOM      6  C   LIG A   1      -3.210   2.324   0.259  0.00  0.00    +0.162 A 
ATOM      7  C   LIG A   1      -2.351   1.938  -0.772  0.00  0.00    +0.057 A 
ATOM      8  C   LIG A   1      -1.852   0.643  -0.758  0.00  0.00    +0.005 A 
ATOM      9  C   LIG A   1      -0.977  -0.040  -1.751  0.00  0.00    +0.065 C 
ATOM     10  C   LIG A   1      -1.764  -0.394  -3.012  0.00  0.00    +0.016 C 
ENDROOT
BRANCH   1  18
ATOM     11  C   LIG A   1       2.780  -2.541   0.471  0.00  0.00    +0.166 A 
ATOM     12  C   LIG A   1       3.336  -1.344   0.890  0.00  0.00    +0.207 A 
ATOM     13  O   LIG A   1       4.553  -1.145   1.470  0.00  0.00    -0.449 OA
ATOM     14  C   LIG A   1       4.555   0.281   1.663  0.00  0.00    +0.467 C 
ATOM     15  O   LIG A   1       3.348   0.917   1.210  0.00  0.00    -0.453 OA
ATOM     16  C   LIG A   1       2.651  -0.157   0.744  0.00  0.00    +0.170 A 
ATOM     17  C   LIG A   1       1.394  -0.086   0.181  0.00  0.00    +0.057 A 
ATOM     18  C   LIG A   1       0.800  -1.269  -0.285  0.00  0.00    +0.000 A 
ATOM     19  C   LIG A   1       1.504  -2.486  -0.116  0.00  0.00    +0.057 A 
BRANCH  11  21
ATOM     20  C   LIG A   1       4.582  -3.915   1.189  0.00  0.00    +0.277 C 
ATOM     21  O   LIG A   1       3.319  -3.792   0.547  0.00  0.00    -0.491 OA
ENDBRANCH  11  21
ENDBRANCH   1  18
BRANCH   5  22
ATOM     22  O   LIG A   1      -4.386   1.764   2.283  0.00  0.00    -0.503 OA
ATOM     23  H   LIG A   1      -4.622   2.692   2.090  0.00  0.00    +0.292 HD
ENDBRANCH   5  22
BRANCH   6  24
ATOM     24  O   LIG A   1      -3.803   3.555   0.391  0.00  0.00    -0.491 OA
ATOM     25  C   LIG A   1      -3.485   4.521  -0.607  0.00  0.00    +0.277 C 
ENDBRANCH   6  24
TORSDOF 4
