REMARK  Name = NuBBE_358
REMARK  8 active torsions:
REMARK  status: ('A' for Active; 'I' for Inactive)
REMARK    1  A    between atoms: O_1  and  C_2
REMARK    2  A    between atoms: C_3  and  C_4
REMARK    3  A    between atoms: C_4  and  C_5
REMARK    4  A    between atoms: C_6  and  C_7
REMARK    5  A    between atoms: C_6  and  C_8
REMARK    6  A    between atoms: C_11  and  C_12
REMARK    7  A    between atoms: C_12  and  O_13
REMARK    8  A    between atoms: O_13  and  C_14
REMARK                            x       y       z     vdW  Elec       q    Type
REMARK                         _______ _______ _______ _____ _____    ______ ____
ROOT
ATOM      1  C   LIG A   1       0.802  -1.353   2.335  0.00  0.00    +0.128 A 
ATOM      2  C   LIG A   1       0.296  -0.576   1.285  0.00  0.00    +0.064 A 
ATOM      3  C   LIG A   1       0.692  -0.866  -0.025  0.00  0.00    +0.030 A 
ATOM      4  C   LIG A   1       1.591  -1.919  -0.290  0.00  0.00    +0.060 A 
ATOM      5  C   LIG A   1       2.056  -2.706   0.771  0.00  0.00    +0.018 A 
ATOM      6  C   LIG A   1       1.658  -2.426   2.080  0.00  0.00    +0.047 A 
ENDROOT
BRANCH   1   7
ATOM      7  O   LIG A   1       0.502  -1.106   3.647  0.00  0.00    -0.506 OA
ATOM      8  H   LIG A   1       0.081  -0.218   3.698  0.00  0.00    +0.292 HD
ENDBRANCH   1   7
BRANCH   2   9
ATOM      9  C   LIG A   1      -0.585   0.590   1.568  0.00  0.00    +0.190 C 
ATOM     10  O   LIG A   1      -0.489   1.150   2.655  0.00  0.00    -0.287 OA
BRANCH   9  11
ATOM     11  C   LIG A   1      -1.598   0.960   0.534  0.00  0.00    +0.050 C 
ATOM     12  C   LIG A   1      -2.199   2.154   0.361  0.00  0.00    -0.072 C 
ATOM     13  C   LIG A   1      -1.975   3.402   1.171  0.00  0.00    +0.039 C 
ATOM     14  C   LIG A   1      -3.198   2.333  -0.755  0.00  0.00    +0.039 C 
ENDBRANCH   9  11
ENDBRANCH   2   9
BRANCH   4  15
ATOM     15  C   LIG A   1       2.115  -2.172  -1.674  0.00  0.00    +0.339 C 
ATOM     16  O   LIG A   1       2.891  -3.072  -1.968  0.00  0.00    -0.245 OA
BRANCH  15  17
ATOM     17  O   LIG A   1       1.621  -1.210  -2.480  0.00  0.00    -0.465 OA
ATOM     18  C   LIG A   1       2.080  -1.193  -3.837  0.00  0.00    +0.280 C 
ENDBRANCH  15  17
ENDBRANCH   4  15
TORSDOF 5
