@<TRIPOS>MOLECULE
NuBBE_2428
 79 83 0 0 0
SMALL
GASTEIGER

@<TRIPOS>ATOM
      1 C           0.9817    1.8471   -1.4747 C.3     1  LIG1       -0.0187
      2 C           0.3235    0.4457   -1.5010 C.3     1  LIG1       -0.0194
      3 C           0.9944    0.9770   -0.2431 C.3     1  LIG1       -0.0401
      4 C          -1.2002    0.2913   -1.3596 C.3     1  LIG1       -0.0289
      5 H          -1.4025    0.3202   -0.2825 H       1  LIG1        0.0312
      6 C          -1.8961    1.5314   -1.9434 C.3     1  LIG1       -0.0489
      7 C          -1.3925    2.7955   -1.2436 C.3     1  LIG1       -0.0485
      8 C           0.0781    3.0784   -1.5954 C.3     1  LIG1       -0.0230
      9 H           0.0749    3.3147   -2.6715 H       1  LIG1        0.0316
     10 C           0.6940    4.3222   -0.8757 C.3     1  LIG1        0.0267
     11 C           2.1576    4.4742   -1.3234 C.2     1  LIG1        0.1392
     12 O           2.6657    5.5900   -1.5334 O.2     1  LIG1       -0.2968
     13 C           3.0349    3.2426   -1.3636 C.3     1  LIG1        0.0069
     14 C           2.3417    2.1114   -2.0957 C.3     1  LIG1       -0.0399
     15 C          -0.0769    5.5993   -1.2751 C.3     1  LIG1       -0.0528
     16 C           0.6870    4.2226    0.6595 C.3     1  LIG1       -0.0528
     17 C          -1.7712   -1.0926   -1.8721 C.3     1  LIG1       -0.0231
     18 C          -0.8634   -2.3094   -1.3982 C.3     1  LIG1       -0.0233
     19 C           0.6503   -1.9858   -1.4848 C.3     1  LIG1       -0.0463
     20 C           0.9962   -0.6990   -2.2131 C.3     1  LIG1       -0.0460
     21 C          -1.4206   -2.7099    0.0522 C.3     1  LIG1       -0.0325
     22 H          -1.7448   -3.7603    0.0054 H       1  LIG1        0.0309
     23 C          -2.7153   -1.8863    0.2278 C.3     1  LIG1       -0.0489
     24 C          -3.1080   -1.4080   -1.1588 C.3     1  LIG1       -0.0466
     25 C          -0.4977   -2.6325    1.3161 C.3     1  LIG1       -0.0403
     26 H          -0.1828   -1.5860    1.4234 H       1  LIG1        0.0301
     27 C          -1.2682   -3.0294    2.6104 C.3     1  LIG1       -0.0467
     28 C          -0.4593   -2.9488    3.9181 C.3     1  LIG1       -0.0343
     29 C           0.0449   -1.5624    4.2030 C.2     1  LIG1       -0.0853
     30 C           1.3216   -1.1453    4.3137 C.2     1  LIG1       -0.0796
     31 C           2.5438   -2.0103    4.1677 C.3     1  LIG1       -0.0440
     32 C           1.6244    0.3007    4.6099 C.3     1  LIG1       -0.0440
     33 C           0.7573   -3.5179    1.1800 C.3     1  LIG1       -0.0621
     34 C          -1.0882   -3.5699   -2.2865 C.3     1  LIG1       -0.0588
     35 C          -2.0685   -1.0537   -3.3908 C.3     1  LIG1       -0.0588
     36 H           1.9273    0.5170    0.0717 H       1  LIG1        0.0276
     37 H           0.3790    1.2498    0.6080 H       1  LIG1        0.0276
     38 H          -2.9801    1.4622   -1.8064 H       1  LIG1        0.0268
     39 H          -1.7039    1.6205   -3.0195 H       1  LIG1        0.0268
     40 H          -1.5322    2.6900   -0.1626 H       1  LIG1        0.0268
     41 H          -2.0193    3.6340   -1.5660 H       1  LIG1        0.0268
     42 H           3.2640    2.9629   -0.3227 H       1  LIG1        0.0342
     43 H           3.9773    3.4871   -1.8561 H       1  LIG1        0.0342
     44 H           2.9995    1.2373   -2.0549 H       1  LIG1        0.0275
     45 H           2.2134    2.3657   -3.1537 H       1  LIG1        0.0275
     46 H          -0.0831    5.7297   -2.3620 H       1  LIG1        0.0239
     47 H           0.3846    6.4946   -0.8426 H       1  LIG1        0.0239
     48 H          -1.1121    5.5745   -0.9244 H       1  LIG1        0.0239
     49 H           1.2620    3.3683    1.0257 H       1  LIG1        0.0239
     50 H          -0.3290    4.1471    1.0583 H       1  LIG1        0.0239
     51 H           1.1456    5.1130    1.1072 H       1  LIG1        0.0239
     52 H           1.2094   -2.8119   -1.9413 H       1  LIG1        0.0271
     53 H           1.0760   -1.8491   -0.4960 H       1  LIG1        0.0271
     54 H           0.7225   -0.7328   -3.2691 H       1  LIG1        0.0271
     55 H           2.0862   -0.6050   -2.1981 H       1  LIG1        0.0271
     56 H          -2.5607   -1.0283    0.8909 H       1  LIG1        0.0268
     57 H          -3.5175   -2.4891    0.6684 H       1  LIG1        0.0268
     58 H          -3.7829   -0.5479   -1.1086 H       1  LIG1        0.0271
     59 H          -3.6533   -2.2078   -1.6754 H       1  LIG1        0.0271
     60 H          -1.6402   -4.0570    2.5026 H       1  LIG1        0.0271
     61 H          -2.1551   -2.3962    2.7307 H       1  LIG1        0.0271
     62 H           0.3430   -3.6890    3.9228 H       1  LIG1        0.0307
     63 H          -1.1161   -3.2458    4.7458 H       1  LIG1        0.0307
     64 H          -0.7500   -0.8274    4.3311 H       1  LIG1        0.0571
     65 H           2.3200   -3.0707    4.0393 H       1  LIG1        0.0274
     66 H           3.1753   -1.9223    5.0583 H       1  LIG1        0.0274
     67 H           3.1290   -1.6899    3.2991 H       1  LIG1        0.0274
     68 H           0.7154    0.8959    4.7465 H       1  LIG1        0.0274
     69 H           2.1947    0.7457    3.7880 H       1  LIG1        0.0274
     70 H           2.2134    0.3824    5.5293 H       1  LIG1        0.0274
     71 H           1.6583   -2.8928    1.1989 H       1  LIG1        0.0233
     72 H           0.7592   -4.0954    0.2521 H       1  LIG1        0.0233
     73 H           0.8762   -4.2423    1.9879 H       1  LIG1        0.0233
     74 H          -0.7324   -3.4138   -3.3102 H       1  LIG1        0.0235
     75 H          -2.1440   -3.8586   -2.3317 H       1  LIG1        0.0235
     76 H          -0.5393   -4.4302   -1.8842 H       1  LIG1        0.0235
     77 H          -1.1812   -0.8603   -3.9949 H       1  LIG1        0.0235
     78 H          -2.8059   -0.2809   -3.6333 H       1  LIG1        0.0235
     79 H          -2.5086   -1.9899   -3.7500 H       1  LIG1        0.0235
@<TRIPOS>BOND
     1     1     2    1
     2     2     3    1
     3     1     3    1
     4     2     4    1
     5     4     5    1
     6     4     6    1
     7     6     7    1
     8     7     8    1
     9     8     9    1
    10     1     8    1
    11     8    10    1
    12    10    11    1
    13    11    12    2
    14    11    13    1
    15    13    14    1
    16     1    14    1
    17    10    15    1
    18    10    16    1
    19     4    17    1
    20    17    18    1
    21    18    19    1
    22    19    20    1
    23     2    20    1
    24    18    21    1
    25    21    22    1
    26    21    23    1
    27    23    24    1
    28    17    24    1
    29    21    25    1
    30    25    26    1
    31    25    27    1
    32    27    28    1
    33    28    29    1
    34    29    30    2
    35    30    31    1
    36    30    32    1
    37    25    33    1
    38    18    34    1
    39    17    35    1
    40     3    36    1
    41     3    37    1
    42     6    38    1
    43     6    39    1
    44     7    40    1
    45     7    41    1
    46    13    42    1
    47    13    43    1
    48    14    44    1
    49    14    45    1
    50    15    46    1
    51    15    47    1
    52    15    48    1
    53    16    49    1
    54    16    50    1
    55    16    51    1
    56    19    52    1
    57    19    53    1
    58    20    54    1
    59    20    55    1
    60    23    56    1
    61    23    57    1
    62    24    58    1
    63    24    59    1
    64    27    60    1
    65    27    61    1
    66    28    62    1
    67    28    63    1
    68    29    64    1
    69    31    65    1
    70    31    66    1
    71    31    67    1
    72    32    68    1
    73    32    69    1
    74    32    70    1
    75    33    71    1
    76    33    72    1
    77    33    73    1
    78    34    74    1
    79    34    75    1
    80    34    76    1
    81    35    77    1
    82    35    78    1
    83    35    79    1
