@<TRIPOS>MOLECULE
NuBBE_1466
 64 68 0 0 0
SMALL
GASTEIGER

@<TRIPOS>ATOM
      1 C          -2.0070    2.1023   -2.4064 C.3     1  LIG1       -0.0521
      2 C          -1.9284    1.3592   -1.0475 C.3     1  LIG1        0.0317
      3 C          -0.5353    1.0663   -0.5078 C.2     1  LIG1       -0.0387
      4 C          -0.1764    1.4132    0.7392 C.2     1  LIG1        0.0234
      5 C          -2.3127   -0.1087   -1.3091 C.3     1  LIG1       -0.0389
      6 H          -2.6022   -0.6218   -0.3839 H       1  LIG1        0.0275
      7 H          -3.1562   -0.2031   -2.0050 H       1  LIG1        0.0275
      8 C          -1.0319   -0.7705   -1.9094 C.3     1  LIG1       -0.0349
      9 C           0.1939    0.0288   -1.3792 C.3     1  LIG1        0.0626
     10 C           1.4055   -0.8315   -0.7457 C.3     1  LIG1        0.0463
     11 C           1.8405   -1.9272   -1.7809 C.3     1  LIG1       -0.0511
     12 C           2.4564    0.2627   -0.8209 C.2     1  LIG1        0.1159
     13 O           2.2754    1.0413   -1.9497 O.2     1  LIG1       -0.4635
     14 C           3.3321    0.6553    0.0926 C.2     1  LIG1        0.0200
     15 C           3.3871    0.0164    1.4006 C.2     1  LIG1        0.1651
     16 C           2.5496   -1.2385    1.7031 C.3     1  LIG1        0.0317
     17 C           3.6133   -2.3700    1.6566 C.3     1  LIG1       -0.0525
     18 C           2.0925   -1.0961    3.1704 C.3     1  LIG1       -0.0525
     19 C           1.3707   -1.6098    0.6723 C.3     1  LIG1       -0.0054
     20 H           1.6554   -2.6353    0.3929 H       1  LIG1        0.0325
     21 C          -0.0389   -1.9220    1.2477 C.3     1  LIG1        0.0496
     22 C          -0.2218   -3.2297    2.0278 C.2     1  LIG1        0.3071
     23 O          -0.6763   -4.2225    1.2096 O.3     1  LIG1       -0.4679
     24 C          -1.2788   -5.3509    1.8665 C.3     1  LIG1        0.0817
     25 O          -0.0746   -3.3534    3.2396 O.2     1  LIG1       -0.2509
     26 O           4.1812    0.5009    2.2093 O.2     1  LIG1       -0.2920
     27 C           1.0081    0.7948   -2.4515 C.2     1  LIG1        0.1092
     28 C           0.7643    1.1114   -3.7282 C.2     1  LIG1       -0.0595
     29 C          -2.7779    2.1509    0.0062 C.3     1  LIG1        0.1402
     30 H          -3.8229    1.8379   -0.1162 H       1  LIG1        0.0795
     31 C          -2.7539    3.6658   -0.1683 C.ar    1  LIG1        0.0313
     32 C          -3.7188    4.4394   -0.7929 C.ar    1  LIG1        0.0984
     33 O          -3.3466    5.7425   -0.8490 O.2     1  LIG1       -0.4706
     34 C          -2.1457    5.8358   -0.2296 C.ar    1  LIG1        0.0921
     35 C          -1.7440    4.6004    0.2204 C.ar    1  LIG1       -0.0172
     36 O          -2.4485    1.8024    1.3648 O.3     1  LIG1       -0.4525
     37 C          -1.1539    1.8716    1.7540 C.2     1  LIG1        0.3325
     38 O          -0.8095    2.1179    2.8992 O.2     1  LIG1       -0.2456
     39 H          -1.8746    1.4409   -3.2630 H       1  LIG1        0.0239
     40 H          -1.2751    2.9136   -2.4735 H       1  LIG1        0.0239
     41 H          -3.0062    2.5208   -2.5738 H       1  LIG1        0.0239
     42 H           0.7818    1.1911    1.1718 H       1  LIG1        0.0689
     43 H          -1.0920   -0.7524   -3.0034 H       1  LIG1        0.0278
     44 H          -1.0095   -1.8298   -1.6416 H       1  LIG1        0.0278
     45 H           2.8237   -2.3384   -1.5207 H       1  LIG1        0.0240
     46 H           1.9232   -1.5594   -2.8082 H       1  LIG1        0.0240
     47 H           1.1231   -2.7550   -1.7946 H       1  LIG1        0.0240
     48 H           3.9685    1.5201   -0.0595 H       1  LIG1        0.0686
     49 H           4.0676   -2.4386    0.6608 H       1  LIG1        0.0239
     50 H           3.1746   -3.3426    1.9019 H       1  LIG1        0.0239
     51 H           4.4299   -2.1879    2.3663 H       1  LIG1        0.0239
     52 H           2.8834   -0.6855    3.8121 H       1  LIG1        0.0239
     53 H           1.8462   -2.0611    3.6145 H       1  LIG1        0.0239
     54 H           1.2401   -0.4177    3.2672 H       1  LIG1        0.0239
     55 H          -0.7410   -2.0281    0.4189 H       1  LIG1        0.0381
     56 H          -0.4422   -1.1121    1.8587 H       1  LIG1        0.0381
     57 H          -0.5222   -6.0643    2.2071 H       1  LIG1        0.0661
     58 H          -1.9181   -5.8525    1.1322 H       1  LIG1        0.0661
     59 H          -1.9195   -5.0407    2.7001 H       1  LIG1        0.0661
     60 H          -0.1508    0.8706   -4.2492 H       1  LIG1        0.0568
     61 H           1.5220    1.6313   -4.3090 H       1  LIG1        0.0568
     62 H          -4.6647    4.2153   -1.2674 H       1  LIG1        0.1033
     63 H          -1.7106    6.8252   -0.1898 H       1  LIG1        0.1029
     64 H          -0.8214    4.4112    0.7508 H       1  LIG1        0.0653
@<TRIPOS>BOND
     1     2     3    1
     2     3     4    2
     3     2     5    1
     4     5     8    1
     5     8     9    1
     6     9    10    1
     7    10    11    1
     8    10    12    1
     9    12    13    1
    10    12    14    2
    11    14    15    1
    12    15    16    1
    13    16    17    1
    14    16    18    1
    15    16    19    1
    16    19    20    1
    17    10    19    1
    18    19    21    1
    19    21    22    1
    20    22    23    1
    21    23    24    1
    22    22    25    2
    23    15    26    2
    24     3     9    1
    25     9    27    1
    26    13    27    1
    27    27    28    2
    28     2    29    1
    29    31    32   ar
    30    32    33   ar
    31    33    34   ar
    32    34    35   ar
    33    31    35   ar
    34    29    36    1
    35    36    37    1
    36     4    37    1
    37     1     2    1
    38     5     6    1
    39     5     7    1
    40    29    30    1
    41    29    31    1
    42    37    38    2
    43     1    39    1
    44     1    40    1
    45     1    41    1
    46     4    42    1
    47     8    43    1
    48     8    44    1
    49    11    45    1
    50    11    46    1
    51    11    47    1
    52    14    48    1
    53    17    49    1
    54    17    50    1
    55    17    51    1
    56    18    52    1
    57    18    53    1
    58    18    54    1
    59    21    55    1
    60    21    56    1
    61    24    57    1
    62    24    58    1
    63    24    59    1
    64    28    60    1
    65    28    61    1
    66    32    62    1
    67    34    63    1
    68    35    64    1
