REMARK  Name = NuBBE_2348
REMARK  7 active torsions:
REMARK  status: ('A' for Active; 'I' for Inactive)
REMARK    1  A    between atoms: C_1  and  O_2
REMARK    2  A    between atoms: O_2  and  C_3
REMARK    3  A    between atoms: C_10  and  C_11
REMARK    4  A    between atoms: C_16  and  O_17
REMARK    5  A    between atoms: C_18  and  O_19
REMARK    6  A    between atoms: O_19  and  C_20
REMARK    7  A    between atoms: C_23  and  C_25
REMARK                            x       y       z     vdW  Elec       q    Type
REMARK                         _______ _______ _______ _____ _____    ______ ____
ROOT
ATOM      1  C   LIG A   1       0.397  -0.358   1.045  0.00  0.00    +0.211 C 
ATOM      2  O   LIG A   1      -0.505  -1.359   0.496  0.00  0.00    -0.483 OA
ATOM      3  C   LIG A   1      -1.738  -0.966   0.940  0.00  0.00    +0.129 A 
ATOM      4  C   LIG A   1      -2.866  -1.751   0.841  0.00  0.00    +0.095 A 
ATOM      5  C   LIG A   1      -4.073  -1.224   1.307  0.00  0.00    +0.162 A 
ATOM      6  C   LIG A   1      -4.132   0.074   1.857  0.00  0.00    +0.162 A 
ATOM      7  C   LIG A   1      -2.957   0.839   1.954  0.00  0.00    +0.057 A 
ATOM      8  C   LIG A   1      -1.769   0.310   1.473  0.00  0.00    +0.005 A 
ATOM      9  C   LIG A   1      -0.418   0.931   1.345  0.00  0.00    +0.065 C 
ATOM     10  C   LIG A   1      -0.422   1.990   0.245  0.00  0.00    +0.016 C 
ENDROOT
BRANCH   1  18
ATOM     11  C   LIG A   1       2.696  -0.367  -2.056  0.00  0.00    +0.166 A 
ATOM     12  C   LIG A   1       3.893  -0.036  -1.451  0.00  0.00    +0.207 A 
ATOM     13  O   LIG A   1       5.117   0.093  -2.037  0.00  0.00    -0.449 OA
ATOM     14  C   LIG A   1       5.946   0.432  -0.912  0.00  0.00    +0.467 C 
ATOM     15  O   LIG A   1       5.220   0.511   0.326  0.00  0.00    -0.453 OA
ATOM     16  C   LIG A   1       3.961   0.206  -0.094  0.00  0.00    +0.170 A 
ATOM     17  C   LIG A   1       2.857   0.130   0.733  0.00  0.00    +0.057 A 
ATOM     18  C   LIG A   1       1.623  -0.215   0.163  0.00  0.00    +0.000 A 
ATOM     19  C   LIG A   1       1.560  -0.451  -1.233  0.00  0.00    +0.057 A 
BRANCH  11  21
ATOM     20  C   LIG A   1       3.593  -0.602  -4.245  0.00  0.00    +0.277 C 
ATOM     21  O   LIG A   1       2.466  -0.632  -3.377  0.00  0.00    -0.491 OA
ENDBRANCH  11  21
ENDBRANCH   1  18
BRANCH   5  22
ATOM     22  O   LIG A   1      -5.191  -2.010   1.230  0.00  0.00    -0.503 OA
ATOM     23  H   LIG A   1      -4.948  -2.866   0.840  0.00  0.00    +0.292 HD
ENDBRANCH   5  22
BRANCH   6  24
ATOM     24  O   LIG A   1      -5.243   0.697   2.365  0.00  0.00    -0.491 OA
ATOM     25  C   LIG A   1      -6.485   0.360   1.755  0.00  0.00    +0.277 C 
ENDBRANCH   6  24
TORSDOF 4
