@<TRIPOS>MOLECULE
NuBBE_335
 52 53 0 0 0
SMALL
GASTEIGER

@<TRIPOS>ATOM
      1 O          -2.5201   -2.3755   -3.6964 O.2     1  LIG1       -0.2452
      2 C          -2.7582   -2.1604   -2.5324 C.2     1  LIG1        0.3381
      3 O          -3.9397   -1.7565   -1.9936 O.3     1  LIG1       -0.4646
      4 C          -4.8296   -1.0823   -2.8900 C.3     1  LIG1        0.0820
      5 C          -1.7354   -2.1327   -1.4589 C.2     1  LIG1        0.0751
      6 C          -0.5316   -1.6499   -1.7781 C.2     1  LIG1        0.0981
      7 O           0.4346   -1.4007   -0.8388 O.2     1  LIG1       -0.4699
      8 C          -0.0812   -0.7723    0.3543 C.3     1  LIG1        0.2102
      9 H           0.6905   -0.8695    1.1254 H       1  LIG1        0.1062
     10 O          -0.2981    0.6379    0.1231 O.3     1  LIG1       -0.3093
     11 C           0.9017    1.3591   -0.2396 C.3     1  LIG1        0.1918
     12 H           1.3139    0.9295   -1.1622 H       1  LIG1        0.0939
     13 O           1.8433    1.2491    0.8299 O.3     1  LIG1       -0.3404
     14 C           3.0316    2.0329    0.6772 C.3     1  LIG1        0.1130
     15 H           3.5756    1.7319   -0.2291 H       1  LIG1        0.0647
     16 C           3.9157    1.7358    1.9006 C.3     1  LIG1        0.0730
     17 O           5.1241    2.4892    1.8775 O.3     1  LIG1       -0.3924
     18 C           2.6762    3.5255    0.6182 C.3     1  LIG1        0.1119
     19 H           2.1990    3.8346    1.5551 H       1  LIG1        0.0647
     20 O           3.8063    4.3876    0.4391 O.3     1  LIG1       -0.3865
     21 C           1.7068    3.7823   -0.5334 C.3     1  LIG1        0.1141
     22 H           2.2234    3.7174   -1.5002 H       1  LIG1        0.0648
     23 O           1.2299    5.1430   -0.4467 O.3     1  LIG1       -0.3864
     24 C           0.5003    2.8391   -0.4833 C.3     1  LIG1        0.1342
     25 H          -0.1717    3.1614    0.3203 H       1  LIG1        0.0671
     26 O          -0.2501    2.9942   -1.7024 O.3     1  LIG1       -0.3841
     27 C          -1.4188   -1.4191    0.9067 C.3     1  LIG1        0.0471
     28 C          -1.3213   -1.8363    2.3756 C.2     1  LIG1       -0.0816
     29 C          -2.0995   -1.3842    3.3730 C.2     1  LIG1       -0.1022
     30 H          -2.1738   -0.6151    0.8852 H       1  LIG1        0.0410
     31 C          -1.9823   -2.5352   -0.0300 C.3     1  LIG1        0.0158
     32 H          -3.0668   -2.5683    0.1502 H       1  LIG1        0.0365
     33 C          -1.4978   -3.9903    0.1912 C.3     1  LIG1        0.0526
     34 C          -0.0071   -4.2633    0.1387 C.2     1  LIG1        0.3053
     35 O           0.4589   -4.5744   -1.0906 O.3     1  LIG1       -0.4806
     36 O           0.7213   -4.2464    1.1205 O.2     1  LIG1       -0.2510
     37 H          -5.6220   -1.7537   -3.2313 H       1  LIG1        0.0661
     38 H          -4.3109   -0.6337   -3.7440 H       1  LIG1        0.0661
     39 H          -5.2887   -0.2692   -2.3182 H       1  LIG1        0.0661
     40 H          -0.1815   -1.4368   -2.7806 H       1  LIG1        0.1029
     41 H           4.1538    0.6670    1.9484 H       1  LIG1        0.0584
     42 H           3.3782    1.9886    2.8212 H       1  LIG1        0.0584
     43 H           5.6300    2.2240    2.6689 H       1  LIG1        0.2095
     44 H           4.4630    4.1367    1.1251 H       1  LIG1        0.2100
     45 H           2.0123    5.6721   -0.1859 H       1  LIG1        0.2100
     46 H          -0.5008    3.9393   -1.7254 H       1  LIG1        0.2101
     47 H          -0.5317   -2.5408    2.6381 H       1  LIG1        0.0571
     48 H          -2.9026   -0.6699    3.2174 H       1  LIG1        0.0532
     49 H          -1.9434   -1.7140    4.3996 H       1  LIG1        0.0532
     50 H          -1.8543   -4.3587    1.1613 H       1  LIG1        0.0384
     51 H          -1.9750   -4.6590   -0.5395 H       1  LIG1        0.0384
     52 H          -0.1963   -4.5100   -1.8113 H       1  LIG1        0.2951
@<TRIPOS>BOND
     1     1     2    2
     2     2     3    1
     3     3     4    1
     4     2     5    1
     5     5     6    2
     6     6     7    1
     7     7     8    1
     8    11    13    1
     9    13    14    1
    10    14    15    1
    11    14    16    1
    12    16    17    1
    13    14    18    1
    14    18    21    1
    15    21    22    1
    16    21    23    1
    17    21    24    1
    18    11    24    1
    19     8    27    1
    20    27    28    1
    21    28    29    2
    22    27    30    1
    23    27    31    1
    24     5    31    1
    25    33    34    1
    26    34    35    1
    27    34    36    2
    28    11    12    1
    29    11    10    1
    30     8    10    1
    31     8     9    1
    32    18    20    1
    33    18    19    1
    34    24    26    1
    35    24    25    1
    36    31    33    1
    37    31    32    1
    38     4    37    1
    39     4    38    1
    40     4    39    1
    41     6    40    1
    42    16    41    1
    43    16    42    1
    44    17    43    1
    45    20    44    1
    46    23    45    1
    47    26    46    1
    48    28    47    1
    49    29    48    1
    50    29    49    1
    51    33    50    1
    52    33    51    1
    53    35    52    1
