REMARK  Name = NuBBE_609
REMARK  10 active torsions:
REMARK  status: ('A' for Active; 'I' for Inactive)
REMARK    1  A    between atoms: C_3  and  C_48
REMARK    2  A    between atoms: C_6  and  C_10
REMARK    3  A    between atoms: C_10  and  C_11
REMARK    4  A    between atoms: C_20  and  O_22
REMARK    5  A    between atoms: O_22  and  C_23
REMARK    6  A    between atoms: C_23  and  C_24
REMARK    7  A    between atoms: C_30  and  O_31
REMARK    8  A    between atoms: C_30  and  C_45
REMARK    9  A    between atoms: C_33  and  C_43
REMARK   10  A    between atoms: C_40  and  O_42
REMARK                            x       y       z     vdW  Elec       q    Type
REMARK                         _______ _______ _______ _____ _____    ______ ____
ROOT
ATOM      1  C   LIG A   1       3.894  -2.371   0.247  0.00  0.00    +0.010 C 
ATOM      2  C   LIG A   1       2.601  -2.117   0.530  0.00  0.00    -0.045 C 
ATOM      3  C   LIG A   1       2.055  -1.468   1.796  0.00  0.00    +0.020 C 
ATOM      4  C   LIG A   1       1.034  -0.293   1.540  0.00  0.00    +0.036 C 
ATOM      5  C   LIG A   1      -0.110  -0.220   2.619  0.00  0.00    +0.082 C 
ATOM      6  N   LIG A   1      -1.150  -0.990   1.996  0.00  0.00    -0.311 N 
ATOM      7  H   LIG A   1      -1.989  -1.315   2.462  0.00  0.00    +0.149 HD
ATOM      8  C   LIG A   1       0.206  -0.345   0.157  0.00  0.00    +0.100 C 
ATOM      9  C   LIG A   1      -1.042  -1.088   0.627  0.00  0.00    +0.224 C 
ATOM     10  O   LIG A   1      -1.855  -1.651  -0.073  0.00  0.00    -0.275 OA
ATOM     11  C   LIG A   1      -0.186   1.097  -0.394  0.00  0.00    +0.224 C 
ATOM     12  C   LIG A   1      -1.529   1.196  -1.096  0.00  0.00    +0.192 C 
ATOM     13  C   LIG A   1      -1.923   1.409  -2.584  0.00  0.00    +0.190 C 
ATOM     14  C   LIG A   1      -1.104   1.503  -3.870  0.00  0.00    +0.149 C 
ATOM     15  C   LIG A   1      -1.344   0.225  -4.740  0.00  0.00    +0.170 C 
ATOM     16  C   LIG A   1      -0.217  -0.425  -5.548  0.00  0.00    +0.059 C 
ATOM     17  C   LIG A   1       0.319  -1.633  -4.774  0.00  0.00    +0.037 C 
ATOM     18  C   LIG A   1       0.932  -1.277  -3.453  0.00  0.00    -0.030 C 
ATOM     19  C   LIG A   1       0.275  -1.365  -2.283  0.00  0.00    -0.024 C 
ATOM     20  C   LIG A   1       0.970  -1.119  -0.960  0.00  0.00    +0.063 C 
ATOM     21  C   LIG A   1       1.547  -2.460  -0.478  0.00  0.00    +0.148 C 
ATOM     22  C   LIG A   1       0.879   0.479  -6.096  0.00  0.00    +0.016 C 
ATOM     23  O   LIG A   1      -2.460  -0.314  -4.764  0.00  0.00    -0.294 OA
ATOM     24  C   LIG A   1      -1.653   2.661  -4.724  0.00  0.00    +0.052 C 
ATOM     25  O   LIG A   1      -1.734   2.501  -1.678  0.00  0.00    -0.361 OA
ATOM     26  C   LIG A   1       3.194  -0.972   2.706  0.00  0.00    +0.013 C 
ENDROOT
BRANCH  14  27
ATOM     27  O   LIG A   1       0.240   1.841  -3.594  0.00  0.00    -0.379 OA
ATOM     28  H   LIG A   1       0.618   1.143  -3.043  0.00  0.00    +0.211 HD
ENDBRANCH  14  27
BRANCH  21  29
ATOM     29  O   LIG A   1       0.591  -3.307   0.136  0.00  0.00    -0.387 OA
ATOM     30  H   LIG A   1      -0.174  -3.381  -0.465  0.00  0.00    +0.210 HD
ENDBRANCH  21  29
BRANCH   5  31
ATOM     31  C   LIG A   1       0.153  -0.656   4.084  0.00  0.00    +0.057 C 
BRANCH  31  32
ATOM     32  C   LIG A   1      -1.063  -0.489   4.989  0.00  0.00    -0.046 A 
ATOM     33  C   LIG A   1      -1.974  -1.542   5.178  0.00  0.00    +0.003 A 
ATOM     34  C   LIG A   1      -3.154  -1.344   5.903  0.00  0.00    +0.000 A 
ATOM     35  C   LIG A   1      -3.434  -0.098   6.458  0.00  0.00    +0.000 A 
ATOM     36  C   LIG A   1      -2.508   0.936   6.333  0.00  0.00    +0.000 A 
ATOM     37  C   LIG A   1      -1.325   0.739   5.613  0.00  0.00    +0.003 A 
ENDBRANCH  31  32
ENDBRANCH   5  31
BRANCH  11  38
ATOM     38  O   LIG A   1      -0.225   2.052   0.698  0.00  0.00    -0.458 OA
BRANCH  38  39
ATOM     39  C   LIG A   1       0.622   3.115   0.630  0.00  0.00    +0.304 C 
ATOM     40  C   LIG A   1       0.544   3.933   1.885  0.00  0.00    +0.136 C 
ATOM     41  O   LIG A   1       1.404   3.350  -0.278  0.00  0.00    -0.251 OA
ENDBRANCH  38  39
ENDBRANCH  11  38
TORSDOF 6
