REMARK  Name = NuBBE_123
REMARK  12 active torsions:
REMARK  status: ('A' for Active; 'I' for Inactive)
REMARK    1  A    between atoms: C_4  and  O_5
REMARK    2  A    between atoms: C_7  and  O_8
REMARK    3  A    between atoms: C_12  and  C_13
REMARK    4  A    between atoms: C_16  and  O_17
REMARK    5  A    between atoms: C_18  and  O_19
REMARK    6  A    between atoms: C_21  and  O_22
REMARK    7  A    between atoms: O_22  and  C_23
REMARK    8  A    between atoms: C_25  and  O_27
REMARK    9  A    between atoms: C_28  and  O_30
REMARK   10  A    between atoms: C_31  and  O_33
REMARK   11  A    between atoms: C_34  and  C_36
REMARK   12  A    between atoms: C_36  and  O_37
REMARK                            x       y       z     vdW  Elec       q    Type
REMARK                         _______ _______ _______ _____ _____    ______ ____
ROOT
ATOM      1  O   LIG A   1      -0.465  -0.749  -2.223  0.00  0.00    -0.283 OA
ATOM      2  C   LIG A   1       0.327  -0.783  -1.301  0.00  0.00    +0.238 A 
ATOM      3  C   LIG A   1       0.890  -2.069  -0.938  0.00  0.00    +0.109 A 
ATOM      4  C   LIG A   1       0.221  -3.263  -1.206  0.00  0.00    +0.135 A 
ATOM      5  C   LIG A   1       0.842  -4.474  -0.930  0.00  0.00    +0.091 A 
ATOM      6  C   LIG A   1       2.142  -4.464  -0.428  0.00  0.00    +0.124 A 
ATOM      7  C   LIG A   1       2.805  -3.268  -0.145  0.00  0.00    +0.092 A 
ATOM      8  C   LIG A   1       2.154  -2.060  -0.374  0.00  0.00    +0.146 A 
ATOM      9  O   LIG A   1       2.783  -0.888  -0.041  0.00  0.00    -0.451 OA
ATOM     10  C   LIG A   1       2.010   0.280   0.049  0.00  0.00    +0.181 A 
ATOM     11  C   LIG A   1       0.788   0.402  -0.522  0.00  0.00    +0.214 A 
ENDROOT
BRANCH  10  12
ATOM     12  C   LIG A   1       2.708   1.351   0.817  0.00  0.00    +0.025 A 
ATOM     13  C   LIG A   1       4.120   1.389   0.846  0.00  0.00    +0.015 A 
ATOM     14  C   LIG A   1       4.818   2.343   1.600  0.00  0.00    +0.050 A 
ATOM     15  C   LIG A   1       4.102   3.280   2.327  0.00  0.00    +0.158 A 
ATOM     16  C   LIG A   1       2.713   3.272   2.295  0.00  0.00    +0.159 A 
ATOM     17  C   LIG A   1       2.016   2.310   1.573  0.00  0.00    +0.060 A 
BRANCH  15  18
ATOM     18  O   LIG A   1       4.717   4.223   3.102  0.00  0.00    -0.503 OA
ATOM     19  H   LIG A   1       5.650   3.967   3.202  0.00  0.00    +0.292 HD
ENDBRANCH  15  18
BRANCH  16  20
ATOM     20  O   LIG A   1       2.010   4.219   2.985  0.00  0.00    -0.503 OA
ATOM     21  H   LIG A   1       2.693   4.820   3.343  0.00  0.00    +0.292 HD
ENDBRANCH  16  20
ENDBRANCH  10  12
BRANCH   4  22
ATOM     22  O   LIG A   1      -1.043  -3.311  -1.729  0.00  0.00    -0.506 OA
ATOM     23  H   LIG A   1      -1.309  -2.399  -1.988  0.00  0.00    +0.292 HD
ENDBRANCH   4  22
BRANCH   6  24
ATOM     24  O   LIG A   1       2.809  -5.630  -0.194  0.00  0.00    -0.506 OA
ATOM     25  H   LIG A   1       2.239  -6.372  -0.460  0.00  0.00    +0.292 HD
ENDBRANCH   6  24
BRANCH  11  26
ATOM     26  O   LIG A   1       0.011   1.550  -0.472  0.00  0.00    -0.453 OA
BRANCH  26  27
ATOM     27  C   LIG A   1      -1.425   1.363  -0.395  0.00  0.00    +0.340 C 
ATOM     28  C   LIG A   1      -2.074   1.478  -1.807  0.00  0.00    +0.214 C 
ATOM     29  C   LIG A   1      -3.338   0.595  -1.946  0.00  0.00    +0.180 C 
ATOM     30  C   LIG A   1      -4.093   0.503  -0.617  0.00  0.00    +0.177 C 
ATOM     31  C   LIG A   1      -3.193   0.079   0.566  0.00  0.00    +0.179 C 
ATOM     32  O   LIG A   1      -1.785   0.160   0.289  0.00  0.00    -0.331 OA
BRANCH  28  33
ATOM     33  O   LIG A   1      -2.408   2.852  -2.102  0.00  0.00    -0.383 OA
ATOM     34  H   LIG A   1      -3.076   3.138  -1.452  0.00  0.00    +0.210 HD
ENDBRANCH  28  33
BRANCH  29  35
ATOM     35  O   LIG A   1      -3.080  -0.728  -2.419  0.00  0.00    -0.386 OA
ATOM     36  H   LIG A   1      -2.531  -0.636  -3.224  0.00  0.00    +0.210 HD
ENDBRANCH  29  35
BRANCH  30  37
ATOM     37  O   LIG A   1      -4.630   1.807  -0.332  0.00  0.00    -0.387 OA
ATOM     38  H   LIG A   1      -5.494   1.853  -0.787  0.00  0.00    +0.210 HD
ENDBRANCH  30  37
BRANCH  31  39
ATOM     39  C   LIG A   1      -3.475  -1.370   0.991  0.00  0.00    +0.190 C 
BRANCH  39  40
ATOM     40  O   LIG A   1      -2.715  -1.711   2.154  0.00  0.00    -0.392 OA
ATOM     41  H   LIG A   1      -1.914  -1.155   2.139  0.00  0.00    +0.209 HD
ENDBRANCH  39  40
ENDBRANCH  31  39
ENDBRANCH  26  27
ENDBRANCH  11  26
TORSDOF 12
