REMARK  Name = NuBBE_1654
REMARK  6 active torsions:
REMARK  status: ('A' for Active; 'I' for Inactive)
REMARK    1  A    between atoms: O_1  and  C_2
REMARK    2  A    between atoms: O_1  and  C_7
REMARK    3  A    between atoms: C_2  and  C_4
REMARK    4  A    between atoms: C_4  and  C_6
REMARK    5  A    between atoms: C_11  and  C_20
REMARK    6  A    between atoms: C_17  and  C_19
REMARK                            x       y       z     vdW  Elec       q    Type
REMARK                         _______ _______ _______ _____ _____    ______ ____
ROOT
ATOM      1  C   LIG A   1      -0.831  -0.395   0.794  0.00  0.00    +0.211 C 
ATOM      2  C   LIG A   1       0.103   0.863   0.761  0.00  0.00    +0.111 C 
ATOM      3  C   LIG A   1       1.625   0.753   0.441  0.00  0.00    +0.192 C 
ATOM      4  C   LIG A   1       2.131   0.496  -1.029  0.00  0.00    +0.101 C 
ATOM      5  C   LIG A   1       2.839  -0.834  -1.415  0.00  0.00    +0.172 C 
ATOM      6  O   LIG A   1       1.875  -1.897  -1.420  0.00  0.00    -0.478 OA
ATOM      7  C   LIG A   1       1.974  -2.431  -0.135  0.00  0.00    +0.128 C 
ATOM      8  C   LIG A   1       3.192  -2.422   0.414  0.00  0.00    +0.096 C 
ATOM      9  C   LIG A   1       3.828  -1.388  -0.416  0.00  0.00    +0.203 C 
ATOM     10  O   LIG A   1       4.959  -0.980  -0.207  0.00  0.00    -0.288 OA
ATOM     11  C   LIG A   1       0.735  -2.334   0.640  0.00  0.00    -0.009 C 
ATOM     12  C   LIG A   1      -0.224  -1.560   0.074  0.00  0.00    +0.024 C 
ATOM     13  C   LIG A   1       0.815  -2.608   2.122  0.00  0.00    +0.047 C 
ATOM     14  C   LIG A   1       3.450  -0.755  -2.810  0.00  0.00    +0.064 C 
ATOM     15  O   LIG A   1       2.033   2.133   0.710  0.00  0.00    -0.457 OA
ATOM     16  C   LIG A   1       1.041   2.982   0.307  0.00  0.00    +0.335 C 
ATOM     17  O   LIG A   1       1.129   4.193   0.206  0.00  0.00    -0.245 OA
ATOM     18  C   LIG A   1      -0.157   2.141   0.024  0.00  0.00    +0.040 C 
ATOM     19  C   LIG A   1      -1.107   2.574  -0.811  0.00  0.00    +0.020 C 
ENDROOT
BRANCH   1  20
ATOM     20  O   LIG A   1      -2.117  -0.170   0.208  0.00  0.00    -0.453 OA
BRANCH  20  21
ATOM     21  C   LIG A   1      -3.059   0.383   1.015  0.00  0.00    +0.335 C 
ATOM     22  O   LIG A   1      -2.889   0.736   2.171  0.00  0.00    -0.245 OA
BRANCH  21  23
ATOM     23  C   LIG A   1      -4.331   0.576   0.260  0.00  0.00    +0.026 C 
ATOM     24  C   LIG A   1      -4.598  -0.141  -0.845  0.00  0.00    +0.019 C 
ATOM     25  C   LIG A   1      -5.279   1.598   0.808  0.00  0.00    +0.051 C 
ENDBRANCH  21  23
ENDBRANCH  20  21
ENDBRANCH   1  20
TORSDOF 3
