@<TRIPOS>MOLECULE
NuBBE_1637
 69 70 0 0 0
SMALL
GASTEIGER

@<TRIPOS>ATOM
      1 C           2.9117   -2.9652   -4.8226 C.3     1  LIG1       -0.0361
      2 C           3.3463   -2.8076   -3.3934 C.ar    1  LIG1       -0.0050
      3 C           3.1489   -1.6277   -2.6334 C.ar    1  LIG1        0.1276
      4 C           3.6812   -1.5257   -1.3346 C.ar    1  LIG1       -0.0018
      5 C           3.5895   -0.2206   -0.5711 C.3     1  LIG1       -0.0205
      6 C           3.1921    0.9270   -1.4804 C.3     1  LIG1       -0.0091
      7 C           2.0415    0.5208   -2.4243 C.3     1  LIG1        0.1085
      8 O           2.4311   -0.6149   -3.2287 O.3     1  LIG1       -0.4854
      9 C           0.6681    0.2545   -1.6631 C.3     1  LIG1       -0.0097
     10 C          -0.5227   -0.2724   -2.5139 C.3     1  LIG1       -0.0309
     11 C          -1.9060   -0.5888   -1.9525 C.2     1  LIG1       -0.0849
     12 C          -2.6145   -0.2539   -0.8622 C.2     1  LIG1       -0.0762
     13 C          -4.0830   -0.7682   -0.6698 C.3     1  LIG1       -0.0286
     14 C          -4.9366   -0.2944    0.5523 C.3     1  LIG1       -0.0303
     15 C          -4.3390   -0.7300    1.8757 C.2     1  LIG1       -0.0738
     16 C          -3.7173    0.0619    2.7409 C.2     1  LIG1        0.0328
     17 C          -2.7542   -0.4491    3.8852 C.3     1  LIG1       -0.0178
     18 C          -1.7948    0.5175    4.7508 C.3     1  LIG1       -0.0303
     19 C          -0.5720    1.2025    4.0839 C.2     1  LIG1       -0.0850
     20 C          -0.4229    2.4615    3.5629 C.2     1  LIG1       -0.0796
     21 C          -1.3923    3.6583    3.4720 C.3     1  LIG1       -0.0440
     22 C           0.7821    2.7983    2.7365 C.3     1  LIG1       -0.0440
     23 C          -3.7831    1.4813    2.3554 C.2     1  LIG1        0.3325
     24 O          -4.1918    2.2391    1.5993 O.2     1  LIG1       -0.2455
     25 O          -2.8636    1.9438    3.1473 O.3     1  LIG1       -0.4773
     26 C          -2.1622    0.6569    0.1959 C.3     1  LIG1       -0.0438
     27 C           1.9437    1.7284   -3.3821 C.3     1  LIG1       -0.0249
     28 C           4.3141   -2.6643   -0.7764 C.ar    1  LIG1       -0.0135
     29 C           4.5009   -3.8241   -1.5386 C.ar    1  LIG1        0.1176
     30 C           4.0326   -3.8970   -2.8369 C.ar    1  LIG1       -0.0138
     31 O           5.1619   -4.9254   -1.0754 O.3     1  LIG1       -0.5067
     32 H           3.7951   -2.9641   -5.4718 H       1  LIG1        0.0279
     33 H           2.2355   -2.1735   -5.1472 H       1  LIG1        0.0279
     34 H           2.3926   -3.9226   -4.9539 H       1  LIG1        0.0279
     35 H           4.5548    0.0414   -0.1180 H       1  LIG1        0.0316
     36 H           2.8524   -0.2787    0.2355 H       1  LIG1        0.0316
     37 H           4.0754    1.2250   -2.0708 H       1  LIG1        0.0307
     38 H           2.9180    1.8130   -0.8906 H       1  LIG1        0.0307
     39 H           0.3718    1.1865   -1.1727 H       1  LIG1        0.0306
     40 H           0.8424   -0.4839   -0.8716 H       1  LIG1        0.0306
     41 H          -0.2092   -1.2208   -2.9674 H       1  LIG1        0.0309
     42 H          -0.7016    0.4230   -3.3403 H       1  LIG1        0.0309
     43 H          -2.4588   -1.2482   -2.6216 H       1  LIG1        0.0572
     44 H          -4.0429   -1.8604   -0.6284 H       1  LIG1        0.0313
     45 H          -4.6576   -0.4835   -1.5619 H       1  LIG1        0.0313
     46 H          -5.9520   -0.6939    0.5261 H       1  LIG1        0.0311
     47 H          -5.1105    0.7824    0.4538 H       1  LIG1        0.0311
     48 H          -4.3410   -1.7965    2.0945 H       1  LIG1        0.0577
     49 H          -2.1281   -1.2709    3.5031 H       1  LIG1        0.0318
     50 H          -3.4409   -0.8958    4.6135 H       1  LIG1        0.0318
     51 H          -1.4133   -0.0836    5.5931 H       1  LIG1        0.0311
     52 H          -2.4226    1.2751    5.2304 H       1  LIG1        0.0311
     53 H           0.2850    0.5207    4.0187 H       1  LIG1        0.0572
     54 H          -2.3097    3.5374    4.0660 H       1  LIG1        0.0274
     55 H          -1.6063    3.7998    2.3851 H       1  LIG1        0.0274
     56 H          -1.0992    4.6338    3.8361 H       1  LIG1        0.0274
     57 H           1.5433    2.0194    2.7551 H       1  LIG1        0.0274
     58 H           1.1836    3.7327    3.1304 H       1  LIG1        0.0274
     59 H           0.4939    2.9603    1.6861 H       1  LIG1        0.0274
     60 H          -2.9923    2.7695    2.6395 H       1  LIG1        0.2954
     61 H          -1.4008    1.4285    0.1345 H       1  LIG1        0.0274
     62 H          -1.9679    0.0645    1.0908 H       1  LIG1        0.0274
     63 H          -3.0409    1.2753    0.2273 H       1  LIG1        0.0274
     64 H           2.8340    1.7713   -4.0265 H       1  LIG1        0.0268
     65 H           1.9063    2.6752   -2.8270 H       1  LIG1        0.0268
     66 H           1.0781    1.6808   -4.0425 H       1  LIG1        0.0268
     67 H           4.6704   -2.6483    0.2490 H       1  LIG1        0.0658
     68 H           4.1937   -4.8063   -3.4164 H       1  LIG1        0.0658
     69 H           5.3796   -4.8070   -0.1387 H       1  LIG1        0.2921
@<TRIPOS>BOND
     1     1     2    1
     2     2     3   ar
     3     3     4   ar
     4     4     5    1
     5     5     6    1
     6     6     7    1
     7     7     8    1
     8     3     8    1
     9     7     9    1
    10     9    10    1
    11    10    11    1
    12    11    12    2
    13    12    13    1
    14    13    14    1
    15    14    15    1
    16    15    16    2
    17    16    17    1
    18    17    18    1
    19    18    19    1
    20    19    20    2
    21    20    21    1
    22    20    22    1
    23    16    23    1
    24    23    24    2
    25    23    25    1
    26    12    26    1
    27     7    27    1
    28     4    28   ar
    29    28    29   ar
    30    29    30   ar
    31     2    30   ar
    32    29    31    1
    33     1    32    1
    34     1    33    1
    35     1    34    1
    36     5    35    1
    37     5    36    1
    38     6    37    1
    39     6    38    1
    40     9    39    1
    41     9    40    1
    42    10    41    1
    43    10    42    1
    44    11    43    1
    45    13    44    1
    46    13    45    1
    47    14    46    1
    48    14    47    1
    49    15    48    1
    50    17    49    1
    51    17    50    1
    52    18    51    1
    53    18    52    1
    54    19    53    1
    55    21    54    1
    56    21    55    1
    57    21    56    1
    58    22    57    1
    59    22    58    1
    60    22    59    1
    61    25    60    1
    62    26    61    1
    63    26    62    1
    64    26    63    1
    65    27    64    1
    66    27    65    1
    67    27    66    1
    68    28    67    1
    69    30    68    1
    70    31    69    1
