REMARK  Name = NuBBE_1667
REMARK  15 active torsions:
REMARK  status: ('A' for Active; 'I' for Inactive)
REMARK    1  A    between atoms: C_2  and  C_3
REMARK    2  A    between atoms: C_2  and  C_13
REMARK    3  A    between atoms: C_6  and  O_7
REMARK    4  A    between atoms: O_7  and  C_8
REMARK    5  A    between atoms: C_9  and  O_10
REMARK    6  A    between atoms: O_10  and  C_11
REMARK    7  A    between atoms: C_13  and  C_15
REMARK    8  A    between atoms: C_13  and  C_16
REMARK    9  A    between atoms: C_16  and  C_18
REMARK   10  A    between atoms: C_16  and  C_19
REMARK   11  A    between atoms: C_19  and  C_20
REMARK   12  A    between atoms: C_23  and  O_24
REMARK   13  A    between atoms: O_24  and  C_25
REMARK   14  A    between atoms: C_26  and  O_27
REMARK   15  A    between atoms: O_27  and  C_28
REMARK                            x       y       z     vdW  Elec       q    Type
REMARK                         _______ _______ _______ _____ _____    ______ ____
ROOT
ATOM      1  C   LIG A   1      -1.430  -1.432  -1.589  0.00  0.00    +0.060 C 
ATOM      2  C   LIG A   1      -1.343  -2.920  -1.951  0.00  0.00    +0.016 C 
ENDROOT
BRANCH   1   4
ATOM      3  O   LIG A   1       0.537  -1.169  -2.937  0.00  0.00    -0.292 OA
ATOM      4  C   LIG A   1      -0.475  -0.652  -2.502  0.00  0.00    +0.166 C 
BRANCH   4   5
ATOM      5  C   LIG A   1      -0.731   0.790  -2.863  0.00  0.00    +0.021 A 
ATOM      6  C   LIG A   1      -1.985   1.363  -2.950  0.00  0.00    +0.015 A 
ATOM      7  C   LIG A   1      -2.113   2.718  -3.307  0.00  0.00    +0.050 A 
ATOM      8  C   LIG A   1      -0.984   3.519  -3.551  0.00  0.00    +0.162 A 
ATOM      9  C   LIG A   1       0.284   2.927  -3.493  0.00  0.00    +0.162 A 
ATOM     10  C   LIG A   1       0.400   1.565  -3.157  0.00  0.00    +0.060 A 
BRANCH   8  11
ATOM     11  O   LIG A   1      -1.083   4.841  -3.892  0.00  0.00    -0.491 OA
ATOM     12  C   LIG A   1      -2.172   5.573  -3.339  0.00  0.00    +0.277 C 
ENDBRANCH   8  11
BRANCH   9  13
ATOM     13  O   LIG A   1       1.507   3.524  -3.661  0.00  0.00    -0.491 OA
ATOM     14  C   LIG A   1       1.568   4.672  -4.493  0.00  0.00    +0.277 C 
ENDBRANCH   9  13
ENDBRANCH   4   5
ENDBRANCH   1   4
BRANCH   1  15
ATOM     15  C   LIG A   1      -1.130  -1.160  -0.084  0.00  0.00    +0.001 C 
ATOM     16  C   LIG A   1      -2.187  -1.857   0.798  0.00  0.00    +0.008 C 
BRANCH  15  17
ATOM     17  C   LIG A   1       0.308  -1.577   0.347  0.00  0.00    +0.039 C 
BRANCH  17  18
ATOM     18  C   LIG A   1       0.663  -1.356   1.807  0.00  0.00    -0.043 A 
ATOM     19  C   LIG A   1       0.172  -0.270   2.533  0.00  0.00    +0.007 A 
ATOM     20  C   LIG A   1       0.454  -0.142   3.891  0.00  0.00    +0.050 A 
ATOM     21  C   LIG A   1       1.242  -1.084   4.561  0.00  0.00    +0.162 A 
ATOM     22  C   LIG A   1       1.765  -2.172   3.847  0.00  0.00    +0.162 A 
ATOM     23  C   LIG A   1       1.508  -2.269   2.466  0.00  0.00    +0.053 A 
BRANCH  21  24
ATOM     24  O   LIG A   1       1.299  -0.856   5.910  0.00  0.00    -0.491 OA
ATOM     25  C   LIG A   1       2.488  -1.223   6.592  0.00  0.00    +0.277 C 
ENDBRANCH  21  24
BRANCH  22  26
ATOM     26  O   LIG A   1       2.492  -3.117   4.522  0.00  0.00    -0.491 OA
ATOM     27  C   LIG A   1       2.436  -4.443   4.001  0.00  0.00    +0.277 C 
ENDBRANCH  22  26
ENDBRANCH  17  18
ENDBRANCH  15  17
ENDBRANCH   1  15
TORSDOF 9
