REMARK  Name = NuBBE_218
REMARK  8 active torsions:
REMARK  status: ('A' for Active; 'I' for Inactive)
REMARK    1  A    between atoms: O_1  and  C_2
REMARK    2  A    between atoms: C_7  and  C_8
REMARK    3  A    between atoms: C_9  and  C_18
REMARK    4  A    between atoms: C_12  and  O_17
REMARK    5  A    between atoms: C_14  and  C_16
REMARK    6  A    between atoms: C_18  and  C_20
REMARK    7  A    between atoms: C_18  and  C_22
REMARK    8  A    between atoms: C_20  and  O_21
REMARK                            x       y       z     vdW  Elec       q    Type
REMARK                         _______ _______ _______ _____ _____    ______ ____
ROOT
ATOM      1  C   LIG A   1      -2.978  -0.506  -0.917  0.00  0.00    +0.120 A 
ATOM      2  C   LIG A   1      -2.295   0.711  -0.971  0.00  0.00    +0.050 A 
ATOM      3  C   LIG A   1      -0.904   0.766  -0.752  0.00  0.00    -0.035 A 
ATOM      4  C   LIG A   1      -0.215  -0.428  -0.482  0.00  0.00    -0.040 A 
ATOM      5  C   LIG A   1      -0.918  -1.649  -0.479  0.00  0.00    +0.011 A 
ATOM      6  C   LIG A   1      -2.301  -1.698  -0.689  0.00  0.00    -0.009 A 
ATOM      7  C   LIG A   1      -3.029  -3.010  -0.642  0.00  0.00    +0.048 C 
ATOM      8  C   LIG A   1       1.280  -0.442  -0.193  0.00  0.00    +0.027 C 
ATOM      9  C   LIG A   1       1.929   0.647  -1.065  0.00  0.00    +0.040 C 
ATOM     10  C   LIG A   1       1.356   2.033  -0.782  0.00  0.00    +0.122 C 
ATOM     11  C   LIG A   1      -0.184   2.097  -0.916  0.00  0.00    +0.045 C 
ATOM     12  C   LIG A   1      -0.726   3.172   0.039  0.00  0.00    +0.015 C 
ENDROOT
BRANCH   1  13
ATOM     13  O   LIG A   1      -4.332  -0.541  -1.101  0.00  0.00    -0.506 OA
ATOM     14  H   LIG A   1      -4.655   0.366  -1.211  0.00  0.00    +0.292 HD
ENDBRANCH   1  13
BRANCH  10  15
ATOM     15  O   LIG A   1       1.925   2.969  -1.708  0.00  0.00    -0.391 OA
ATOM     16  H   LIG A   1       2.892   2.882  -1.666  0.00  0.00    +0.210 HD
ENDBRANCH  10  15
BRANCH   8  17
ATOM     17  C   LIG A   1       1.573  -0.319   1.341  0.00  0.00    +0.019 C 
ATOM     18  C   LIG A   1       3.080  -0.266   1.636  0.00  0.00    +0.010 C 
BRANCH  17  19
ATOM     19  C   LIG A   1       0.968  -1.475   2.166  0.00  0.00    +0.159 C 
BRANCH  19  20
ATOM     20  O   LIG A   1       1.484  -2.727   1.728  0.00  0.00    -0.395 OA
ATOM     21  H   LIG A   1       1.116  -3.408   2.317  0.00  0.00    +0.209 HD
ENDBRANCH  19  20
ENDBRANCH  17  19
ENDBRANCH   8  17
TORSDOF 5
