REMARK  Name = NuBBE_182
REMARK  17 active torsions:
REMARK  status: ('A' for Active; 'I' for Inactive)
REMARK    1  A    between atoms: O_1  and  C_2
REMARK    2  A    between atoms: C_4  and  C_5
REMARK    3  A    between atoms: C_8  and  C_9
REMARK    4  A    between atoms: C_8  and  C_27
REMARK    5  A    between atoms: C_9  and  C_10
REMARK    6  A    between atoms: C_10  and  C_11
REMARK    7  A    between atoms: C_12  and  C_13
REMARK    8  A    between atoms: C_12  and  C_14
REMARK    9  A    between atoms: C_14  and  C_15
REMARK   10  A    between atoms: C_15  and  C_16
REMARK   11  A    between atoms: C_17  and  C_18
REMARK   12  A    between atoms: C_17  and  C_21
REMARK   13  A    between atoms: C_18  and  O_19
REMARK   14  A    between atoms: C_21  and  C_22
REMARK   15  A    between atoms: C_22  and  C_23
REMARK   16  A    between atoms: C_24  and  C_25
REMARK   17  A    between atoms: C_24  and  C_26
REMARK                            x       y       z     vdW  Elec       q    Type
REMARK                         _______ _______ _______ _____ _____    ______ ____
ROOT
ATOM      1  C   LIG A   1      -0.571   2.816  -1.376  0.00  0.00    -0.028 C 
ATOM      2  C   LIG A   1       0.579   2.664  -2.054  0.00  0.00    -0.076 C 
ATOM      3  C   LIG A   1       0.664   2.647  -3.543  0.00  0.00    +0.038 C 
ENDROOT
BRANCH   1   4
ATOM      4  C   LIG A   1      -2.009   2.912  -1.819  0.00  0.00    +0.031 C 
BRANCH   4   5
ATOM      5  C   LIG A   1      -2.942   3.693  -0.847  0.00  0.00    +0.056 C 
BRANCH   5  12
ATOM      6  C   LIG A   1      -1.590  -1.619   0.344  0.00  0.00    +0.118 A 
ATOM      7  C   LIG A   1      -2.847  -1.639  -0.198  0.00  0.00    +0.052 A 
ATOM      8  C   LIG A   1      -3.623  -0.501  -0.097  0.00  0.00    -0.005 A 
ATOM      9  C   LIG A   1      -5.061  -0.638  -0.450  0.00  0.00    +0.048 C 
ATOM     10  C   LIG A   1      -3.078   0.684   0.421  0.00  0.00    +0.132 A 
ATOM     11  O   LIG A   1      -3.874   1.793   0.390  0.00  0.00    -0.481 OA
ATOM     12  C   LIG A   1      -3.226   3.071   0.559  0.00  0.00    +0.127 C 
ATOM     13  C   LIG A   1      -4.271   3.903   1.316  0.00  0.00    +0.060 C 
ATOM     14  C   LIG A   1      -1.988   3.041   1.427  0.00  0.00    +0.021 C 
ATOM     15  C   LIG A   1      -1.290   1.914   1.614  0.00  0.00    +0.011 C 
ATOM     16  C   LIG A   1      -1.792   0.706   0.960  0.00  0.00    +0.020 A 
ATOM     17  C   LIG A   1      -1.036  -0.458   0.896  0.00  0.00    +0.057 A 
BRANCH   6  18
ATOM     18  O   LIG A   1      -0.978  -2.832   0.381  0.00  0.00    -0.507 OA
ATOM     19  H   LIG A   1      -1.116  -3.252  -0.490  0.00  0.00    +0.292 HD
ENDBRANCH   6  18
ENDBRANCH   5  12
ENDBRANCH   4   5
ENDBRANCH   1   4
BRANCH   2  20
ATOM     20  C   LIG A   1       1.889   2.563  -1.271  0.00  0.00    +0.034 C 
BRANCH  20  21
ATOM     21  C   LIG A   1       2.753   1.328  -1.544  0.00  0.00    +0.032 C 
BRANCH  21  22
ATOM     22  C   LIG A   1       2.168   0.013  -1.147  0.00  0.00    -0.016 C 
ATOM     23  C   LIG A   1       2.321  -0.732  -0.064  0.00  0.00    +0.033 C 
BRANCH  23  24
ATOM     24  C   LIG A   1       2.923  -0.247   1.102  0.00  0.00    +0.333 C 
ATOM     25  O   LIG A   1       3.966   0.358   1.123  0.00  0.00    -0.245 OA
BRANCH  24  26
ATOM     26  O   LIG A   1       2.423  -0.497   2.329  0.00  0.00    -0.477 OA
ATOM     27  H   LIG A   1       3.126  -0.387   2.985  0.00  0.00    +0.295 HD
ENDBRANCH  24  26
ENDBRANCH  23  24
BRANCH  23  28
ATOM     28  C   LIG A   1       1.670  -2.075   0.009  0.00  0.00    +0.046 C 
BRANCH  28  29
ATOM     29  C   LIG A   1       1.580  -2.881   1.327  0.00  0.00    +0.032 C 
BRANCH  29  30
ATOM     30  C   LIG A   1       2.951  -3.307   1.734  0.00  0.00    -0.028 C 
ATOM     31  C   LIG A   1       3.570  -4.430   1.357  0.00  0.00    -0.080 C 
ATOM     32  C   LIG A   1       2.937  -5.521   0.544  0.00  0.00    +0.038 C 
ATOM     33  C   LIG A   1       5.009  -4.611   1.732  0.00  0.00    +0.038 C 
ENDBRANCH  29  30
ENDBRANCH  28  29
ENDBRANCH  23  28
ENDBRANCH  21  22
ENDBRANCH  20  21
ENDBRANCH   2  20
TORSDOF 12
