REMARK  Name = NuBBE_1035
REMARK  9 active torsions:
REMARK  status: ('A' for Active; 'I' for Inactive)
REMARK    1  A    between atoms: C_5  and  C_6
REMARK    2  A    between atoms: C_10  and  C_11
REMARK    3  A    between atoms: C_17  and  C_18
REMARK    4  A    between atoms: C_21  and  C_22
REMARK    5  A    between atoms: C_22  and  O_23
REMARK    6  A    between atoms: C_27  and  C_29
REMARK    7  A    between atoms: C_30  and  C_32
REMARK    8  A    between atoms: C_36  and  C_37
REMARK    9  A    between atoms: C_36  and  C_38
REMARK                            x       y       z     vdW  Elec       q    Type
REMARK                         _______ _______ _______ _____ _____    ______ ____
ROOT
ATOM      1  O   LIG A   1      -6.182  -1.168  -2.909  0.00  0.00    -0.297 OA
ATOM      2  C   LIG A   1      -5.016  -1.334  -2.545  0.00  0.00    +0.139 C 
ATOM      3  C   LIG A   1      -4.622  -2.579  -1.760  0.00  0.00    +0.075 C 
ATOM      4  C   LIG A   1      -3.745  -2.309  -0.525  0.00  0.00    +0.015 C 
ATOM      5  C   LIG A   1      -3.043  -0.914  -0.527  0.00  0.00    -0.024 C 
ATOM      6  C   LIG A   1      -4.111   0.053   0.064  0.00  0.00    +0.012 C 
ATOM      7  C   LIG A   1      -2.674  -0.619  -2.022  0.00  0.00    +0.008 C 
ATOM      8  C   LIG A   1      -1.504   0.355  -2.118  0.00  0.00    +0.005 C 
ATOM      9  C   LIG A   1      -0.206  -0.282  -1.575  0.00  0.00    +0.008 C 
ATOM     10  C   LIG A   1      -0.373  -1.253  -0.348  0.00  0.00    -0.019 C 
ATOM     11  C   LIG A   1      -0.408  -2.720  -0.874  0.00  0.00    +0.012 C 
ATOM     12  C   LIG A   1      -1.724  -0.906   0.401  0.00  0.00    +0.006 C 
ATOM     13  C   LIG A   1      -1.570   0.417   1.223  0.00  0.00    +0.031 C 
ATOM     14  C   LIG A   1      -0.199   0.949   1.499  0.00  0.00    -0.026 C 
ATOM     15  C   LIG A   1       0.952   0.317   1.214  0.00  0.00    -0.063 C 
ATOM     16  C   LIG A   1       0.884  -1.117   0.675  0.00  0.00    -0.005 C 
ATOM     17  C   LIG A   1       0.709  -2.082   1.886  0.00  0.00    +0.016 C 
ATOM     18  C   LIG A   1       2.238  -1.466  -0.011  0.00  0.00    +0.012 C 
ATOM     19  C   LIG A   1       3.476  -1.245   0.873  0.00  0.00    +0.019 C 
ATOM     20  C   LIG A   1       3.524   0.130   1.604  0.00  0.00    +0.074 C 
ATOM     21  C   LIG A   1       2.318   1.028   1.191  0.00  0.00    +0.035 C 
ATOM     22  C   LIG A   1       2.409   2.502   1.724  0.00  0.00    -0.003 C 
ATOM     23  C   LIG A   1       2.156   2.679   3.229  0.00  0.00    +0.008 C 
ATOM     24  C   LIG A   1       3.763   3.165   1.350  0.00  0.00    -0.011 C 
ATOM     25  C   LIG A   1       3.814   3.559  -0.134  0.00  0.00    +0.008 C 
ATOM     26  C   LIG A   1       4.956   2.277   1.727  0.00  0.00    +0.004 C 
ATOM     27  C   LIG A   1       4.838   0.853   1.187  0.00  0.00    +0.019 C 
ATOM     28  C   LIG A   1      -3.891  -0.371  -2.964  0.00  0.00    +0.027 C 
ATOM     29  C   LIG A   1      -4.400   1.079  -2.981  0.00  0.00    +0.019 C 
ATOM     30  C   LIG A   1      -3.515  -0.743  -4.416  0.00  0.00    +0.019 C 
ENDROOT
BRANCH  20  31
ATOM     31  C   LIG A   1       3.543  -0.170   3.108  0.00  0.00    +0.311 C 
ATOM     32  O   LIG A   1       2.598  -0.193   3.879  0.00  0.00    -0.250 OA
BRANCH  31  33
ATOM     33  O   LIG A   1       4.760  -0.522   3.574  0.00  0.00    -0.480 OA
ATOM     34  H   LIG A   1       4.593  -0.717   4.521  0.00  0.00    +0.295 HD
ENDBRANCH  31  33
ENDBRANCH  20  31
TORSDOF 2
