REMARK  Name = NuBBE_2024
REMARK  8 active torsions:
REMARK  status: ('A' for Active; 'I' for Inactive)
REMARK    1  A    between atoms: C_4  and  O_5
REMARK    2  A    between atoms: C_7  and  O_8
REMARK    3  A    between atoms: C_9  and  O_10
REMARK    4  A    between atoms: O_10  and  C_11
REMARK    5  A    between atoms: C_15  and  C_16
REMARK    6  A    between atoms: C_18  and  O_19
REMARK    7  A    between atoms: C_20  and  O_21
REMARK    8  A    between atoms: O_21  and  C_22
REMARK                            x       y       z     vdW  Elec       q    Type
REMARK                         _______ _______ _______ _____ _____    ______ ____
ROOT
ATOM      1  O   LIG A   1      -1.839  -0.862   0.151  0.00  0.00    -0.286 OA
ATOM      2  C   LIG A   1      -0.607  -0.820   0.108  0.00  0.00    +0.204 A 
ATOM      3  C   LIG A   1       0.140  -2.090   0.098  0.00  0.00    +0.110 A 
ATOM      4  C   LIG A   1      -0.521  -3.322   0.140  0.00  0.00    +0.135 A 
ATOM      5  C   LIG A   1       0.199  -4.511   0.137  0.00  0.00    +0.095 A 
ATOM      6  C   LIG A   1       1.595  -4.479   0.088  0.00  0.00    +0.166 A 
ATOM      7  C   LIG A   1       2.280  -3.254   0.046  0.00  0.00    +0.205 A 
ATOM      8  C   LIG A   1       1.531  -2.058   0.045  0.00  0.00    +0.187 A 
ATOM      9  O   LIG A   1       2.218  -0.866   0.001  0.00  0.00    -0.458 OA
ATOM     10  C   LIG A   1       1.503   0.308   0.019  0.00  0.00    +0.208 A 
ATOM     11  C   LIG A   1       0.167   0.456   0.073  0.00  0.00    +0.065 A 
ENDROOT
BRANCH  11  12
ATOM     12  C   LIG A   1      -0.473   1.803   0.078  0.00  0.00    -0.008 A 
ATOM     13  C   LIG A   1      -1.739   2.015  -0.497  0.00  0.00    +0.058 A 
ATOM     14  C   LIG A   1      -2.356   3.279  -0.484  0.00  0.00    +0.159 A 
ATOM     15  C   LIG A   1      -1.715   4.374   0.096  0.00  0.00    +0.161 A 
ATOM     16  C   LIG A   1      -0.464   4.173   0.682  0.00  0.00    +0.050 A 
ATOM     17  C   LIG A   1       0.150   2.912   0.673  0.00  0.00    +0.012 A 
BRANCH  14  18
ATOM     18  O   LIG A   1      -3.604   3.401  -1.031  0.00  0.00    -0.503 OA
ATOM     19  H   LIG A   1      -3.931   2.520  -1.276  0.00  0.00    +0.292 HD
ENDBRANCH  14  18
BRANCH  15  20
ATOM     20  O   LIG A   1      -2.186   5.653   0.215  0.00  0.00    -0.491 OA
ATOM     21  C   LIG A   1      -3.093   6.100  -0.785  0.00  0.00    +0.277 C 
ENDBRANCH  15  20
ENDBRANCH  11  12
BRANCH   4  22
ATOM     22  O   LIG A   1      -1.885  -3.442   0.182  0.00  0.00    -0.506 OA
ATOM     23  H   LIG A   1      -2.270  -2.536   0.188  0.00  0.00    +0.292 HD
ENDBRANCH   4  22
BRANCH   6  24
ATOM     24  O   LIG A   1       2.263  -5.672   0.055  0.00  0.00    -0.503 OA
ATOM     25  H   LIG A   1       1.623  -6.403   0.051  0.00  0.00    +0.292 HD
ENDBRANCH   6  24
BRANCH   7  26
ATOM     26  O   LIG A   1       3.639  -3.097  -0.067  0.00  0.00    -0.488 OA
ATOM     27  C   LIG A   1       4.462  -4.083   0.545  0.00  0.00    +0.277 C 
ENDBRANCH   7  26
TORSDOF 6
