@<TRIPOS>MOLECULE
NuBBE_1349
 83 87 0 0 0
SMALL
GASTEIGER

@<TRIPOS>ATOM
      1 C          -5.9143   -2.0735    0.0196 C.3     1  LIG1       -0.0572
      2 C          -4.9394   -1.5212    1.1057 C.3     1  LIG1       -0.0056
      3 C          -5.6277   -0.2258    1.6049 C.3     1  LIG1       -0.0572
      4 C          -4.8308   -2.5962    2.2288 C.3     1  LIG1        0.0606
      5 O          -4.6938   -3.9093    1.6678 O.3     1  LIG1       -0.3912
      6 H          -5.7691   -2.6279    2.7958 H       1  LIG1        0.0599
      7 C          -3.6722   -2.3995    3.2055 C.3     1  LIG1       -0.0258
      8 C          -2.3083   -2.1125    2.5339 C.3     1  LIG1       -0.0446
      9 C          -2.3387   -0.8820    1.5625 C.3     1  LIG1       -0.0226
     10 C          -2.5451    0.3257    2.5173 C.3     1  LIG1       -0.0589
     11 C          -3.4959   -1.2705    0.5136 C.3     1  LIG1       -0.0278
     12 C          -3.5209   -0.4979   -0.8081 C.3     1  LIG1       -0.0486
     13 C          -2.1284   -0.3274   -1.4204 C.3     1  LIG1       -0.0462
     14 C          -1.0885    0.3539   -0.4697 C.3     1  LIG1       -0.0169
     15 C          -1.7570    1.7084   -0.1255 C.3     1  LIG1       -0.0584
     16 C          -0.9558   -0.6796    0.7313 C.3     1  LIG1        0.0005
     17 C           0.3573   -0.4009    1.4973 C.3     1  LIG1        0.0775
     18 H           0.3208    0.6066    1.9295 H       1  LIG1        0.0641
     19 O           0.5565   -1.3014    2.5746 O.3     1  LIG1       -0.3874
     20 C           1.6129   -0.4884    0.6324 C.2     1  LIG1       -0.0555
     21 C           1.6677    0.0528   -0.6314 C.2     1  LIG1       -0.0606
     22 C           0.3793    0.6847   -1.1865 C.3     1  LIG1       -0.0026
     23 C           0.3210    0.1000   -2.6340 C.3     1  LIG1       -0.0552
     24 C           0.8042    2.2534   -1.0602 C.3     1  LIG1       -0.0167
     25 C           1.9728    2.5256   -0.0103 C.3     1  LIG1        0.0620
     26 H           1.7328    2.0365    0.9380 H       1  LIG1        0.0599
     27 O           2.0193    3.9066    0.3330 O.3     1  LIG1       -0.3912
     28 C           3.3381    1.9849   -0.5816 C.3     1  LIG1        0.0007
     29 C           3.9127    3.0930   -1.5134 C.3     1  LIG1       -0.0567
     30 C           2.9432    0.7014   -1.3627 C.3     1  LIG1       -0.0087
     31 C           4.1069   -0.0650   -2.0389 C.3     1  LIG1       -0.0342
     32 H           3.7666   -1.0911   -2.2182 H       1  LIG1        0.0307
     33 C           4.4348    0.5398   -3.4437 C.3     1  LIG1       -0.0616
     34 C           5.4116   -0.0311   -1.2227 C.3     1  LIG1       -0.0407
     35 H           6.0637    0.7816   -1.5780 H       1  LIG1        0.0301
     36 C           6.1934   -1.3300   -1.4626 C.3     1  LIG1       -0.0622
     37 C           5.1390    0.2610    0.2512 C.3     1  LIG1       -0.0496
     38 C           4.4222    1.6241    0.4786 C.3     1  LIG1       -0.0445
     39 H          -5.5238   -2.9690   -0.4731 H       1  LIG1        0.0236
     40 H          -6.1199   -1.3345   -0.7645 H       1  LIG1        0.0236
     41 H          -6.8840   -2.3261    0.4655 H       1  LIG1        0.0236
     42 H          -4.9580    0.5071    2.0386 H       1  LIG1        0.0236
     43 H          -6.3983   -0.4494    2.3496 H       1  LIG1        0.0236
     44 H          -6.1277    0.3023    0.7835 H       1  LIG1        0.0236
     45 H          -3.8366   -3.9667    1.2146 H       1  LIG1        0.2098
     46 H          -3.5597   -3.3067    3.8143 H       1  LIG1        0.0290
     47 H          -3.9311   -1.6029    3.9107 H       1  LIG1        0.0290
     48 H          -1.9728   -3.0062    1.9951 H       1  LIG1        0.0272
     49 H          -1.5929   -1.9577    3.3465 H       1  LIG1        0.0272
     50 H          -3.3917    0.2102    3.1924 H       1  LIG1        0.0235
     51 H          -2.6949    1.2859    2.0426 H       1  LIG1        0.0235
     52 H          -1.6814    0.4401    3.1816 H       1  LIG1        0.0235
     53 H          -3.1816   -2.2682    0.1669 H       1  LIG1        0.0312
     54 H          -4.0525    0.4518   -0.7136 H       1  LIG1        0.0268
     55 H          -4.0985   -1.0639   -1.5502 H       1  LIG1        0.0268
     56 H          -2.2553    0.2439   -2.3465 H       1  LIG1        0.0271
     57 H          -1.7820   -1.3303   -1.7072 H       1  LIG1        0.0271
     58 H          -2.7968    1.6531    0.1862 H       1  LIG1        0.0235
     59 H          -1.8263    2.3275   -1.0309 H       1  LIG1        0.0235
     60 H          -1.2221    2.2436    0.6639 H       1  LIG1        0.0235
     61 H          -0.7867   -1.6730    0.2821 H       1  LIG1        0.0340
     62 H           0.2888   -0.8312    3.3848 H       1  LIG1        0.2102
     63 H           2.5149   -0.7506    1.1529 H       1  LIG1        0.0597
     64 H           0.0621   -0.9681   -2.5900 H       1  LIG1        0.0238
     65 H           1.2582    0.0840   -3.1943 H       1  LIG1        0.0238
     66 H          -0.3950    0.6262   -3.2653 H       1  LIG1        0.0238
     67 H           0.0074    2.9432   -0.8030 H       1  LIG1        0.0299
     68 H           1.0986    2.6266   -2.0494 H       1  LIG1        0.0299
     69 H           2.6543    3.9902    1.0670 H       1  LIG1        0.2098
     70 H           3.3557    3.1600   -2.4552 H       1  LIG1        0.0236
     71 H           4.9678    2.9363   -1.7515 H       1  LIG1        0.0236
     72 H           3.8638    4.0866   -1.0533 H       1  LIG1        0.0236
     73 H           2.4992    1.1305   -2.2601 H       1  LIG1        0.0355
     74 H           4.9203    1.5181   -3.3688 H       1  LIG1        0.0233
     75 H           3.5372    0.6784   -4.0551 H       1  LIG1        0.0233
     76 H           5.1217   -0.1002   -4.0022 H       1  LIG1        0.0233
     77 H           5.5511   -2.2114   -1.3725 H       1  LIG1        0.0233
     78 H           7.0259   -1.4384   -0.7628 H       1  LIG1        0.0233
     79 H           6.6129   -1.3358   -2.4774 H       1  LIG1        0.0233
     80 H           6.0836    0.2618    0.8094 H       1  LIG1        0.0268
     81 H           4.5485   -0.5548    0.6727 H       1  LIG1        0.0268
     82 H           5.2010    2.3999    0.4817 H       1  LIG1        0.0272
     83 H           4.0052    1.6294    1.4907 H       1  LIG1        0.0272
@<TRIPOS>BOND
     1     2     4    1
     2     4     7    1
     3     7     8    1
     4     8     9    1
     5     9    11    1
     6     2    11    1
     7    11    12    1
     8    12    13    1
     9    13    14    1
    10    14    16    1
    11     9    16    1
    12    16    17    1
    13    17    20    1
    14    20    21    2
    15    21    22    1
    16    14    22    1
    17    22    24    1
    18    24    25    1
    19    25    28    1
    20    28    30    1
    21    21    30    1
    22    30    31    1
    23    31    34    1
    24    34    37    1
    25    37    38    1
    26    28    38    1
    27     1     2    1
    28     2     3    1
    29     9    10    1
    30    14    15    1
    31    22    23    1
    32    25    26    1
    33    25    27    1
    34    28    29    1
    35    31    32    1
    36    31    33    1
    37     4     6    1
    38     4     5    1
    39    17    19    1
    40    17    18    1
    41    34    36    1
    42    34    35    1
    43     1    39    1
    44     1    40    1
    45     1    41    1
    46     3    42    1
    47     3    43    1
    48     3    44    1
    49     5    45    1
    50     7    46    1
    51     7    47    1
    52     8    48    1
    53     8    49    1
    54    10    50    1
    55    10    51    1
    56    10    52    1
    57    11    53    1
    58    12    54    1
    59    12    55    1
    60    13    56    1
    61    13    57    1
    62    15    58    1
    63    15    59    1
    64    15    60    1
    65    16    61    1
    66    19    62    1
    67    20    63    1
    68    23    64    1
    69    23    65    1
    70    23    66    1
    71    24    67    1
    72    24    68    1
    73    27    69    1
    74    29    70    1
    75    29    71    1
    76    29    72    1
    77    30    73    1
    78    33    74    1
    79    33    75    1
    80    33    76    1
    81    36    77    1
    82    36    78    1
    83    36    79    1
    84    37    80    1
    85    37    81    1
    86    38    82    1
    87    38    83    1
