REMARK  Name = NuBBE_621
REMARK  8 active torsions:
REMARK  status: ('A' for Active; 'I' for Inactive)
REMARK    1  A    between atoms: C_1  and  C_2
REMARK    2  A    between atoms: C_2  and  C_3
REMARK    3  A    between atoms: C_2  and  C_4
REMARK    4  A    between atoms: C_2  and  C_6
REMARK    5  A    between atoms: C_12  and  C_14
REMARK    6  A    between atoms: C_14  and  O_15
REMARK    7  A    between atoms: C_14  and  C_16
REMARK    8  A    between atoms: C_14  and  C_17
REMARK                            x       y       z     vdW  Elec       q    Type
REMARK                         _______ _______ _______ _____ _____    ______ ____
ROOT
ATOM      1  C   LIG A   1      -0.853   0.985  -2.431  0.00  0.00    +0.047 A 
ATOM      2  C   LIG A   1       0.154   0.332  -1.816  0.00  0.00    +0.023 A 
ATOM      3  C   LIG A   1      -0.077  -0.598  -0.716  0.00  0.00    +0.018 A 
ATOM      4  C   LIG A   1       0.967  -1.285  -0.082  0.00  0.00    +0.018 A 
ATOM      5  C   LIG A   1       0.668  -2.009   1.063  0.00  0.00    -0.001 A 
ATOM      6  C   LIG A   1       1.562  -2.737   1.999  0.00  0.00    +0.086 C 
ATOM      7  C   LIG A   1       0.664  -2.699   3.256  0.00  0.00    +0.209 C 
ATOM      8  O   LIG A   1      -0.718  -2.666   2.794  0.00  0.00    -0.485 OA
ATOM      9  C   LIG A   1      -0.628  -2.069   1.560  0.00  0.00    +0.128 A 
ATOM     10  C   LIG A   1      -1.683  -1.462   0.921  0.00  0.00    +0.092 A 
ATOM     11  C   LIG A   1      -1.378  -0.721  -0.219  0.00  0.00    +0.143 A 
ATOM     12  O   LIG A   1      -2.442  -0.070  -0.855  0.00  0.00    -0.422 OA
ATOM     13  C   LIG A   1      -2.263   0.656  -2.027  0.00  0.00    +0.341 A 
ATOM     14  O   LIG A   1      -3.237   1.028  -2.659  0.00  0.00    -0.245 OA
ENDROOT
BRANCH   1  16
ATOM     15  C   LIG A   1      -1.290   3.409  -3.050  0.00  0.00    +0.020 C 
ATOM     16  C   LIG A   1      -0.668   2.072  -3.523  0.00  0.00    +0.015 C 
ATOM     17  C   LIG A   1      -1.352   1.655  -4.846  0.00  0.00    +0.020 C 
BRANCH  16  18
ATOM     18  C   LIG A   1       0.822   2.389  -3.773  0.00  0.00    -0.023 C 
ATOM     19  C   LIG A   1       1.518   2.247  -4.912  0.00  0.00    +0.005 C 
ENDBRANCH  16  18
ENDBRANCH   1  16
BRANCH   7  20
ATOM     20  C   LIG A   1       0.969  -1.506   4.227  0.00  0.00    +0.097 C 
ATOM     21  C   LIG A   1       0.820  -0.123   3.578  0.00  0.00    +0.045 C 
ATOM     22  C   LIG A   1       0.074  -1.555   5.474  0.00  0.00    +0.045 C 
BRANCH  20  23
ATOM     23  O   LIG A   1       2.330  -1.631   4.671  0.00  0.00    -0.386 OA
ATOM     24  H   LIG A   1       2.479  -0.961   5.362  0.00  0.00    +0.210 HD
ENDBRANCH  20  23
ENDBRANCH   7  20
TORSDOF 4
