REMARK  Name = NuBBE_2324
REMARK  8 active torsions:
REMARK  status: ('A' for Active; 'I' for Inactive)
REMARK    1  A    between atoms: C_1  and  C_29
REMARK    2  A    between atoms: C_3  and  C_20
REMARK    3  A    between atoms: C_5  and  O_18
REMARK    4  A    between atoms: C_6  and  O_17
REMARK    5  A    between atoms: C_7  and  C_14
REMARK    6  A    between atoms: C_11  and  O_13
REMARK    7  A    between atoms: C_14  and  C_15
REMARK    8  A    between atoms: O_18  and  C_19
REMARK                            x       y       z     vdW  Elec       q    Type
REMARK                         _______ _______ _______ _____ _____    ______ ____
ROOT
ATOM      1  C   LIG A   1       0.854   0.125   0.983  0.00  0.00    +0.006 C 
ATOM      2  C   LIG A   1       0.452   0.973  -0.273  0.00  0.00    +0.060 C 
ATOM      3  C   LIG A   1      -1.111   1.151  -0.117  0.00  0.00    +0.135 C 
ATOM      4  C   LIG A   1      -1.542  -0.208   0.467  0.00  0.00    +0.157 C 
ATOM      5  C   LIG A   1      -0.499  -0.398   1.601  0.00  0.00    +0.013 C 
ATOM      6  C   LIG A   1      -0.990   0.476   2.773  0.00  0.00    +0.087 C 
ATOM      7  C   LIG A   1      -1.109   1.928   2.375  0.00  0.00    +0.165 C 
ATOM      8  O   LIG A   1      -1.019   2.824   3.211  0.00  0.00    -0.294 OA
ATOM      9  C   LIG A   1      -1.476   2.259   0.932  0.00  0.00    +0.215 C 
ATOM     10  C   LIG A   1       1.800   0.899   1.911  0.00  0.00    +0.009 C 
ENDROOT
BRANCH   2  11
ATOM     11  C   LIG A   1       0.955   0.341  -1.589  0.00  0.00    -0.037 A 
ATOM     12  C   LIG A   1       1.307   1.174  -2.679  0.00  0.00    +0.008 A 
ATOM     13  C   LIG A   1       1.767   0.640  -3.897  0.00  0.00    +0.050 A 
ATOM     14  C   LIG A   1       1.869  -0.729  -4.010  0.00  0.00    +0.166 A 
ATOM     15  C   LIG A   1       1.549  -1.550  -2.962  0.00  0.00    +0.167 A 
ATOM     16  C   LIG A   1       1.097  -1.051  -1.760  0.00  0.00    +0.053 A 
ATOM     17  O   LIG A   1       1.717  -2.868  -3.252  0.00  0.00    -0.453 OA
ATOM     18  C   LIG A   1       2.123  -2.785  -4.631  0.00  0.00    +0.466 C 
ATOM     19  O   LIG A   1       2.268  -1.428  -5.106  0.00  0.00    -0.453 OA
ENDBRANCH   2  11
BRANCH   9  20
ATOM     20  O   LIG A   1      -0.912   3.522   0.577  0.00  0.00    -0.381 OA
ATOM     21  H   LIG A   1      -1.027   4.098   1.360  0.00  0.00    +0.210 HD
ENDBRANCH   9  20
BRANCH   4  22
ATOM     22  O   LIG A   1      -1.520  -1.244  -0.502  0.00  0.00    -0.388 OA
ATOM     23  H   LIG A   1      -1.666  -0.821  -1.375  0.00  0.00    +0.210 HD
ENDBRANCH   4  22
BRANCH   3  24
ATOM     24  O   LIG A   1      -1.728   1.395  -1.398  0.00  0.00    -0.370 OA
ATOM     25  C   LIG A   1      -3.139   1.585  -1.404  0.00  0.00    +0.195 C 
ENDBRANCH   3  24
BRANCH   5  26
ATOM     26  C   LIG A   1      -0.403  -1.884   2.030  0.00  0.00    +0.037 C 
BRANCH  26  27
ATOM     27  C   LIG A   1       0.584  -2.149   3.134  0.00  0.00    -0.034 C 
ATOM     28  C   LIG A   1       0.264  -2.188   4.433  0.00  0.00    +0.004 C 
ENDBRANCH  26  27
ENDBRANCH   5  26
TORSDOF 6
