REMARK  Name = NuBBE_1104
REMARK  15 active torsions:
REMARK  status: ('A' for Active; 'I' for Inactive)
REMARK    1  A    between atoms: C_1  and  C_2
REMARK    2  A    between atoms: C_7  and  C_9
REMARK    3  A    between atoms: C_18  and  C_19
REMARK    4  A    between atoms: C_18  and  C_33
REMARK    5  A    between atoms: C_19  and  C_21
REMARK    6  A    between atoms: C_19  and  C_26
REMARK    7  A    between atoms: C_21  and  C_22
REMARK    8  A    between atoms: C_22  and  O_23
REMARK    9  A    between atoms: O_23  and  C_24
REMARK   10  A    between atoms: C_26  and  C_27
REMARK   11  A    between atoms: C_26  and  C_31
REMARK   12  A    between atoms: C_26  and  C_32
REMARK   13  A    between atoms: C_27  and  O_28
REMARK   14  A    between atoms: O_28  and  C_29
REMARK   15  A    between atoms: C_34  and  C_35
REMARK                            x       y       z     vdW  Elec       q    Type
REMARK                         _______ _______ _______ _____ _____    ______ ____
ROOT
ATOM      1  C   LIG A   1      -1.437  -2.857   1.392  0.00  0.00    +0.020 C 
ATOM      2  C   LIG A   1      -2.165  -2.033   0.291  0.00  0.00    +0.032 C 
ATOM      3  C   LIG A   1      -1.396  -1.282  -0.815  0.00  0.00    -0.042 C 
ATOM      4  C   LIG A   1      -1.820  -1.335  -2.091  0.00  0.00    +0.092 C 
ATOM      5  C   LIG A   1      -3.115  -1.935  -2.469  0.00  0.00    +0.333 C 
ATOM      6  O   LIG A   1      -3.908  -2.364  -1.462  0.00  0.00    -0.453 OA
ATOM      7  C   LIG A   1      -3.303  -2.924  -0.284  0.00  0.00    +0.220 C 
ATOM      8  O   LIG A   1      -3.503  -1.894  -3.634  0.00  0.00    -0.246 OA
ATOM      9  C   LIG A   1      -2.576  -0.740   0.982  0.00  0.00    +0.016 C 
ATOM     10  C   LIG A   1      -1.228   0.036   1.082  0.00  0.00    +0.017 C 
ATOM     11  C   LIG A   1      -0.377  -0.269  -0.211  0.00  0.00    +0.027 C 
ATOM     12  C   LIG A   1       0.074   1.181  -0.768  0.00  0.00    +0.048 C 
ATOM     13  C   LIG A   1      -1.055   1.889  -1.527  0.00  0.00    +0.021 C 
ATOM     14  C   LIG A   1       0.961  -1.007  -0.374  0.00  0.00    -0.058 C 
ATOM     15  C   LIG A   1       1.348  -2.315   0.223  0.00  0.00    +0.040 C 
ATOM     16  C   LIG A   1       1.750  -0.466  -1.345  0.00  0.00    +0.046 C 
ATOM     17  C   LIG A   1       1.182   0.791  -1.787  0.00  0.00    +0.163 C 
ATOM     18  O   LIG A   1       1.585   1.427  -2.734  0.00  0.00    -0.292 OA
ENDROOT
BRANCH   7  19
ATOM     19  C   LIG A   1      -2.931  -4.381  -0.530  0.00  0.00    +0.031 A 
ATOM     20  C   LIG A   1      -3.345  -5.479   0.207  0.00  0.00    +0.202 A 
ATOM     21  O   LIG A   1      -2.825  -6.631  -0.288  0.00  0.00    -0.471 OA
ATOM     22  C   LIG A   1      -2.072  -6.293  -1.362  0.00  0.00    +0.195 A 
ATOM     23  C   LIG A   1      -2.079  -4.929  -1.540  0.00  0.00    +0.048 A 
ENDBRANCH   7  19
BRANCH  12  24
ATOM     24  C   LIG A   1       0.841   2.189   0.370  0.00  0.00    +0.030 C 
BRANCH  24  25
ATOM     25  C   LIG A   1       1.097   3.779   0.011  0.00  0.00    +0.066 C 
ATOM     26  C   LIG A   1      -0.177   4.599  -0.342  0.00  0.00    +0.023 C 
ATOM     27  C   LIG A   1       1.631   4.561   1.273  0.00  0.00    +0.023 C 
BRANCH  25  28
ATOM     28  C   LIG A   1       2.106   4.024  -1.141  0.00  0.00    +0.313 C 
ATOM     29  O   LIG A   1       1.866   4.728  -2.115  0.00  0.00    -0.250 OA
BRANCH  28  30
ATOM     30  O   LIG A   1       3.329   3.471  -0.904  0.00  0.00    -0.468 OA
ATOM     31  C   LIG A   1       4.284   3.742  -1.938  0.00  0.00    +0.280 C 
ENDBRANCH  28  30
ENDBRANCH  25  28
ENDBRANCH  24  25
BRANCH  24  32
ATOM     32  C   LIG A   1       2.175   1.605   1.004  0.00  0.00    +0.126 C 
BRANCH  32  33
ATOM     33  C   LIG A   1       2.253   0.403   1.932  0.00  0.00    +0.307 C 
ATOM     34  O   LIG A   1       3.101  -0.477   1.789  0.00  0.00    -0.251 OA
BRANCH  33  35
ATOM     35  O   LIG A   1       1.437   0.493   3.014  0.00  0.00    -0.468 OA
ATOM     36  C   LIG A   1       1.716  -0.497   4.020  0.00  0.00    +0.280 C 
ENDBRANCH  33  35
ENDBRANCH  32  33
ENDBRANCH  24  32
ENDBRANCH  12  24
TORSDOF 8
