@<TRIPOS>MOLECULE
NuBBE_1783
 24 25 0 0 0
SMALL
GASTEIGER

@<TRIPOS>ATOM
      1 O          -2.8534   -1.4110    0.2671 O.3     1  LIG1       -0.4948
      2 C          -3.5306   -2.6602    0.3413 C.3     1  LIG1        0.0788
      3 C          -1.4847   -1.4291    0.1748 C.ar    1  LIG1        0.1304
      4 C          -0.9181   -0.1098    0.1004 C.ar    1  LIG1        0.0234
      5 C           0.4095    0.0489    0.0147 C.ar    1  LIG1        0.1440
      6 O           1.2763   -1.0713   -0.0192 O.2     1  LIG1       -0.4219
      7 C           0.7790   -2.3411    0.0514 C.ar    1  LIG1        0.3407
      8 O           1.5032   -3.3318    0.0319 O.2     1  LIG1       -0.2451
      9 C          -0.6815   -2.5007    0.1501 C.ar    1  LIG1        0.0646
     10 C           1.0805    1.3578   -0.0729 C.ar    1  LIG1        0.0356
     11 C           2.3006    1.5045   -0.7428 C.ar    1  LIG1       -0.0482
     12 C           2.9221    2.7517   -0.8076 C.ar    1  LIG1       -0.0429
     13 C           2.3067    3.8269   -0.1908 C.ar    1  LIG1        0.0276
     14 N           1.1375    3.7354    0.4740 N.ar    1  LIG1       -0.2626
     15 C           0.5602    2.5089    0.5204 C.ar    1  LIG1        0.0382
     16 H          -4.6017   -2.4560    0.4301 H       1  LIG1        0.0660
     17 H          -3.2195   -3.2232    1.2270 H       1  LIG1        0.0660
     18 H          -3.3710   -3.2443   -0.5707 H       1  LIG1        0.0660
     19 H          -1.6084    0.7280    0.1023 H       1  LIG1        0.0691
     20 H          -1.0312   -3.5217    0.1999 H       1  LIG1        0.0726
     21 H           2.7760    0.6535   -1.2255 H       1  LIG1        0.0626
     22 H           3.8652    2.8790   -1.3275 H       1  LIG1        0.0633
     23 H           2.7516    4.8176   -0.2130 H       1  LIG1        0.0829
     24 H          -0.3683    2.4880    1.0847 H       1  LIG1        0.0837
@<TRIPOS>BOND
     1     1     2    1
     2     1     3    1
     3     3     4   ar
     4     4     5   ar
     5     5     6   ar
     6     6     7   ar
     7     7     8    2
     8     7     9   ar
     9     3     9   ar
    10     5    10    1
    11    10    11   ar
    12    11    12   ar
    13    12    13   ar
    14    13    14   ar
    15    14    15   ar
    16    10    15   ar
    17     2    16    1
    18     2    17    1
    19     2    18    1
    20     4    19    1
    21     9    20    1
    22    11    21    1
    23    12    22    1
    24    13    23    1
    25    15    24    1
