REMARK  Name = NuBBE_1028
REMARK  15 active torsions:
REMARK  status: ('A' for Active; 'I' for Inactive)
REMARK    1  A    between atoms: O_1  and  C_2
REMARK    2  A    between atoms: C_6  and  C_7
REMARK    3  A    between atoms: C_11  and  C_12
REMARK    4  A    between atoms: C_15  and  O_16
REMARK    5  A    between atoms: O_16  and  C_17
REMARK    6  A    between atoms: C_17  and  C_18
REMARK    7  A    between atoms: C_19  and  C_20
REMARK    8  A    between atoms: C_19  and  C_21
REMARK    9  A    between atoms: C_22  and  O_23
REMARK   10  A    between atoms: C_26  and  C_27
REMARK   11  A    between atoms: C_30  and  C_31
REMARK   12  A    between atoms: C_34  and  C_36
REMARK   13  A    between atoms: C_36  and  C_37
REMARK   14  A    between atoms: C_42  and  C_43
REMARK   15  A    between atoms: C_42  and  C_44
REMARK                            x       y       z     vdW  Elec       q    Type
REMARK                         _______ _______ _______ _____ _____    ______ ____
ROOT
ATOM      1  C   LIG A   1       4.039  -0.674  -3.668  0.00  0.00    +0.120 C 
ATOM      2  C   LIG A   1       3.619   0.739  -3.282  0.00  0.00    +0.032 C 
ATOM      3  C   LIG A   1       2.429   0.785  -2.313  0.00  0.00    +0.010 C 
ATOM      4  C   LIG A   1       2.597  -0.062  -1.009  0.00  0.00    -0.023 C 
ATOM      5  C   LIG A   1       3.631   0.672  -0.124  0.00  0.00    +0.012 C 
ATOM      6  C   LIG A   1       3.050  -1.510  -1.463  0.00  0.00    +0.003 C 
ATOM      7  C   LIG A   1       3.139  -2.472  -0.269  0.00  0.00    +0.005 C 
ATOM      8  C   LIG A   1       1.763  -2.655   0.363  0.00  0.00    +0.008 C 
ATOM      9  C   LIG A   1       1.111  -1.345   0.885  0.00  0.00    -0.021 C 
ATOM     10  C   LIG A   1       1.925  -0.928   2.148  0.00  0.00    +0.012 C 
ATOM     11  C   LIG A   1       1.176  -0.214  -0.248  0.00  0.00    +0.033 C 
ATOM     12  C   LIG A   1       0.478   1.096   0.268  0.00  0.00    +0.151 C 
ATOM     13  C   LIG A   1      -0.978   0.803   0.716  0.00  0.00    +0.147 C 
ATOM     14  C   LIG A   1      -1.117  -0.303   1.765  0.00  0.00    +0.031 C 
ATOM     15  C   LIG A   1      -0.443  -1.632   1.303  0.00  0.00    -0.021 C 
ATOM     16  C   LIG A   1      -1.226  -2.272   0.118  0.00  0.00    +0.012 C 
ATOM     17  C   LIG A   1      -0.538  -2.604   2.514  0.00  0.00    +0.008 C 
ATOM     18  C   LIG A   1      -1.971  -2.987   2.851  0.00  0.00    +0.007 C 
ATOM     19  C   LIG A   1      -2.895  -1.786   3.125  0.00  0.00    -0.028 C 
ATOM     20  C   LIG A   1      -2.949  -1.565   4.657  0.00  0.00    +0.011 C 
ATOM     21  C   LIG A   1      -2.536  -0.417   2.435  0.00  0.00    +0.008 C 
ATOM     22  C   LIG A   1      -3.815   0.020   1.639  0.00  0.00    +0.018 C 
ATOM     23  C   LIG A   1      -4.944  -0.775   2.314  0.00  0.00    +0.009 C 
ATOM     24  C   LIG A   1      -4.314  -2.116   2.618  0.00  0.00    +0.007 C 
ATOM     25  C   LIG A   1       4.275  -1.607  -2.447  0.00  0.00    -0.006 C 
ATOM     26  C   LIG A   1       4.415  -3.062  -2.980  0.00  0.00    +0.014 C 
ATOM     27  C   LIG A   1       5.624  -1.266  -1.782  0.00  0.00    +0.014 C 
ENDROOT
BRANCH  22  28
ATOM     28  C   LIG A   1      -4.216   1.503   1.587  0.00  0.00    -0.076 C 
ATOM     29  C   LIG A   1      -5.446   1.802   0.758  0.00  0.00    +0.038 C 
ATOM     30  C   LIG A   1      -3.598   2.515   2.210  0.00  0.00    +0.007 C 
ENDBRANCH  22  28
BRANCH   1  31
ATOM     31  O   LIG A   1       3.054  -1.215  -4.554  0.00  0.00    -0.391 OA
ATOM     32  H   LIG A   1       2.200  -1.240  -4.093  0.00  0.00    +0.210 HD
ENDBRANCH   1  31
BRANCH  13  33
ATOM     33  O   LIG A   1      -1.760   0.529  -0.449  0.00  0.00    -0.389 OA
ATOM     34  H   LIG A   1      -1.394   1.095  -1.157  0.00  0.00    +0.210 HD
ENDBRANCH  13  33
BRANCH  12  35
ATOM     35  O   LIG A   1       0.412   2.085  -0.778  0.00  0.00    -0.370 OA
BRANCH  35  36
ATOM     36  C   LIG A   1      -0.065   3.367  -0.360  0.00  0.00    +0.187 C 
BRANCH  36  37
ATOM     37  C   LIG A   1      -0.045   4.270  -1.553  0.00  0.00    -0.001 C 
ATOM     38  C   LIG A   1      -1.068   4.524  -2.392  0.00  0.00    -0.077 C 
ATOM     39  C   LIG A   1      -2.437   3.899  -2.298  0.00  0.00    +0.038 C 
ATOM     40  C   LIG A   1      -0.897   5.464  -3.555  0.00  0.00    +0.038 C 
ENDBRANCH  36  37
ENDBRANCH  35  36
ENDBRANCH  12  35
TORSDOF 6
