@<TRIPOS>MOLECULE
NuBBE_1629
 69 69 0 0 0
SMALL
GASTEIGER

@<TRIPOS>ATOM
      1 C           0.5308    1.5432    3.0342 C.3     1  LIG1       -0.0212
      2 C           0.2123    1.5788    1.5557 C.2     1  LIG1       -0.0841
      3 C          -1.0025    1.6655    0.9726 C.2     1  LIG1       -0.0762
      4 C          -1.1288    1.6829   -0.5420 C.3     1  LIG1       -0.0286
      5 C          -1.2710    0.2650   -1.1098 C.3     1  LIG1       -0.0308
      6 C          -1.3675    0.2641   -2.6115 C.2     1  LIG1       -0.0847
      7 C          -0.5245   -0.3160   -3.4911 C.2     1  LIG1       -0.0762
      8 C          -0.7776   -0.1996   -4.9883 C.3     1  LIG1       -0.0286
      9 C          -0.0849    0.9952   -5.6643 C.3     1  LIG1       -0.0308
     10 C          -0.5299    2.3282   -5.1217 C.2     1  LIG1       -0.0850
     11 C          -1.5423    3.1010   -5.5608 C.2     1  LIG1       -0.0796
     12 C          -2.4491    2.7600   -6.7107 C.3     1  LIG1       -0.0440
     13 C          -1.8615    4.4039   -4.8751 C.3     1  LIG1       -0.0440
     14 C           0.6862   -1.1246   -3.1110 C.3     1  LIG1       -0.0438
     15 C          -2.3177    1.7295    1.7051 C.3     1  LIG1       -0.0438
     16 C           0.6285    0.1163    3.6710 C.3     1  LIG1        0.0500
     17 C           1.0137    0.2821    5.1776 C.3     1  LIG1        0.0580
     18 C           1.1531   -0.9998    5.9942 C.2     1  LIG1        0.3078
     19 O           1.5865   -1.0219    7.1469 O.2     1  LIG1       -0.2508
     20 O           0.8172   -2.0988    5.2747 O.3     1  LIG1       -0.4679
     21 C           1.2892   -3.3435    5.7931 C.3     1  LIG1        0.0817
     22 C           1.7039   -0.7418    2.9401 C.3     1  LIG1        0.0015
     23 C           1.2176   -1.7372    1.8712 C.3     1  LIG1        0.1225
     24 H           1.4982   -1.3657    0.8786 H       1  LIG1        0.0779
     25 O           1.8159   -3.0399    2.0635 O.3     1  LIG1       -0.4573
     26 C           3.0712   -3.1895    1.6102 C.2     1  LIG1        0.3045
     27 O           3.7948   -2.2673    1.2363 O.2     1  LIG1       -0.2511
     28 C           3.5137   -4.6201    1.5912 C.3     1  LIG1        0.0333
     29 C          -0.2526   -1.9965    1.8317 C.2     1  LIG1       -0.0406
     30 C          -1.1687   -1.4347    2.6216 C.2     1  LIG1       -0.0191
     31 C          -0.7888   -0.4562    3.6539 C.2     1  LIG1        0.1629
     32 O          -1.6618   -0.0732    4.4352 O.2     1  LIG1       -0.2921
     33 H          -0.1927    2.1600    3.5821 H       1  LIG1        0.0317
     34 H           1.4915    2.0620    3.1664 H       1  LIG1        0.0317
     35 H           1.0884    1.5332    0.9060 H       1  LIG1        0.0572
     36 H          -0.2512    2.1741   -0.9830 H       1  LIG1        0.0313
     37 H          -1.9902    2.2990   -0.8319 H       1  LIG1        0.0313
     38 H          -2.1695   -0.2192   -0.7093 H       1  LIG1        0.0310
     39 H          -0.4256   -0.3313   -0.7610 H       1  LIG1        0.0310
     40 H          -2.2236    0.8136   -3.0075 H       1  LIG1        0.0572
     41 H          -1.8573   -0.1505   -5.1833 H       1  LIG1        0.0313
     42 H          -0.4401   -1.1222   -5.4792 H       1  LIG1        0.0313
     43 H          -0.2570    0.9456   -6.7456 H       1  LIG1        0.0310
     44 H           1.0027    0.9186   -5.5411 H       1  LIG1        0.0310
     45 H           0.0487    2.6678   -4.2623 H       1  LIG1        0.0572
     46 H          -2.2094    1.8033   -7.1810 H       1  LIG1        0.0274
     47 H          -2.3852    3.5330   -7.4834 H       1  LIG1        0.0274
     48 H          -3.4873    2.7001   -6.3672 H       1  LIG1        0.0274
     49 H          -1.1942    4.6016   -4.0293 H       1  LIG1        0.0274
     50 H          -2.8865    4.3900   -4.4896 H       1  LIG1        0.0274
     51 H          -1.7640    5.2375   -5.5778 H       1  LIG1        0.0274
     52 H           0.8435   -1.2037   -2.0340 H       1  LIG1        0.0274
     53 H           1.5901   -0.6791   -3.5359 H       1  LIG1        0.0274
     54 H           0.5859   -2.1479   -3.4876 H       1  LIG1        0.0274
     55 H          -2.2073    1.7827    2.7887 H       1  LIG1        0.0274
     56 H          -2.9205    0.8445    1.4736 H       1  LIG1        0.0274
     57 H          -2.8823    2.6166    1.4037 H       1  LIG1        0.0274
     58 H           0.2819    0.9173    5.6962 H       1  LIG1        0.0387
     59 H           1.9875    0.7863    5.2378 H       1  LIG1        0.0387
     60 H           0.8876   -4.1429    5.1657 H       1  LIG1        0.0661
     61 H           0.9595   -3.5020    6.8239 H       1  LIG1        0.0661
     62 H           2.3815   -3.3738    5.7227 H       1  LIG1        0.0661
     63 H           2.3460   -1.2672    3.6569 H       1  LIG1        0.0314
     64 H           2.4195   -0.0628    2.4534 H       1  LIG1        0.0314
     65 H           2.7066   -5.2721    1.9337 H       1  LIG1        0.0342
     66 H           4.3794   -4.7608    2.2415 H       1  LIG1        0.0342
     67 H           3.7601   -4.8945    0.5634 H       1  LIG1        0.0342
     68 H          -0.5934   -2.6974    1.0737 H       1  LIG1        0.0609
     69 H          -2.2268   -1.6486    2.5283 H       1  LIG1        0.0650
@<TRIPOS>BOND
     1     1     2    1
     2     2     3    2
     3     3     4    1
     4     4     5    1
     5     5     6    1
     6     6     7    2
     7     7     8    1
     8     8     9    1
     9     9    10    1
    10    10    11    2
    11    11    12    1
    12    11    13    1
    13     7    14    1
    14     3    15    1
    15     1    16    1
    16    16    17    1
    17    17    18    1
    18    18    19    2
    19    18    20    1
    20    20    21    1
    21    16    22    1
    22    22    23    1
    23    23    24    1
    24    23    25    1
    25    25    26    1
    26    26    27    2
    27    26    28    1
    28    23    29    1
    29    29    30    2
    30    30    31    1
    31    16    31    1
    32    31    32    2
    33     1    33    1
    34     1    34    1
    35     2    35    1
    36     4    36    1
    37     4    37    1
    38     5    38    1
    39     5    39    1
    40     6    40    1
    41     8    41    1
    42     8    42    1
    43     9    43    1
    44     9    44    1
    45    10    45    1
    46    12    46    1
    47    12    47    1
    48    12    48    1
    49    13    49    1
    50    13    50    1
    51    13    51    1
    52    14    52    1
    53    14    53    1
    54    14    54    1
    55    15    55    1
    56    15    56    1
    57    15    57    1
    58    17    58    1
    59    17    59    1
    60    21    60    1
    61    21    61    1
    62    21    62    1
    63    22    63    1
    64    22    64    1
    65    28    65    1
    66    28    66    1
    67    28    67    1
    68    29    68    1
    69    30    69    1
