@<TRIPOS>MOLECULE
NuBBE_1659
 55 57 0 0 0
SMALL
GASTEIGER

@<TRIPOS>ATOM
      1 C          -2.1034   -0.5125    0.9601 C.3     1  LIG1       -0.0594
      2 C          -1.4334    0.2125    2.1297 C.3     1  LIG1       -0.0081
      3 H          -2.2500    0.6009    2.7529 H       1  LIG1        0.0330
      4 C          -0.4711    1.3653    1.7812 C.3     1  LIG1        0.0874
      5 H          -0.5060    2.0971    2.5998 H       1  LIG1        0.0649
      6 O           0.8636    0.8351    1.8272 O.3     1  LIG1       -0.3636
      7 C           0.8752   -0.4858    2.3948 C.3     1  LIG1        0.0874
      8 H           1.5990   -0.4583    3.2185 H       1  LIG1        0.0649
      9 C          -0.5428   -0.7570    2.9153 C.3     1  LIG1       -0.0081
     10 H          -0.8466   -1.8014    2.7770 H       1  LIG1        0.0330
     11 C          -0.6284   -0.4664    4.4177 C.3     1  LIG1       -0.0594
     12 C           1.4152   -1.4971    1.3943 C.ar    1  LIG1       -0.0149
     13 C           1.8466   -1.1052    0.1259 C.ar    1  LIG1       -0.0107
     14 C           2.3618   -1.9885   -0.8305 C.ar    1  LIG1        0.1618
     15 O           2.6913   -1.3350   -1.9850 O.3     1  LIG1       -0.4914
     16 C           2.9492   -2.0826   -3.1594 C.3     1  LIG1        0.0790
     17 C           2.5005   -3.3435   -0.4972 C.ar    1  LIG1        0.1615
     18 C           2.1226   -3.7477    0.7931 C.ar    1  LIG1       -0.0160
     19 C           1.5850   -2.8452    1.7265 C.ar    1  LIG1       -0.0524
     20 O           3.0179   -4.1893   -1.4391 O.3     1  LIG1       -0.4915
     21 C           3.1532   -5.5635   -1.0997 C.3     1  LIG1        0.0790
     22 C          -0.7203    2.1484    0.5032 C.ar    1  LIG1       -0.0149
     23 C          -1.9369    2.8138    0.3043 C.ar    1  LIG1       -0.0107
     24 C          -2.2034    3.5010   -0.8891 C.ar    1  LIG1        0.1618
     25 O          -3.4062    4.1296   -1.1386 O.3     1  LIG1       -0.4914
     26 C          -4.5447    3.5401   -0.5212 C.3     1  LIG1        0.0790
     27 C          -1.2183    3.6020   -1.8840 C.ar    1  LIG1        0.1615
     28 C           0.0211    3.0056   -1.6699 C.ar    1  LIG1       -0.0160
     29 C           0.2608    2.2912   -0.4897 C.ar    1  LIG1       -0.0524
     30 O          -1.5267    4.3370   -3.0007 O.3     1  LIG1       -0.4915
     31 C          -0.8531    3.9617   -4.1971 C.3     1  LIG1        0.0790
     32 H          -1.3872   -0.8388    0.2024 H       1  LIG1        0.0233
     33 H          -2.8566    0.1206    0.4803 H       1  LIG1        0.0233
     34 H          -2.6369   -1.3992    1.3260 H       1  LIG1        0.0233
     35 H          -0.3268    0.5597    4.6522 H       1  LIG1        0.0233
     36 H           0.0218   -1.1476    4.9766 H       1  LIG1        0.0233
     37 H          -1.6521   -0.6104    4.7797 H       1  LIG1        0.0233
     38 H           1.7996   -0.0602   -0.1576 H       1  LIG1        0.0659
     39 H           2.1339   -2.7758   -3.3867 H       1  LIG1        0.0660
     40 H           3.9171   -2.5865   -3.0971 H       1  LIG1        0.0660
     41 H           3.0090   -1.3688   -3.9880 H       1  LIG1        0.0660
     42 H           2.2456   -4.7780    1.1207 H       1  LIG1        0.0655
     43 H           1.3205   -3.2041    2.7165 H       1  LIG1        0.0622
     44 H           3.5246   -6.0914   -1.9838 H       1  LIG1        0.0660
     45 H           2.1885   -6.0071   -0.8330 H       1  LIG1        0.0660
     46 H           3.8880   -5.6969   -0.2994 H       1  LIG1        0.0660
     47 H          -2.6678    2.8006    1.1089 H       1  LIG1        0.0659
     48 H          -5.4362    4.0377   -0.9139 H       1  LIG1        0.0660
     49 H          -4.5353    3.7010    0.5608 H       1  LIG1        0.0660
     50 H          -4.6210    2.4731   -0.7596 H       1  LIG1        0.0660
     51 H           0.8308    3.0905   -2.3836 H       1  LIG1        0.0655
     52 H           1.2504    1.8738   -0.3491 H       1  LIG1        0.0622
     53 H          -1.3206    4.5038   -5.0253 H       1  LIG1        0.0660
     54 H          -0.9627    2.8900   -4.3950 H       1  LIG1        0.0660
     55 H           0.2020    4.2516   -4.1721 H       1  LIG1        0.0660
@<TRIPOS>BOND
     1     2     4    1
     2     4     6    1
     3     6     7    1
     4     7     8    1
     5     7     9    1
     6     2     9    1
     7     7    12    1
     8    12    13   ar
     9    13    14   ar
    10    14    15    1
    11    15    16    1
    12    14    17   ar
    13    17    18   ar
    14    18    19   ar
    15    12    19   ar
    16    17    20    1
    17    20    21    1
    18    22    23   ar
    19    23    24   ar
    20    24    25    1
    21    25    26    1
    22    24    27   ar
    23    27    28   ar
    24    28    29   ar
    25    22    29   ar
    26    27    30    1
    27    30    31    1
    28     9    11    1
    29     9    10    1
    30     2     3    1
    31     2     1    1
    32     4    22    1
    33     4     5    1
    34     1    32    1
    35     1    33    1
    36     1    34    1
    37    11    35    1
    38    11    36    1
    39    11    37    1
    40    13    38    1
    41    16    39    1
    42    16    40    1
    43    16    41    1
    44    18    42    1
    45    19    43    1
    46    21    44    1
    47    21    45    1
    48    21    46    1
    49    23    47    1
    50    26    48    1
    51    26    49    1
    52    26    50    1
    53    28    51    1
    54    29    52    1
    55    31    53    1
    56    31    54    1
    57    31    55    1
