REMARK  Name = NuBBE_1559
REMARK  6 active torsions:
REMARK  status: ('A' for Active; 'I' for Inactive)
REMARK    1  A    between atoms: C_3  and  C_14
REMARK    2  A    between atoms: C_8  and  O_9
REMARK    3  A    between atoms: C_11  and  O_13
REMARK    4  A    between atoms: C_15  and  O_16
REMARK    5  A    between atoms: C_18  and  O_21
REMARK    6  A    between atoms: O_21  and  C_22
REMARK                            x       y       z     vdW  Elec       q    Type
REMARK                         _______ _______ _______ _____ _____    ______ ____
ROOT
ATOM      1  O   LIG A   1      -1.265   1.295   0.263  0.00  0.00    -0.286 OA
ATOM      2  C   LIG A   1      -0.044   1.237   0.146  0.00  0.00    +0.204 A 
ATOM      3  C   LIG A   1       0.695  -0.053   0.006  0.00  0.00    +0.068 A 
ATOM      4  C   LIG A   1       2.029   0.060  -0.125  0.00  0.00    +0.208 A 
ATOM      5  O   LIG A   1       2.776   1.214  -0.113  0.00  0.00    -0.462 OA
ATOM      6  C   LIG A   1       2.113   2.407   0.007  0.00  0.00    +0.145 A 
ATOM      7  C   LIG A   1       0.729   2.486   0.122  0.00  0.00    +0.106 A 
ATOM      8  C   LIG A   1       0.108   3.738   0.210  0.00  0.00    +0.135 A 
ATOM      9  C   LIG A   1       0.869   4.905   0.189  0.00  0.00    +0.091 A 
ATOM     10  C   LIG A   1       2.253   4.809   0.086  0.00  0.00    +0.124 A 
ATOM     11  C   LIG A   1       2.882   3.570  -0.003  0.00  0.00    +0.092 A 
ENDROOT
BRANCH   3  12
ATOM     12  C   LIG A   1       0.021  -1.381   0.015  0.00  0.00    +0.030 A 
ATOM     13  C   LIG A   1      -1.259  -1.622  -0.517  0.00  0.00    +0.128 A 
ATOM     14  C   LIG A   1      -1.857  -2.885  -0.469  0.00  0.00    +0.091 A 
ATOM     15  C   LIG A   1      -1.192  -3.961   0.105  0.00  0.00    +0.124 A 
ATOM     16  C   LIG A   1       0.083  -3.760   0.626  0.00  0.00    +0.046 A 
ATOM     17  C   LIG A   1       0.675  -2.490   0.592  0.00  0.00    +0.016 A 
BRANCH  13  18
ATOM     18  O   LIG A   1      -2.021  -0.672  -1.142  0.00  0.00    -0.506 OA
ATOM     19  H   LIG A   1      -1.943   0.157  -0.625  0.00  0.00    +0.292 HD
ENDBRANCH  13  18
BRANCH  15  20
ATOM     20  O   LIG A   1      -1.681  -5.234   0.211  0.00  0.00    -0.495 OA
ATOM     21  C   LIG A   1      -2.999  -5.438  -0.291  0.00  0.00    +0.277 C 
ENDBRANCH  15  20
ENDBRANCH   3  12
BRANCH   8  22
ATOM     22  O   LIG A   1      -1.248   3.899   0.314  0.00  0.00    -0.506 OA
ATOM     23  H   LIG A   1      -1.662   3.007   0.334  0.00  0.00    +0.292 HD
ENDBRANCH   8  22
BRANCH  10  24
ATOM     24  O   LIG A   1       3.039   5.922   0.064  0.00  0.00    -0.506 OA
ATOM     25  H   LIG A   1       2.469   6.709   0.110  0.00  0.00    +0.292 HD
ENDBRANCH  10  24
TORSDOF 5
