@<TRIPOS>MOLECULE
NuBBE_2097
 36 37 0 0 0
SMALL
GASTEIGER

@<TRIPOS>ATOM
      1 C          -0.4482   -0.2142   -0.4161 C.2     1  LIG1        0.3467
      2 O          -0.9980   -0.9105    0.3709 O.2     1  LIG1       -0.2447
      3 O          -0.7976    1.0983   -0.5685 O.3     1  LIG1       -0.4562
      4 C          -0.4457    2.0239    0.4970 C.3     1  LIG1        0.1179
      5 C          -1.0890    1.8722    1.8431 C.ar    1  LIG1       -0.0103
      6 C          -0.9354    0.6930    2.5678 C.ar    1  LIG1       -0.0554
      7 C          -1.7647    0.4144    3.6431 C.ar    1  LIG1       -0.0614
      8 C          -2.5861    1.4124    4.1475 C.ar    1  LIG1       -0.0617
      9 C          -2.5498    2.6881    3.5872 C.ar    1  LIG1       -0.0614
     10 C          -1.8221    2.9144    2.4198 C.ar    1  LIG1       -0.0554
     11 C           0.6147   -0.7791   -1.2616 C.ar    1  LIG1        0.1419
     12 C           1.7335   -0.0022   -1.6234 C.ar    1  LIG1        0.1376
     13 O           1.9207    1.3352   -1.3682 O.3     1  LIG1       -0.4942
     14 C           1.1211    2.2380   -2.1348 C.3     1  LIG1        0.0788
     15 C           2.9046   -0.6422   -2.0568 C.ar    1  LIG1       -0.0189
     16 C           2.9655   -2.0254   -2.1771 C.ar    1  LIG1       -0.0548
     17 C           1.8494   -2.7924   -1.8954 C.ar    1  LIG1       -0.0189
     18 C           0.6508   -2.1964   -1.4590 C.ar    1  LIG1        0.1376
     19 O          -0.4329   -2.9863   -1.1488 O.3     1  LIG1       -0.4942
     20 C          -0.4844   -4.2918   -1.7382 C.3     1  LIG1        0.0788
     21 H          -0.7399    3.0066    0.0918 H       1  LIG1        0.0749
     22 H           0.6382    2.0507    0.6190 H       1  LIG1        0.0749
     23 H          -0.2190   -0.0619    2.2561 H       1  LIG1        0.0621
     24 H          -1.7718   -0.5895    4.0563 H       1  LIG1        0.0618
     25 H          -3.2319    1.1975    4.9914 H       1  LIG1        0.0618
     26 H          -3.1145    3.4967    4.0405 H       1  LIG1        0.0618
     27 H          -1.8355    3.9029    1.9662 H       1  LIG1        0.0621
     28 H           1.7255    2.7376   -2.8939 H       1  LIG1        0.0660
     29 H           0.7918    3.0336   -1.4579 H       1  LIG1        0.0660
     30 H           0.2455    1.7755   -2.5992 H       1  LIG1        0.0660
     31 H           3.8082   -0.0629   -2.2304 H       1  LIG1        0.0654
     32 H           3.8922   -2.5208   -2.4563 H       1  LIG1        0.0620
     33 H           1.9673   -3.8690   -1.9487 H       1  LIG1        0.0654
     34 H           0.3426   -4.9369   -1.4190 H       1  LIG1        0.0660
     35 H          -0.5060   -4.2095   -2.8304 H       1  LIG1        0.0660
     36 H          -1.3993   -4.7999   -1.4140 H       1  LIG1        0.0660
@<TRIPOS>BOND
     1     1     2    2
     2     1     3    1
     3     3     4    1
     4     4     5    1
     5     5     6   ar
     6     6     7   ar
     7     7     8   ar
     8     8     9   ar
     9     9    10   ar
    10     5    10   ar
    11     1    11    1
    12    11    12   ar
    13    12    13    1
    14    13    14    1
    15    12    15   ar
    16    15    16   ar
    17    16    17   ar
    18    17    18   ar
    19    11    18   ar
    20    18    19    1
    21    19    20    1
    22     4    21    1
    23     4    22    1
    24     6    23    1
    25     7    24    1
    26     8    25    1
    27     9    26    1
    28    10    27    1
    29    14    28    1
    30    14    29    1
    31    14    30    1
    32    15    31    1
    33    16    32    1
    34    17    33    1
    35    20    34    1
    36    20    35    1
    37    20    36    1
