REMARK  Name = NuBBE_610
REMARK  11 active torsions:
REMARK  status: ('A' for Active; 'I' for Inactive)
REMARK    1  A    between atoms: C_1  and  C_2
REMARK    2  A    between atoms: C_3  and  C_4
REMARK    3  A    between atoms: C_7  and  C_9
REMARK    4  A    between atoms: C_9  and  C_10
REMARK    5  A    between atoms: C_19  and  O_37
REMARK    6  A    between atoms: C_26  and  C_27
REMARK    7  A    between atoms: C_26  and  O_28
REMARK    8  A    between atoms: C_30  and  C_32
REMARK    9  A    between atoms: O_37  and  C_38
REMARK   10  A    between atoms: C_38  and  C_39
REMARK   11  A    between atoms: C_45  and  O_47
REMARK                            x       y       z     vdW  Elec       q    Type
REMARK                         _______ _______ _______ _____ _____    ______ ____
ROOT
ATOM      1  C   LIG A   1      -0.619  -5.022   0.077  0.00  0.00    +0.041 C 
ATOM      2  C   LIG A   1      -0.811  -3.545  -0.135  0.00  0.00    -0.045 C 
ATOM      3  C   LIG A   1      -0.267  -2.847  -1.163  0.00  0.00    -0.065 C 
ATOM      4  C   LIG A   1       0.688  -3.368  -2.195  0.00  0.00    +0.039 C 
ATOM      5  C   LIG A   1      -0.695  -1.410  -1.239  0.00  0.00    +0.054 C 
ATOM      6  C   LIG A   1      -0.327  -0.429  -2.366  0.00  0.00    +0.085 C 
ATOM      7  N   LIG A   1      -0.747   0.807  -1.743  0.00  0.00    -0.311 N 
ATOM      8  H   LIG A   1      -1.053   1.641  -2.233  0.00  0.00    +0.149 HD
ATOM      9  C   LIG A   1      -0.367  -0.644   0.098  0.00  0.00    +0.103 C 
ATOM     10  C   LIG A   1       1.194  -0.370   0.314  0.00  0.00    +0.224 C 
ATOM     11  C   LIG A   1       1.630   1.063   0.045  0.00  0.00    +0.192 C 
ATOM     12  C   LIG A   1       1.546   2.321   0.932  0.00  0.00    +0.190 C 
ATOM     13  O   LIG A   1       2.765   1.564   0.759  0.00  0.00    -0.361 OA
ATOM     14  C   LIG A   1       1.212   2.614   2.391  0.00  0.00    +0.149 C 
ATOM     15  C   LIG A   1       1.814   1.669   3.417  0.00  0.00    +0.052 C 
ATOM     16  C   LIG A   1      -0.291   2.990   2.561  0.00  0.00    +0.170 C 
ATOM     17  C   LIG A   1      -1.051   2.581   3.838  0.00  0.00    +0.059 C 
ATOM     18  C   LIG A   1      -1.734   3.832   4.405  0.00  0.00    +0.016 C 
ATOM     19  C   LIG A   1      -2.104   1.472   3.622  0.00  0.00    +0.037 C 
ATOM     20  C   LIG A   1      -1.493   0.183   3.147  0.00  0.00    -0.030 C 
ATOM     21  C   LIG A   1      -1.938  -0.495   2.076  0.00  0.00    -0.024 C 
ATOM     22  O   LIG A   1      -0.836   3.737   1.735  0.00  0.00    -0.294 OA
ATOM     23  C   LIG A   1      -1.004   0.665  -0.392  0.00  0.00    +0.224 C 
ATOM     24  O   LIG A   1      -1.597   1.523   0.242  0.00  0.00    -0.275 OA
ATOM     25  C   LIG A   1      -1.025  -1.422   1.299  0.00  0.00    +0.063 C 
ATOM     26  C   LIG A   1      -1.684  -2.784   0.883  0.00  0.00    +0.148 C 
ENDROOT
BRANCH  14  27
ATOM     27  O   LIG A   1       1.875   3.872   2.725  0.00  0.00    -0.379 OA
ATOM     28  H   LIG A   1       2.538   4.051   2.036  0.00  0.00    +0.211 HD
ENDBRANCH  14  27
BRANCH  26  29
ATOM     29  O   LIG A   1      -1.856  -3.574   2.059  0.00  0.00    -0.387 OA
ATOM     30  H   LIG A   1      -2.490  -4.277   1.841  0.00  0.00    +0.210 HD
ENDBRANCH  26  29
BRANCH   6  31
ATOM     31  C   LIG A   1      -1.081  -0.682  -3.682  0.00  0.00    +0.058 C 
BRANCH  31  32
ATOM     32  C   LIG A   1      -0.704   0.298  -4.772  0.00  0.00    -0.046 A 
ATOM     33  C   LIG A   1       0.360   0.022  -5.641  0.00  0.00    +0.003 A 
ATOM     34  C   LIG A   1       0.706   0.928  -6.645  0.00  0.00    +0.000 A 
ATOM     35  C   LIG A   1       0.004   2.125  -6.782  0.00  0.00    +0.000 A 
ATOM     36  C   LIG A   1      -1.049   2.414  -5.918  0.00  0.00    +0.000 A 
ATOM     37  C   LIG A   1      -1.406   1.504  -4.922  0.00  0.00    +0.003 A 
ENDBRANCH  31  32
ENDBRANCH   6  31
BRANCH  10  38
ATOM     38  O   LIG A   1       1.745  -0.759   1.588  0.00  0.00    -0.458 OA
BRANCH  38  39
ATOM     39  C   LIG A   1       2.743  -1.688   1.530  0.00  0.00    +0.304 C 
ATOM     40  C   LIG A   1       3.746  -1.496   2.631  0.00  0.00    +0.136 C 
ATOM     41  O   LIG A   1       2.861  -2.540   0.659  0.00  0.00    -0.251 OA
ENDBRANCH  38  39
ENDBRANCH  10  38
TORSDOF 6
