@<TRIPOS>MOLECULE
NuBBE_1517
 45 46 0 0 0
SMALL
GASTEIGER

@<TRIPOS>ATOM
      1 O          -3.8895   -2.9206   -1.2940 O.2     1  LIG1       -0.2872
      2 C          -3.1058   -2.7871   -0.3919 C.ar    1  LIG1        0.1897
      3 C          -2.6077   -3.9504    0.4159 C.ar    1  LIG1        0.0450
      4 C          -1.6827   -3.7047    1.4298 C.ar    1  LIG1        0.0503
      5 N          -1.1438   -2.4033    1.6063 N.ar    1  LIG1       -0.3577
      6 H          -0.5418   -2.2575    2.4007 H       1  LIG1        0.1656
      7 C          -1.7258   -1.2765    1.0049 C.ar    1  LIG1        0.0200
      8 C          -2.6535   -1.4345    0.0459 C.ar    1  LIG1        0.0049
      9 C          -1.4601    0.0930    1.6658 C.3     1  LIG1       -0.0124
     10 C          -1.0293    1.3599    0.8978 C.3     1  LIG1       -0.0477
     11 C           0.3367    1.4568    0.2253 C.3     1  LIG1       -0.0527
     12 C           1.6008    1.2966    1.0582 C.3     1  LIG1       -0.0530
     13 C           2.8850    1.3478    0.1880 C.3     1  LIG1       -0.0531
     14 C           3.2663    2.6221   -0.6531 C.3     1  LIG1       -0.0531
     15 C           2.2889    3.1855   -1.7217 C.3     1  LIG1       -0.0533
     16 C           2.7858    4.3748   -2.5866 C.3     1  LIG1       -0.0559
     17 C           1.7281    4.8235   -3.6104 C.3     1  LIG1       -0.0653
     18 C          -1.3359   -4.7740    2.2735 C.ar    1  LIG1       -0.0377
     19 C          -1.8921   -6.0540    2.0881 C.ar    1  LIG1       -0.0598
     20 C          -2.7723   -6.2947    1.0371 C.ar    1  LIG1       -0.0610
     21 C          -3.1416   -5.2267    0.1961 C.ar    1  LIG1       -0.0490
     22 H          -3.2003   -0.5955   -0.3889 H       1  LIG1        0.0673
     23 H          -0.8060   -0.0276    2.5366 H       1  LIG1        0.0328
     24 H          -2.4339    0.3763    2.0994 H       1  LIG1        0.0328
     25 H          -1.0980    2.2095    1.5973 H       1  LIG1        0.0269
     26 H          -1.7743    1.5803    0.1220 H       1  LIG1        0.0269
     27 H           0.3550    2.4773   -0.1506 H       1  LIG1        0.0265
     28 H           0.3731    0.7870   -0.6372 H       1  LIG1        0.0265
     29 H           1.5629    0.3201    1.5632 H       1  LIG1        0.0265
     30 H           1.6600    2.0463    1.8575 H       1  LIG1        0.0265
     31 H           2.8785    0.4663   -0.4673 H       1  LIG1        0.0265
     32 H           3.7235    1.1694    0.8814 H       1  LIG1        0.0265
     33 H           4.1966    2.3601   -1.1783 H       1  LIG1        0.0265
     34 H           3.5307    3.4210    0.0482 H       1  LIG1        0.0265
     35 H           1.4009    3.5757   -1.2289 H       1  LIG1        0.0265
     36 H           1.9893    2.3714   -2.3899 H       1  LIG1        0.0265
     37 H           3.6993    4.1140   -3.1311 H       1  LIG1        0.0263
     38 H           3.0194    5.2374   -1.9498 H       1  LIG1        0.0263
     39 H           1.3641    3.9824   -4.2099 H       1  LIG1        0.0230
     40 H           2.1440    5.5650   -4.3040 H       1  LIG1        0.0230
     41 H           0.8644    5.2893   -3.1215 H       1  LIG1        0.0230
     42 H          -0.6588   -4.6338    3.1109 H       1  LIG1        0.0638
     43 H          -1.6477   -6.8670    2.7730 H       1  LIG1        0.0618
     44 H          -3.1872   -7.2886    0.8833 H       1  LIG1        0.0618
     45 H          -3.8650   -5.4123   -0.5912 H       1  LIG1        0.0625
@<TRIPOS>BOND
     1     1     2    2
     2     2     3   ar
     3     3     4   ar
     4     4     5   ar
     5     5     6    1
     6     5     7   ar
     7     7     8   ar
     8     2     8   ar
     9     7     9    1
    10     9    10    1
    11    10    11    1
    12    11    12    1
    13    12    13    1
    14    13    14    1
    15    14    15    1
    16    15    16    1
    17    16    17    1
    18     4    18   ar
    19    18    19   ar
    20    19    20   ar
    21    20    21   ar
    22     3    21   ar
    23     8    22    1
    24     9    23    1
    25     9    24    1
    26    10    25    1
    27    10    26    1
    28    11    27    1
    29    11    28    1
    30    12    29    1
    31    12    30    1
    32    13    31    1
    33    13    32    1
    34    14    33    1
    35    14    34    1
    36    15    35    1
    37    15    36    1
    38    16    37    1
    39    16    38    1
    40    17    39    1
    41    17    40    1
    42    17    41    1
    43    18    42    1
    44    19    43    1
    45    20    44    1
    46    21    45    1
