@<TRIPOS>MOLECULE
NuBBE_1021
 44 45 0 0 0
SMALL
GASTEIGER

@<TRIPOS>ATOM
      1 C          -4.0793    0.6778   -3.1720 C.3     1  LIG1       -0.0215
      2 C          -2.5567    0.8507   -3.0961 C.3     1  LIG1        0.1237
      3 C          -1.9706    0.8647   -4.5117 C.3     1  LIG1       -0.0215
      4 O          -2.0393   -0.3321   -2.4647 O.3     1  LIG1       -0.4778
      5 C          -1.2679   -0.2263   -1.3364 C.ar    1  LIG1        0.1737
      6 C          -0.9974    0.9939   -0.7019 C.ar    1  LIG1        0.0620
      7 C          -0.2441    0.9940    0.4867 C.ar    1  LIG1        0.1341
      8 O          -0.0444    2.1721    1.1664 O.3     1  LIG1       -0.4941
      9 C           1.2219    2.7587    0.8599 C.3     1  LIG1        0.0788
     10 C           0.2076   -0.2088    1.0555 C.ar    1  LIG1       -0.0009
     11 C           0.9233   -0.2507    2.3839 C.3     1  LIG1       -0.0140
     12 C           2.4201   -0.0985    2.2174 C.3     1  LIG1        0.0490
     13 C           3.1190   -0.1681    3.5474 C.2     1  LIG1        0.3071
     14 O           3.4777   -1.4680    3.7710 O.3     1  LIG1       -0.4679
     15 C           4.6166   -1.6004    4.6114 C.3     1  LIG1        0.0817
     16 O           3.4004    0.7845    4.2479 O.2     1  LIG1       -0.2509
     17 C          -0.0280   -1.4129    0.3737 C.ar    1  LIG1       -0.0096
     18 H           0.3716   -2.3326    0.7902 H       1  LIG1        0.0659
     19 C          -0.7793   -1.4325   -0.8038 C.ar    1  LIG1        0.1626
     20 O          -1.0691   -2.5784   -1.5035 O.3     1  LIG1       -0.4914
     21 C          -1.0604   -3.7902   -0.7592 C.3     1  LIG1        0.0790
     22 C          -1.5243    2.2268   -1.2774 C.2     1  LIG1       -0.0477
     23 C          -2.2438    2.1517   -2.3997 C.2     1  LIG1       -0.0408
     24 H          -4.3431   -0.2693   -3.6572 H       1  LIG1        0.0271
     25 H          -4.5568    1.4929   -3.7277 H       1  LIG1        0.0271
     26 H          -4.5210    0.6431   -2.1687 H       1  LIG1        0.0271
     27 H          -2.2093   -0.0668   -5.0391 H       1  LIG1        0.0271
     28 H          -0.8763    0.9268   -4.4797 H       1  LIG1        0.0271
     29 H          -2.3479    1.7032   -5.1065 H       1  LIG1        0.0271
     30 H           1.0613    3.7220    0.3700 H       1  LIG1        0.0660
     31 H           1.8552    2.1396    0.2129 H       1  LIG1        0.0660
     32 H           1.7467    2.9423    1.8038 H       1  LIG1        0.0660
     33 H           0.6999   -1.2036    2.8828 H       1  LIG1        0.0320
     34 H           0.5194    0.5179    3.0536 H       1  LIG1        0.0320
     35 H           2.7075    0.8521    1.7657 H       1  LIG1        0.0381
     36 H           2.8359   -0.8652    1.5534 H       1  LIG1        0.0381
     37 H           4.9570   -2.6354    4.5224 H       1  LIG1        0.0661
     38 H           4.3728   -1.3890    5.6551 H       1  LIG1        0.0661
     39 H           5.4226   -0.9501    4.2554 H       1  LIG1        0.0661
     40 H          -1.5122   -4.5693   -1.3804 H       1  LIG1        0.0660
     41 H          -1.6577   -3.7044    0.1554 H       1  LIG1        0.0660
     42 H          -0.0356   -4.1006   -0.5324 H       1  LIG1        0.0660
     43 H          -1.3308    3.1741   -0.7881 H       1  LIG1        0.0624
     44 H          -2.6410    3.0644   -2.8357 H       1  LIG1        0.0611
@<TRIPOS>BOND
     1     1     2    1
     2     2     3    1
     3     2     4    1
     4     4     5    1
     5     5     6   ar
     6     6     7   ar
     7     7     8    1
     8     8     9    1
     9     7    10   ar
    10    10    11    1
    11    11    12    1
    12    12    13    1
    13    13    14    1
    14    14    15    1
    15    13    16    2
    16    10    17   ar
    17    17    18    1
    18    17    19   ar
    19     5    19   ar
    20    19    20    1
    21    20    21    1
    22     6    22    1
    23    22    23    2
    24     2    23    1
    25     1    24    1
    26     1    25    1
    27     1    26    1
    28     3    27    1
    29     3    28    1
    30     3    29    1
    31     9    30    1
    32     9    31    1
    33     9    32    1
    34    11    33    1
    35    11    34    1
    36    12    35    1
    37    12    36    1
    38    15    37    1
    39    15    38    1
    40    15    39    1
    41    21    40    1
    42    21    41    1
    43    21    42    1
    44    22    43    1
    45    23    44    1
