@<TRIPOS>MOLECULE
NuBBE_2157
 75 78 0 0 0
SMALL
GASTEIGER

@<TRIPOS>ATOM
      1 C          -0.6487   -3.3478    2.9667 C.3     1  LIG1       -0.0587
      2 C          -2.0142   -2.6473    3.0113 C.3     1  LIG1       -0.0234
      3 H          -1.8229   -1.6098    3.3220 H       1  LIG1        0.0343
      4 C          -2.9864   -3.2576    4.0665 C.3     1  LIG1       -0.0407
      5 C          -3.3633   -4.7177    3.7954 C.3     1  LIG1       -0.0621
      6 C          -2.4342   -3.1408    5.4973 C.3     1  LIG1       -0.0621
      7 C          -2.5761   -2.6142    1.5932 C.2     1  LIG1       -0.0846
      8 C          -2.7633   -1.4856    0.9002 C.2     1  LIG1       -0.0846
      9 C          -3.2053   -1.3894   -0.5515 C.3     1  LIG1       -0.0224
     10 H          -3.0135   -2.3585   -1.0301 H       1  LIG1        0.0343
     11 C          -4.7320   -1.2044   -0.5856 C.3     1  LIG1       -0.0587
     12 C          -2.5023   -0.2878   -1.4345 C.3     1  LIG1       -0.0294
     13 H          -3.0122   -0.3156   -2.4086 H       1  LIG1        0.0312
     14 C          -2.6367    1.1303   -0.8539 C.3     1  LIG1       -0.0489
     15 C          -1.3731    1.3736   -0.0373 C.3     1  LIG1       -0.0492
     16 C          -0.3539    0.2742   -0.4313 C.3     1  LIG1       -0.0320
     17 H          -0.3233   -0.4534    0.3893 H       1  LIG1        0.0309
     18 C           1.0582    0.8631   -0.5577 C.3     1  LIG1       -0.0307
     19 H           1.2269    1.4288    0.3678 H       1  LIG1        0.0309
     20 C           2.1742   -0.2001   -0.6200 C.3     1  LIG1       -0.0311
     21 C           3.5227    0.4073   -0.8758 C.2     1  LIG1       -0.0839
     22 C           3.7037    1.6580   -1.3376 C.2     1  LIG1       -0.0648
     23 C           5.0616    2.3113   -1.2800 C.3     1  LIG1       -0.0051
     24 C           5.0321    3.4172   -0.2151 C.3     1  LIG1        0.0590
     25 H           4.9348    2.9638    0.7800 H       1  LIG1        0.0596
     26 O           6.2554    4.1493   -0.2327 O.3     1  LIG1       -0.3915
     27 C           3.8733    4.3991   -0.4235 C.3     1  LIG1       -0.0258
     28 C           2.5226    3.6958   -0.6322 C.3     1  LIG1       -0.0413
     29 C           2.5493    2.5804   -1.7302 C.3     1  LIG1       -0.0078
     30 C           2.7821    3.2503   -3.1040 C.3     1  LIG1       -0.0556
     31 C           1.1657    1.8232   -1.7580 C.3     1  LIG1       -0.0285
     32 H           0.3985    2.6036   -1.6842 H       1  LIG1        0.0312
     33 C           0.8291    1.0282   -3.0410 C.3     1  LIG1       -0.0486
     34 C          -0.5673    0.3798   -2.9943 C.3     1  LIG1       -0.0468
     35 C          -0.9503   -0.3991   -1.6911 C.3     1  LIG1       -0.0256
     36 C          -0.5264   -1.8680   -1.8591 C.3     1  LIG1       -0.0590
     37 H          -0.7421   -4.4151    2.7434 H       1  LIG1        0.0235
     38 H          -0.1171   -3.2447    3.9171 H       1  LIG1        0.0235
     39 H          -0.0059   -2.9087    2.1952 H       1  LIG1        0.0235
     40 H          -3.9179   -2.6749    4.0424 H       1  LIG1        0.0301
     41 H          -2.4823   -5.3602    3.7160 H       1  LIG1        0.0233
     42 H          -3.9449   -4.8094    2.8737 H       1  LIG1        0.0233
     43 H          -3.9813   -5.1156    4.6084 H       1  LIG1        0.0233
     44 H          -1.4486   -3.6037    5.6021 H       1  LIG1        0.0233
     45 H          -3.0965   -3.6385    6.2151 H       1  LIG1        0.0233
     46 H          -2.3532   -2.0916    5.7997 H       1  LIG1        0.0233
     47 H          -2.7773   -3.5757    1.1189 H       1  LIG1        0.0572
     48 H          -2.5792   -0.5450    1.4120 H       1  LIG1        0.0572
     49 H          -5.2366   -2.0033   -0.0309 H       1  LIG1        0.0235
     50 H          -5.1021   -1.2380   -1.6163 H       1  LIG1        0.0235
     51 H          -5.0482   -0.2536   -0.1456 H       1  LIG1        0.0235
     52 H          -3.5370    1.2950   -0.2585 H       1  LIG1        0.0268
     53 H          -2.6802    1.8626   -1.6701 H       1  LIG1        0.0268
     54 H          -1.5818    1.3193    1.0362 H       1  LIG1        0.0268
     55 H          -1.0181    2.3949   -0.2020 H       1  LIG1        0.0268
     56 H           2.0059   -0.9497   -1.3926 H       1  LIG1        0.0310
     57 H           2.2035   -0.7378    0.3351 H       1  LIG1        0.0310
     58 H           4.3783   -0.1979   -0.5839 H       1  LIG1        0.0572
     59 H           5.3503    2.7145   -2.2571 H       1  LIG1        0.0335
     60 H           5.8495    1.5905   -1.0276 H       1  LIG1        0.0335
     61 H           6.9729    3.5176   -0.0537 H       1  LIG1        0.2098
     62 H           4.0922    5.0640   -1.2669 H       1  LIG1        0.0290
     63 H           3.8057    5.0633    0.4481 H       1  LIG1        0.0290
     64 H           1.7629    4.4486   -0.8778 H       1  LIG1        0.0274
     65 H           2.2263    3.2750    0.3364 H       1  LIG1        0.0274
     66 H           3.6403    3.9281   -3.1123 H       1  LIG1        0.0238
     67 H           1.9099    3.8501   -3.3914 H       1  LIG1        0.0238
     68 H           2.9643    2.5090   -3.8890 H       1  LIG1        0.0238
     69 H           1.5881    0.2669   -3.2488 H       1  LIG1        0.0268
     70 H           0.8331    1.7001   -3.9074 H       1  LIG1        0.0268
     71 H          -0.6638   -0.2887   -3.8612 H       1  LIG1        0.0271
     72 H          -1.2906    1.1802   -3.1858 H       1  LIG1        0.0271
     73 H           0.4784   -1.9695   -2.2745 H       1  LIG1        0.0235
     74 H          -1.1954   -2.3855   -2.5569 H       1  LIG1        0.0235
     75 H          -0.5469   -2.4127   -0.9099 H       1  LIG1        0.0235
@<TRIPOS>BOND
     1     2     4    1
     2     4     5    1
     3     4     6    1
     4     2     7    1
     5     7     8    2
     6     8     9    1
     7     9    10    1
     8     9    11    1
     9    12    14    1
    10    14    15    1
    11    15    16    1
    12    16    18    1
    13    18    20    1
    14    20    21    1
    15    21    22    2
    16    22    23    1
    17    23    24    1
    18    24    27    1
    19    27    28    1
    20    28    29    1
    21    22    29    1
    22    29    31    1
    23    18    31    1
    24    31    33    1
    25    33    34    1
    26    34    35    1
    27    16    35    1
    28    12    35    1
    29     9    12    1
    30    12    13    1
    31    16    17    1
    32    18    19    1
    33    29    30    1
    34    31    32    1
    35    35    36    1
    36     2     3    1
    37     2     1    1
    38    24    26    1
    39    24    25    1
    40     1    37    1
    41     1    38    1
    42     1    39    1
    43     4    40    1
    44     5    41    1
    45     5    42    1
    46     5    43    1
    47     6    44    1
    48     6    45    1
    49     6    46    1
    50     7    47    1
    51     8    48    1
    52    11    49    1
    53    11    50    1
    54    11    51    1
    55    14    52    1
    56    14    53    1
    57    15    54    1
    58    15    55    1
    59    20    56    1
    60    20    57    1
    61    21    58    1
    62    23    59    1
    63    23    60    1
    64    26    61    1
    65    27    62    1
    66    27    63    1
    67    28    64    1
    68    28    65    1
    69    30    66    1
    70    30    67    1
    71    30    68    1
    72    33    69    1
    73    33    70    1
    74    34    71    1
    75    34    72    1
    76    36    73    1
    77    36    74    1
    78    36    75    1
