@<TRIPOS>MOLECULE
NuBBE_1964
 45 48 0 0 0
SMALL
GASTEIGER

@<TRIPOS>ATOM
      1 C           0.3472    2.3625    2.2177 C.3     1  LIG1        0.0526
      2 O          -0.1362    3.6884    1.9776 O.3     1  LIG1       -0.3944
      3 C          -0.5134    1.3254    1.4863 C.3     1  LIG1        0.0259
      4 H          -1.5691    1.5198    1.7297 H       1  LIG1        0.0388
      5 C          -0.4339    1.4948   -0.0555 C.ar    1  LIG1        0.0273
      6 C          -0.0332    0.4923   -0.9483 C.ar    1  LIG1       -0.0014
      7 C           0.3460   -0.8076   -0.3064 C.3     1  LIG1        0.0407
      8 H           1.0094   -0.0661    0.1690 H       1  LIG1        0.0516
      9 C          -0.7288   -1.1152    0.7961 C.3     1  LIG1       -0.0179
     10 C          -0.2233   -0.2243    1.9521 C.3     1  LIG1       -0.0250
     11 H          -0.8015   -0.3750    2.8707 H       1  LIG1        0.0311
     12 C           1.2853   -0.6347    2.2509 C.3     1  LIG1       -0.0364
     13 C           1.9768   -1.6666    1.2451 C.3     1  LIG1       -0.0005
     14 N           1.6340   -1.4995   -0.2024 N.3     1  LIG1       -0.2981
     15 C           1.6936   -2.7251   -0.9720 C.3     1  LIG1       -0.0122
     16 C          -1.0310   -2.5905    1.0980 C.3     1  LIG1       -0.0511
     17 C          -2.1057   -2.7672    2.1641 C.3     1  LIG1       -0.0650
     18 C          -0.0986    1.0104   -2.2564 C.ar    1  LIG1        0.0046
     19 C          -0.5469    2.3354   -2.1337 C.ar    1  LIG1        0.0470
     20 N          -0.7279    2.6040   -0.7891 N.ar    1  LIG1       -0.3574
     21 H          -1.0073    3.5018   -0.4074 H       1  LIG1        0.1656
     22 C          -0.7328    3.1646   -3.2464 C.ar    1  LIG1       -0.0378
     23 C          -0.4530    2.6337   -4.5095 C.ar    1  LIG1       -0.0598
     24 C          -0.0007    1.3237   -4.6555 C.ar    1  LIG1       -0.0611
     25 C           0.1814    0.5021   -3.5375 C.ar    1  LIG1       -0.0523
     26 H           0.3249    2.1925    3.2995 H       1  LIG1        0.0564
     27 H           1.3879    2.3330    1.8828 H       1  LIG1        0.0564
     28 H          -0.9920    3.7722    2.4303 H       1  LIG1        0.2094
     29 H          -1.7037   -0.7241    0.4635 H       1  LIG1        0.0322
     30 H           1.3184   -1.0907    3.2488 H       1  LIG1        0.0281
     31 H           1.9172    0.2560    2.3076 H       1  LIG1        0.0281
     32 H           1.7610   -2.6831    1.5888 H       1  LIG1        0.0427
     33 H           3.0633   -1.5555    1.3477 H       1  LIG1        0.0427
     34 H           0.9787   -3.4804   -0.6342 H       1  LIG1        0.0391
     35 H           2.6975   -3.1597   -0.9159 H       1  LIG1        0.0391
     36 H           1.4971   -2.5210   -2.0303 H       1  LIG1        0.0391
     37 H          -1.3827   -3.0644    0.1729 H       1  LIG1        0.0266
     38 H          -0.1611   -3.1584    1.4212 H       1  LIG1        0.0266
     39 H          -3.0077   -2.1981    1.9202 H       1  LIG1        0.0230
     40 H          -1.7451   -2.4461    3.1459 H       1  LIG1        0.0230
     41 H          -2.3827   -3.8235    2.2448 H       1  LIG1        0.0230
     42 H          -1.0780    4.1875   -3.1375 H       1  LIG1        0.0638
     43 H          -0.5854    3.2563   -5.3912 H       1  LIG1        0.0618
     44 H           0.2185    0.9349   -5.6464 H       1  LIG1        0.0618
     45 H           0.5434   -0.5143   -3.6564 H       1  LIG1        0.0624
@<TRIPOS>BOND
     1     1     2    1
     2     3     5    1
     3     5     6   ar
     4     6     7    1
     5     7     9    1
     6     9    10    1
     7     3    10    1
     8    10    12    1
     9    12    13    1
    10    13    14    1
    11     7    14    1
    12    16    17    1
    13     6    18   ar
    14    18    19   ar
    15    19    20   ar
    16     5    20   ar
    17    19    22   ar
    18    22    23   ar
    19    23    24   ar
    20    24    25   ar
    21    18    25   ar
    22     7     8    1
    23     9    16    1
    24    10    11    1
    25    14    15    1
    26    20    21    1
    27     3     4    1
    28     3     1    1
    29     1    26    1
    30     1    27    1
    31     2    28    1
    32     9    29    1
    33    12    30    1
    34    12    31    1
    35    13    32    1
    36    13    33    1
    37    15    34    1
    38    15    35    1
    39    15    36    1
    40    16    37    1
    41    16    38    1
    42    17    39    1
    43    17    40    1
    44    17    41    1
    45    22    42    1
    46    23    43    1
    47    24    44    1
    48    25    45    1
