@<TRIPOS>MOLECULE
NuBBE_1228
 79 82 0 0 0
SMALL
GASTEIGER

@<TRIPOS>ATOM
      1 C          -3.2905    0.1303   -1.6343 C.3     1  LIG1       -0.0563
      2 C          -1.7624    0.0247   -1.2740 C.3     1  LIG1        0.0061
      3 C          -0.9137    1.0643   -2.0679 C.3     1  LIG1        0.0934
      4 C           0.5901    0.7501   -2.0955 C.2     1  LIG1       -0.0308
      5 C           1.5414    1.6577   -1.8035 C.2     1  LIG1       -0.0140
      6 C           2.9843    1.4049   -2.0708 C.2     1  LIG1        0.1880
      7 C           3.3284    0.1999   -2.9585 C.3     1  LIG1        0.1358
      8 O           2.9425    0.5515   -4.3031 O.3     1  LIG1       -0.3801
      9 C           4.8351   -0.0892   -2.9966 C.3     1  LIG1        0.0123
     10 C           5.1476   -1.2783   -3.9090 C.3     1  LIG1        0.0841
     11 H           4.9939   -0.9852   -4.9539 H       1  LIG1        0.0620
     12 O           6.5291   -1.6407   -3.7598 O.3     1  LIG1       -0.3891
     13 C           4.2978   -2.5264   -3.6136 C.3     1  LIG1        0.0818
     14 H           4.4240   -3.2460   -4.4310 H       1  LIG1        0.0619
     15 O           4.8060   -3.1836   -2.4484 O.3     1  LIG1       -0.3892
     16 C           2.8061   -2.2274   -3.4297 C.3     1  LIG1       -0.0154
     17 C           2.5017   -1.0233   -2.4826 C.3     1  LIG1        0.0130
     18 C           2.9188   -1.4061   -1.0301 C.3     1  LIG1       -0.0559
     19 C           0.9503   -0.6627   -2.5723 C.3     1  LIG1       -0.0083
     20 C           0.0984   -1.7127   -1.8364 C.3     1  LIG1       -0.0452
     21 C          -1.3865   -1.4000   -1.7181 C.3     1  LIG1       -0.0438
     22 O           3.8153    2.2231   -1.7013 O.2     1  LIG1       -0.2896
     23 C          -1.3414    2.3755   -1.4025 C.3     1  LIG1       -0.0192
     24 C          -1.3802    2.0488    0.0875 C.3     1  LIG1       -0.0440
     25 C          -1.6729    0.5148    0.2354 C.3     1  LIG1       -0.0015
     26 H          -2.6872    0.4293    0.6449 H       1  LIG1        0.0336
     27 C          -0.7684   -0.1375    1.3324 C.3     1  LIG1        0.0924
     28 C          -0.9336    0.5748    2.7437 C.3     1  LIG1        0.0840
     29 H          -0.7064    1.6413    2.6443 H       1  LIG1        0.0622
     30 O           0.0877    0.0724    3.6306 O.3     1  LIG1       -0.3890
     31 C          -2.3242    0.4129    3.4091 C.3     1  LIG1       -0.0216
     32 C          -2.4156    1.1235    4.7739 C.3     1  LIG1       -0.0221
     33 C          -3.7766    0.9956    5.5001 C.3     1  LIG1        0.0606
     34 C          -3.7155    1.7378    6.8420 C.3     1  LIG1       -0.0363
     35 C          -4.9540    1.5287    4.6807 C.3     1  LIG1       -0.0363
     36 O          -4.0358   -0.3856    5.7634 O.3     1  LIG1       -0.3891
     37 O           0.5970    0.0207    0.9324 O.3     1  LIG1       -0.3860
     38 C          -1.0133   -1.6411    1.5257 C.3     1  LIG1       -0.0334
     39 O          -1.3323    1.0985   -3.4338 O.3     1  LIG1       -0.3837
     40 H          -3.4755   -0.0091   -2.7042 H       1  LIG1        0.0236
     41 H          -3.7315    1.0903   -1.3468 H       1  LIG1        0.0236
     42 H          -3.8558   -0.6441   -1.0999 H       1  LIG1        0.0236
     43 H           1.3377    2.6555   -1.4384 H       1  LIG1        0.0654
     44 H           3.3910    1.3911   -4.5182 H       1  LIG1        0.2108
     45 H           5.2534   -0.2449   -1.9955 H       1  LIG1        0.0323
     46 H           5.3778    0.7835   -3.3854 H       1  LIG1        0.0323
     47 H           7.0593   -0.8395   -3.9181 H       1  LIG1        0.2099
     48 H           5.7799   -3.1296   -2.5424 H       1  LIG1        0.2099
     49 H           2.3103   -3.1288   -3.0496 H       1  LIG1        0.0297
     50 H           2.3782   -2.0245   -4.4198 H       1  LIG1        0.0297
     51 H           3.9964   -1.5297   -0.9084 H       1  LIG1        0.0236
     52 H           2.4815   -2.3598   -0.7172 H       1  LIG1        0.0236
     53 H           2.6272   -0.6414   -0.3081 H       1  LIG1        0.0236
     54 H           0.6635   -0.6977   -3.6338 H       1  LIG1        0.0353
     55 H           0.4900   -1.8641   -0.8365 H       1  LIG1        0.0271
     56 H           0.1948   -2.6790   -2.3467 H       1  LIG1        0.0271
     57 H          -1.8815   -2.1442   -1.0846 H       1  LIG1        0.0272
     58 H          -1.8039   -1.5711   -2.7219 H       1  LIG1        0.0272
     59 H          -2.3330    2.6872   -1.7551 H       1  LIG1        0.0296
     60 H          -0.6982    3.2298   -1.6336 H       1  LIG1        0.0296
     61 H          -2.1552    2.6424    0.5857 H       1  LIG1        0.0270
     62 H          -0.4207    2.3316    0.5322 H       1  LIG1        0.0270
     63 H          -0.2473   -0.7387    4.0511 H       1  LIG1        0.2099
     64 H          -2.5338   -0.6501    3.5708 H       1  LIG1        0.0292
     65 H          -3.0972    0.8087    2.7448 H       1  LIG1        0.0292
     66 H          -2.1718    2.1843    4.6407 H       1  LIG1        0.0293
     67 H          -1.6456    0.6951    5.4287 H       1  LIG1        0.0293
     68 H          -3.5508    2.8108    6.6988 H       1  LIG1        0.0257
     69 H          -2.9107    1.3442    7.4730 H       1  LIG1        0.0257
     70 H          -4.6438    1.6021    7.4096 H       1  LIG1        0.0257
     71 H          -4.7280    2.4995    4.2291 H       1  LIG1        0.0257
     72 H          -5.8414    1.6550    5.3145 H       1  LIG1        0.0257
     73 H          -5.2484    0.8260    3.8937 H       1  LIG1        0.0257
     74 H          -3.3902   -0.6948    6.4217 H       1  LIG1        0.2101
     75 H           1.1436   -0.2399    1.6997 H       1  LIG1        0.2103
     76 H          -0.6719   -2.2459    0.6925 H       1  LIG1        0.0258
     77 H          -2.0687   -1.8626    1.6961 H       1  LIG1        0.0258
     78 H          -0.4329   -2.0304    2.3696 H       1  LIG1        0.0258
     79 H          -0.7316    1.6978   -3.9079 H       1  LIG1        0.2106
@<TRIPOS>BOND
     1     2     3    1
     2     3     4    1
     3     4     5    2
     4     5     6    1
     5     6     7    1
     6     7     9    1
     7     9    10    1
     8    10    13    1
     9    13    16    1
    10    16    17    1
    11     7    17    1
    12    17    19    1
    13     4    19    1
    14    19    20    1
    15    20    21    1
    16     2    21    1
    17     3    23    1
    18    23    24    1
    19    24    25    1
    20     2    25    1
    21    28    31    1
    22    31    32    1
    23    32    33    1
    24    33    34    1
    25    33    35    1
    26    33    36    1
    27    27    38    1
    28     1     2    1
    29     3    39    1
    30     6    22    2
    31     7     8    1
    32    13    14    1
    33    13    15    1
    34    17    18    1
    35    10    12    1
    36    10    11    1
    37    25    27    1
    38    25    26    1
    39    27    37    1
    40    27    28    1
    41    28    30    1
    42    28    29    1
    43     1    40    1
    44     1    41    1
    45     1    42    1
    46     5    43    1
    47     8    44    1
    48     9    45    1
    49     9    46    1
    50    12    47    1
    51    15    48    1
    52    16    49    1
    53    16    50    1
    54    18    51    1
    55    18    52    1
    56    18    53    1
    57    19    54    1
    58    20    55    1
    59    20    56    1
    60    21    57    1
    61    21    58    1
    62    23    59    1
    63    23    60    1
    64    24    61    1
    65    24    62    1
    66    30    63    1
    67    31    64    1
    68    31    65    1
    69    32    66    1
    70    32    67    1
    71    34    68    1
    72    34    69    1
    73    34    70    1
    74    35    71    1
    75    35    72    1
    76    35    73    1
    77    36    74    1
    78    37    75    1
    79    38    76    1
    80    38    77    1
    81    38    78    1
    82    39    79    1
