@<TRIPOS>MOLECULE
NuBBE_1045
 27 29 0 0 0
SMALL
GASTEIGER

@<TRIPOS>ATOM
      1 O          -3.4954   -0.8809   -0.2418 O.2     1  LIG1       -0.2870
      2 C          -2.2773   -0.8110   -0.1457 C.ar    1  LIG1        0.1931
      3 C          -1.4258   -2.0027   -0.0214 C.ar    1  LIG1        0.0640
      4 C          -1.9836   -3.2844   -0.0097 C.ar    1  LIG1       -0.0474
      5 C          -1.1494   -4.3969    0.1086 C.ar    1  LIG1       -0.0609
      6 C           0.2326   -4.2259    0.2144 C.ar    1  LIG1       -0.0582
      7 C           0.7842   -2.9427    0.2022 C.ar    1  LIG1       -0.0186
      8 C          -0.0484   -1.8300    0.0839 C.ar    1  LIG1        0.1392
      9 O           0.5512   -0.5960    0.0767 O.2     1  LIG1       -0.4546
     10 C          -0.2541    0.5281   -0.0314 C.ar    1  LIG1        0.1392
     11 C           0.4882    1.8042   -0.0374 C.ar    1  LIG1        0.0174
     12 C           1.6870    1.9144   -0.7583 C.ar    1  LIG1       -0.0511
     13 C           2.4086    3.1108   -0.7686 C.ar    1  LIG1       -0.0611
     14 C           1.9444    4.2113   -0.0523 C.ar    1  LIG1       -0.0617
     15 C           0.7616    4.1157    0.6771 C.ar    1  LIG1       -0.0611
     16 C           0.0393    2.9192    0.6874 C.ar    1  LIG1       -0.0511
     17 C          -1.5897    0.4902   -0.1481 C.ar    1  LIG1        0.0287
     18 H          -3.0604   -3.4157   -0.0923 H       1  LIG1        0.0626
     19 H          -1.5768   -5.3969    0.1184 H       1  LIG1        0.0618
     20 H           0.8810   -5.0942    0.3070 H       1  LIG1        0.0619
     21 H           1.8601   -2.8126    0.2858 H       1  LIG1        0.0654
     22 H           2.0669    1.0675   -1.3262 H       1  LIG1        0.0625
     23 H           3.3333    3.1814   -1.3356 H       1  LIG1        0.0618
     24 H           2.5063    5.1418   -0.0591 H       1  LIG1        0.0618
     25 H           0.4021    4.9713    1.2434 H       1  LIG1        0.0618
     26 H          -0.8714    2.8671    1.2800 H       1  LIG1        0.0625
     27 H          -2.2145    1.3671   -0.2568 H       1  LIG1        0.0693
@<TRIPOS>BOND
     1     1     2    2
     2     2     3   ar
     3     3     4   ar
     4     4     5   ar
     5     5     6   ar
     6     6     7   ar
     7     7     8   ar
     8     3     8   ar
     9     8     9   ar
    10     9    10   ar
    11    10    11    1
    12    11    12   ar
    13    12    13   ar
    14    13    14   ar
    15    14    15   ar
    16    15    16   ar
    17    11    16   ar
    18    10    17   ar
    19     2    17   ar
    20     4    18    1
    21     5    19    1
    22     6    20    1
    23     7    21    1
    24    12    22    1
    25    13    23    1
    26    14    24    1
    27    15    25    1
    28    16    26    1
    29    17    27    1
