@<TRIPOS>MOLECULE
NuBBE_634
 48 47 0 0 0
SMALL
GASTEIGER

@<TRIPOS>ATOM
      1 C          -5.3175    2.5125   -0.9934 C.3     1  LIG1       -0.0439
      2 C          -3.8140    2.5460   -1.0461 C.2     1  LIG1       -0.0766
      3 C          -3.2238    3.4361   -2.1020 C.3     1  LIG1       -0.0439
      4 C          -3.0596    1.8115   -0.2033 C.2     1  LIG1       -0.0485
      5 C          -1.5578    1.7110   -0.1871 C.3     1  LIG1        0.1231
      6 N          -1.2096    0.3111   -0.3743 N.pl3   1  LIG1       -0.1093
      7 C           0.0181   -0.0534   -0.4204 C.cat   1  LIG1        0.3818
      8 N           1.1465    0.7177   -0.3560 N.pl3   1  LIG1       -0.2724
      9 C           2.3024    0.4501   -1.1924 C.3     1  LIG1        0.0834
     10 C           3.3549    1.4725   -0.8621 C.2     1  LIG1       -0.0521
     11 C           4.3946    1.3337   -0.0142 C.2     1  LIG1       -0.0767
     12 C           4.6555    0.1062    0.8144 C.3     1  LIG1       -0.0440
     13 C           5.3908    2.4451    0.1865 C.3     1  LIG1       -0.0440
     14 H           0.9545    1.7074   -0.2906 H       1  LIG1        0.2582
     15 N           0.2462   -1.3969   -0.5234 N.pl3   1  LIG1       -0.2724
     16 C           0.7808   -2.1105    0.6306 C.3     1  LIG1        0.0834
     17 C          -0.3643   -2.5597    1.4978 C.2     1  LIG1       -0.0521
     18 C          -1.0115   -3.7426    1.4630 C.2     1  LIG1       -0.0767
     19 C          -0.7087   -4.8546    0.4976 C.3     1  LIG1       -0.0440
     20 C          -2.1478   -4.0350    2.4083 C.3     1  LIG1       -0.0440
     21 H          -0.6482   -1.8214   -0.7631 H       1  LIG1        0.2582
     22 H          -5.7126    3.5166   -0.8064 H       1  LIG1        0.0274
     23 H          -5.6942    1.8552   -0.2028 H       1  LIG1        0.0274
     24 H          -5.7227    2.1538   -1.9458 H       1  LIG1        0.0274
     25 H          -3.9709    4.1321   -2.4970 H       1  LIG1        0.0274
     26 H          -2.8427    2.8396   -2.9367 H       1  LIG1        0.0274
     27 H          -2.4119    4.0461   -1.6931 H       1  LIG1        0.0274
     28 H          -3.5559    1.1907    0.5419 H       1  LIG1        0.0604
     29 H          -1.1998    2.0622    0.7875 H       1  LIG1        0.0738
     30 H          -1.1060    2.3329   -0.9653 H       1  LIG1        0.0738
     31 H           2.0383    0.5482   -2.2530 H       1  LIG1        0.0700
     32 H           2.6843   -0.5665   -1.0563 H       1  LIG1        0.0700
     33 H           3.2555    2.4073   -1.4121 H       1  LIG1        0.0603
     34 H           3.8200   -0.5976    0.8130 H       1  LIG1        0.0274
     35 H           4.8316    0.3852    1.8586 H       1  LIG1        0.0274
     36 H           5.5419   -0.4174    0.4422 H       1  LIG1        0.0274
     37 H           5.1839    3.3105   -0.4516 H       1  LIG1        0.0274
     38 H           6.4023    2.0954   -0.0449 H       1  LIG1        0.0274
     39 H           5.3712    2.7867    1.2269 H       1  LIG1        0.0274
     40 H           1.4626   -1.4870    1.2209 H       1  LIG1        0.0700
     41 H           1.3734   -2.9609    0.2828 H       1  LIG1        0.0700
     42 H          -0.6807   -1.8113    2.2245 H       1  LIG1        0.0603
     43 H           0.0647   -4.5974   -0.2297 H       1  LIG1        0.0274
     44 H          -1.6083   -5.1157   -0.0698 H       1  LIG1        0.0274
     45 H          -0.3729   -5.7426    1.0425 H       1  LIG1        0.0274
     46 H          -2.3247   -3.2178    3.1152 H       1  LIG1        0.0274
     47 H          -1.9329   -4.9371    2.9907 H       1  LIG1        0.0274
     48 H          -3.0748   -4.1977    1.8480 H       1  LIG1        0.0274
@<TRIPOS>BOND
     1     1     2    1
     2     2     3    1
     3     2     4    2
     4     4     5    1
     5     5     6    1
     6     6     7    2
     7     7     8    1
     8     8     9    1
     9     9    10    1
    10    10    11    2
    11    11    12    1
    12    11    13    1
    13     8    14    1
    14     7    15    1
    15    15    16    1
    16    16    17    1
    17    17    18    2
    18    18    19    1
    19    18    20    1
    20    15    21    1
    21     1    22    1
    22     1    23    1
    23     1    24    1
    24     3    25    1
    25     3    26    1
    26     3    27    1
    27     4    28    1
    28     5    29    1
    29     5    30    1
    30     9    31    1
    31     9    32    1
    32    10    33    1
    33    12    34    1
    34    12    35    1
    35    12    36    1
    36    13    37    1
    37    13    38    1
    38    13    39    1
    39    16    40    1
    40    16    41    1
    41    17    42    1
    42    19    43    1
    43    19    44    1
    44    19    45    1
    45    20    46    1
    46    20    47    1
    47    20    48    1
