@<TRIPOS>MOLECULE
NuBBE_1792
 49 49 0 0 0
SMALL
GASTEIGER

@<TRIPOS>ATOM
      1 O          -1.9172    1.3230    3.2744 O.2     1  LIG1       -0.2505
      2 C          -0.9203    1.8550    2.8462 C.2     1  LIG1        0.3111
      3 C          -0.7332    3.3345    2.5748 C.3     1  LIG1        0.0698
      4 C          -1.1343    4.2217    3.7445 C.3     1  LIG1        0.0579
      5 C          -2.5984    4.0746    4.0880 C.2     1  LIG1        0.3076
      6 O          -2.7569    3.1657    5.0851 O.3     1  LIG1       -0.4679
      7 C          -4.1095    2.8185    5.3841 C.3     1  LIG1        0.0817
      8 O          -3.4945    4.6899    3.5273 O.2     1  LIG1       -0.2508
      9 C           0.7600    3.3955    2.2649 C.3     1  LIG1       -0.0022
     10 C           1.0457    2.0088    1.7041 C.3     1  LIG1        0.1039
     11 C           0.6628    1.8975    0.2199 C.3     1  LIG1       -0.0156
     12 C           0.8392    0.5057   -0.4110 C.3     1  LIG1       -0.0497
     13 C           0.4438    0.5612   -1.8981 C.3     1  LIG1       -0.0529
     14 C           0.5372   -0.7682   -2.6606 C.3     1  LIG1       -0.0531
     15 C          -0.4056   -1.8722   -2.1617 C.3     1  LIG1       -0.0530
     16 C          -0.3231   -3.1832   -2.9632 C.3     1  LIG1       -0.0528
     17 C           1.0727   -3.8089   -2.8966 C.3     1  LIG1       -0.0496
     18 C           1.1460   -5.1509   -3.6259 C.3     1  LIG1       -0.0350
     19 C           2.5221   -5.7587   -3.5864 C.2     1  LIG1       -0.0911
     20 C           3.6173   -5.1788   -4.0958 C.2     1  LIG1       -0.1026
     21 O           0.1971    1.1601    2.4769 O.3     1  LIG1       -0.4611
     22 H          -1.3136    3.5901    1.6785 H       1  LIG1        0.0420
     23 H          -0.9608    5.2790    3.5063 H       1  LIG1        0.0386
     24 H          -0.5389    4.0074    4.6393 H       1  LIG1        0.0386
     25 H          -4.7435    2.7931    4.4914 H       1  LIG1        0.0661
     26 H          -4.4994    3.5316    6.1136 H       1  LIG1        0.0661
     27 H          -4.1169    1.8188    5.8296 H       1  LIG1        0.0661
     28 H           1.3352    3.5481    3.1875 H       1  LIG1        0.0309
     29 H           1.0256    4.2028    1.5739 H       1  LIG1        0.0309
     30 H           2.0909    1.7233    1.8731 H       1  LIG1        0.0734
     31 H           1.2266    2.6419   -0.3533 H       1  LIG1        0.0301
     32 H          -0.4000    2.1451    0.1189 H       1  LIG1        0.0301
     33 H           0.2073   -0.2156    0.1174 H       1  LIG1        0.0266
     34 H           1.8786    0.1710   -0.3134 H       1  LIG1        0.0266
     35 H           1.1122    1.2746   -2.3995 H       1  LIG1        0.0265
     36 H          -0.5699    0.9677   -1.9979 H       1  LIG1        0.0265
     37 H           1.5765   -1.1072   -2.6176 H       1  LIG1        0.0265
     38 H           0.3148   -0.5672   -3.7171 H       1  LIG1        0.0265
     39 H          -1.4407   -1.5104   -2.1880 H       1  LIG1        0.0265
     40 H          -0.1749   -2.1123   -1.1192 H       1  LIG1        0.0265
     41 H          -0.6195   -3.0185   -4.0071 H       1  LIG1        0.0265
     42 H          -1.0500   -3.8888   -2.5398 H       1  LIG1        0.0265
     43 H           1.3585   -3.9444   -1.8458 H       1  LIG1        0.0268
     44 H           1.7985   -3.1215   -3.3421 H       1  LIG1        0.0268
     45 H           0.8371   -5.0318   -4.6710 H       1  LIG1        0.0307
     46 H           0.4406   -5.8550   -3.1679 H       1  LIG1        0.0307
     47 H           2.6152   -6.7385   -3.1220 H       1  LIG1        0.0566
     48 H           3.5750   -4.2059   -4.5760 H       1  LIG1        0.0532
     49 H           4.5847   -5.6681   -4.0430 H       1  LIG1        0.0532
@<TRIPOS>BOND
     1     1     2    2
     2     2     3    1
     3     3     4    1
     4     4     5    1
     5     5     6    1
     6     6     7    1
     7     5     8    2
     8     3     9    1
     9     9    10    1
    10    10    11    1
    11    11    12    1
    12    12    13    1
    13    13    14    1
    14    14    15    1
    15    15    16    1
    16    16    17    1
    17    17    18    1
    18    18    19    1
    19    19    20    2
    20    10    21    1
    21     2    21    1
    22     3    22    1
    23     4    23    1
    24     4    24    1
    25     7    25    1
    26     7    26    1
    27     7    27    1
    28     9    28    1
    29     9    29    1
    30    10    30    1
    31    11    31    1
    32    11    32    1
    33    12    33    1
    34    12    34    1
    35    13    35    1
    36    13    36    1
    37    14    37    1
    38    14    38    1
    39    15    39    1
    40    15    40    1
    41    16    41    1
    42    16    42    1
    43    17    43    1
    44    17    44    1
    45    18    45    1
    46    18    46    1
    47    19    47    1
    48    20    48    1
    49    20    49    1
