@<TRIPOS>MOLECULE
NuBBE_2348
 42 45 0 0 0
SMALL
GASTEIGER

@<TRIPOS>ATOM
      1 C           3.5930   -0.6018   -4.2450 C.3     1  LIG1        0.0790
      2 O           2.4665   -0.6318   -3.3774 O.3     1  LIG1       -0.4913
      3 C           2.6961   -0.3670   -2.0556 C.ar    1  LIG1        0.1657
      4 C           3.8931   -0.0357   -1.4507 C.ar    1  LIG1        0.2075
      5 O           5.1168    0.0933   -2.0365 O.3     1  LIG1       -0.4489
      6 C           5.9461    0.4318   -0.9125 C.3     1  LIG1        0.2334
      7 O           5.2196    0.5106    0.3264 O.3     1  LIG1       -0.4525
      8 C           3.9606    0.2064   -0.0943 C.ar    1  LIG1        0.1703
      9 C           2.8565    0.1301    0.7325 C.ar    1  LIG1       -0.0092
     10 C           1.6233   -0.2150    0.1627 C.ar    1  LIG1        0.0004
     11 C           0.3972   -0.3580    1.0453 C.3     1  LIG1        0.1320
     12 H           0.7357   -0.7857    2.0024 H       1  LIG1        0.0790
     13 O          -0.5055   -1.3586    0.4957 O.3     1  LIG1       -0.4832
     14 C          -1.7385   -0.9661    0.9399 C.ar    1  LIG1        0.1287
     15 C          -2.8665   -1.7514    0.8414 C.ar    1  LIG1        0.0255
     16 C          -4.0734   -1.2236    1.3071 C.ar    1  LIG1        0.1620
     17 O          -5.1905   -2.0101    1.2301 O.3     1  LIG1       -0.5032
     18 C          -4.1317    0.0737    1.8574 C.ar    1  LIG1        0.1618
     19 O          -5.2434    0.6966    2.3651 O.3     1  LIG1       -0.4914
     20 C          -6.4847    0.3602    1.7546 C.3     1  LIG1        0.0790
     21 C          -2.9571    0.8394    1.9536 C.ar    1  LIG1       -0.0093
     22 C          -1.7687    0.3102    1.4734 C.ar    1  LIG1        0.0046
     23 C          -0.4177    0.9313    1.3447 C.3     1  LIG1        0.0261
     24 H          -0.0841    1.3772    2.2888 H       1  LIG1        0.0387
     25 C          -0.4217    1.9900    0.2453 C.3     1  LIG1       -0.0546
     26 C           1.5605   -0.4514   -1.2334 C.ar    1  LIG1       -0.0094
     27 H           3.2457   -0.8468   -5.2533 H       1  LIG1        0.0660
     28 H           4.3320   -1.3590   -3.9620 H       1  LIG1        0.0660
     29 H           4.0340    0.3995   -4.2871 H       1  LIG1        0.0660
     30 H           6.4177    1.4017   -1.1068 H       1  LIG1        0.1166
     31 H           6.7315   -0.3267   -0.8154 H       1  LIG1        0.1166
     32 H           2.9610    0.3182    1.7948 H       1  LIG1        0.0659
     33 H          -2.7922   -2.7439    0.4160 H       1  LIG1        0.0692
     34 H          -4.9478   -2.8656    0.8398 H       1  LIG1        0.2923
     35 H          -7.2273    1.0920    2.0881 H       1  LIG1        0.0660
     36 H          -6.8438   -0.6178    2.0858 H       1  LIG1        0.0660
     37 H          -6.4259    0.4228    0.6623 H       1  LIG1        0.0660
     38 H          -2.9948    1.8404    2.3734 H       1  LIG1        0.0659
     39 H          -0.6970    1.5686   -0.7279 H       1  LIG1        0.0237
     40 H           0.5617    2.4612    0.1515 H       1  LIG1        0.0237
     41 H          -1.1449    2.7826    0.4705 H       1  LIG1        0.0237
     42 H           0.6085   -0.7218   -1.6909 H       1  LIG1        0.0659
@<TRIPOS>BOND
     1     1     2    1
     2     2     3    1
     3     3     4   ar
     4     4     5    1
     5     5     6    1
     6     6     7    1
     7     4     8   ar
     8     7     8    1
     9     8     9   ar
    10     9    10   ar
    11    10    11    1
    12    11    12    1
    13    11    13    1
    14    13    14    1
    15    14    15   ar
    16    15    16   ar
    17    16    17    1
    18    16    18   ar
    19    18    19    1
    20    19    20    1
    21    18    21   ar
    22    21    22   ar
    23    14    22   ar
    24    22    23    1
    25    11    23    1
    26    10    26   ar
    27     3    26   ar
    28    23    25    1
    29    23    24    1
    30     1    27    1
    31     1    28    1
    32     1    29    1
    33     6    30    1
    34     6    31    1
    35     9    32    1
    36    15    33    1
    37    17    34    1
    38    20    35    1
    39    20    36    1
    40    20    37    1
    41    21    38    1
    42    25    39    1
    43    25    40    1
    44    25    41    1
    45    26    42    1
