REMARK  Name = NuBBE_1868
REMARK  11 active torsions:
REMARK  status: ('A' for Active; 'I' for Inactive)
REMARK    1  A    between atoms: C_1  and  O_2
REMARK    2  A    between atoms: O_2  and  C_3
REMARK    3  A    between atoms: C_4  and  C_5
REMARK    4  A    between atoms: C_7  and  O_8
REMARK    5  A    between atoms: C_9  and  O_10
REMARK    6  A    between atoms: O_10  and  C_11
REMARK    7  A    between atoms: C_13  and  O_14
REMARK    8  A    between atoms: C_18  and  O_19
REMARK    9  A    between atoms: O_19  and  C_20
REMARK   10  A    between atoms: C_22  and  O_23
REMARK   11  A    between atoms: O_23  and  C_24
REMARK                            x       y       z     vdW  Elec       q    Type
REMARK                         _______ _______ _______ _____ _____    ______ ____
ROOT
ATOM      1  C   LIG A   1      -0.441  -0.023  -1.605  0.00  0.00    +0.211 A 
ATOM      2  C   LIG A   1       0.174  -0.524  -0.509  0.00  0.00    +0.184 A 
ATOM      3  O   LIG A   1       0.939   0.242   0.362  0.00  0.00    -0.451 OA
ATOM      4  C   LIG A   1       0.657   1.579   0.418  0.00  0.00    +0.147 A 
ATOM      5  C   LIG A   1      -0.035   2.237  -0.600  0.00  0.00    +0.109 A 
ATOM      6  C   LIG A   1      -0.443   3.563  -0.441  0.00  0.00    +0.138 A 
ATOM      7  C   LIG A   1      -0.072   4.233   0.730  0.00  0.00    +0.092 A 
ATOM      8  C   LIG A   1       0.713   3.601   1.703  0.00  0.00    +0.127 A 
ATOM      9  C   LIG A   1       1.062   2.264   1.560  0.00  0.00    +0.092 A 
ATOM     10  C   LIG A   1      -0.258   1.450  -1.810  0.00  0.00    +0.238 A 
ATOM     11  O   LIG A   1      -0.227   1.969  -2.924  0.00  0.00    -0.283 OA
ENDROOT
BRANCH   2  12
ATOM     12  C   LIG A   1       0.146  -1.940  -0.101  0.00  0.00    +0.066 A 
ATOM     13  C   LIG A   1       1.148  -2.804  -0.556  0.00  0.00    +0.064 A 
ATOM     14  C   LIG A   1       1.151  -4.153  -0.180  0.00  0.00    +0.159 A 
ATOM     15  C   LIG A   1       0.157  -4.662   0.663  0.00  0.00    +0.165 A 
ATOM     16  C   LIG A   1      -0.807  -3.784   1.176  0.00  0.00    +0.095 A 
ATOM     17  C   LIG A   1      -0.810  -2.437   0.796  0.00  0.00    +0.131 A 
BRANCH  14  18
ATOM     18  O   LIG A   1       2.163  -4.949  -0.639  0.00  0.00    -0.503 OA
ATOM     19  H   LIG A   1       2.800  -4.407  -1.132  0.00  0.00    +0.292 HD
ENDBRANCH  14  18
BRANCH  15  20
ATOM     20  O   LIG A   1       0.036  -5.955   1.106  0.00  0.00    -0.491 OA
ATOM     21  C   LIG A   1       0.461  -6.972   0.202  0.00  0.00    +0.277 C 
ENDBRANCH  15  20
BRANCH  17  22
ATOM     22  O   LIG A   1      -1.752  -1.586   1.312  0.00  0.00    -0.506 OA
ATOM     23  H   LIG A   1      -2.324  -2.081   1.921  0.00  0.00    +0.292 HD
ENDBRANCH  17  22
ENDBRANCH   2  12
BRANCH   1  25
ATOM     24  C   LIG A   1      -2.178  -0.132  -3.211  0.00  0.00    +0.277 C 
ATOM     25  O   LIG A   1      -1.128  -0.812  -2.518  0.00  0.00    -0.488 OA
ENDBRANCH   1  25
BRANCH   6  26
ATOM     26  O   LIG A   1      -1.225   4.118  -1.420  0.00  0.00    -0.494 OA
ATOM     27  C   LIG A   1      -1.625   5.469  -1.244  0.00  0.00    +0.277 C 
ENDBRANCH   6  26
BRANCH   8  28
ATOM     28  O   LIG A   1       1.029   4.372   2.790  0.00  0.00    -0.495 OA
ATOM     29  C   LIG A   1       2.265   4.045   3.414  0.00  0.00    +0.277 C 
ENDBRANCH   8  28
TORSDOF 7
