REMARK  Name = NuBBE_1101
REMARK  5 active torsions:
REMARK  status: ('A' for Active; 'I' for Inactive)
REMARK    1  A    between atoms: N_8  and  C_9
REMARK    2  A    between atoms: C_14  and  O_15
REMARK    3  A    between atoms: O_15  and  C_16
REMARK    4  A    between atoms: C_17  and  O_18
REMARK    5  A    between atoms: O_18  and  C_19
REMARK                            x       y       z     vdW  Elec       q    Type
REMARK                         _______ _______ _______ _____ _____    ______ ____
ROOT
ATOM      1  O   LIG A   1      -3.327  -1.836   0.585  0.00  0.00    -0.286 OA
ATOM      2  C   LIG A   1      -2.119  -1.745   0.403  0.00  0.00    +0.200 A 
ATOM      3  C   LIG A   1      -1.261  -2.891   0.294  0.00  0.00    +0.085 A 
ATOM      4  C   LIG A   1       0.086  -2.712   0.123  0.00  0.00    +0.212 A 
ATOM      5  O   LIG A   1       0.719  -3.910   0.045  0.00  0.00    -0.447 OA
ATOM      6  C   LIG A   1      -0.246  -4.865   0.164  0.00  0.00    +0.198 A 
ATOM      7  C   LIG A   1      -1.487  -4.286   0.322  0.00  0.00    +0.055 A 
ATOM      8  N   LIG A   1       0.741  -1.531   0.032  0.00  0.00    -0.311 N 
ATOM      9  C   LIG A   1       2.195  -1.530  -0.064  0.00  0.00    +0.152 C 
ATOM     10  C   LIG A   1      -0.022  -0.324   0.059  0.00  0.00    +0.101 A 
ATOM     11  C   LIG A   1      -1.437  -0.414   0.265  0.00  0.00    +0.050 A 
ATOM     12  C   LIG A   1      -2.250   0.723   0.332  0.00  0.00    +0.017 A 
ATOM     13  C   LIG A   1      -1.697   1.985   0.164  0.00  0.00    +0.050 A 
ATOM     14  C   LIG A   1      -0.330   2.127  -0.091  0.00  0.00    +0.164 A 
ATOM     15  C   LIG A   1       0.516   0.985  -0.109  0.00  0.00    +0.186 A 
ENDROOT
BRANCH  14  16
ATOM     16  O   LIG A   1       0.237   3.357  -0.312  0.00  0.00    -0.491 OA
ATOM     17  C   LIG A   1      -0.594   4.351  -0.901  0.00  0.00    +0.277 C 
ENDBRANCH  14  16
BRANCH  15  18
ATOM     18  O   LIG A   1       1.856   1.083  -0.416  0.00  0.00    -0.489 OA
ATOM     19  C   LIG A   1       2.581   2.145   0.198  0.00  0.00    +0.277 C 
ENDBRANCH  15  18
TORSDOF 2
