@<TRIPOS>MOLECULE
NuBBE_1247
 35 36 0 0 0
SMALL
GASTEIGER

@<TRIPOS>ATOM
      1 O          -3.8722   -1.3206    0.4724 O.2     1  LIG1       -0.2872
      2 C          -2.6532   -1.2753    0.5529 C.ar    1  LIG1        0.1897
      3 C          -1.9438    0.0291    0.5263 C.ar    1  LIG1        0.0049
      4 C          -0.6059    0.0659    0.6553 C.ar    1  LIG1        0.0201
      5 N           0.1463   -1.0792    0.8190 N.ar    1  LIG1       -0.3576
      6 C          -0.4350   -2.3564    0.8237 C.ar    1  LIG1        0.0538
      7 C           0.3615   -3.5046    0.8719 C.ar    1  LIG1        0.0038
      8 C          -0.2317   -4.7625    0.7616 C.ar    1  LIG1        0.1188
      9 O           0.5197   -5.9011    0.7615 O.3     1  LIG1       -0.5067
     10 C          -1.6097   -4.9018    0.6244 C.ar    1  LIG1       -0.0194
     11 C          -2.4159   -3.7654    0.5800 C.ar    1  LIG1       -0.0455
     12 C          -1.8240   -2.5004    0.6629 C.ar    1  LIG1        0.0452
     13 H           1.1158   -0.9817    1.0962 H       1  LIG1        0.1656
     14 C           0.1305    1.3917    0.6488 C.3     1  LIG1       -0.0098
     15 C           0.6247    1.7784   -0.7577 C.3     1  LIG1       -0.0192
     16 C           1.3816    3.1240   -0.8098 C.3     1  LIG1        0.0609
     17 O           2.5310    3.0419    0.0361 O.3     1  LIG1       -0.3891
     18 C           1.8552    3.4272   -2.2374 C.3     1  LIG1       -0.0363
     19 C           0.5247    4.2891   -0.3103 C.3     1  LIG1       -0.0363
     20 H          -2.5591    0.9098    0.3967 H       1  LIG1        0.0673
     21 H           1.4372   -3.4104    0.9734 H       1  LIG1        0.0675
     22 H           1.4603   -5.6598    0.7809 H       1  LIG1        0.2921
     23 H          -2.0515   -5.8907    0.5343 H       1  LIG1        0.0654
     24 H          -3.4919   -3.8641    0.4575 H       1  LIG1        0.0626
     25 H           0.9752    1.3436    1.3473 H       1  LIG1        0.0328
     26 H          -0.5399    2.1669    1.0373 H       1  LIG1        0.0328
     27 H          -0.2295    1.8159   -1.4465 H       1  LIG1        0.0296
     28 H           1.2902    0.9824   -1.1190 H       1  LIG1        0.0296
     29 H           3.1958    2.4878   -0.4080 H       1  LIG1        0.2101
     30 H           2.4991    2.6279   -2.6210 H       1  LIG1        0.0257
     31 H           2.4582    4.3432   -2.2593 H       1  LIG1        0.0257
     32 H           1.0123    3.5535   -2.9247 H       1  LIG1        0.0257
     33 H           0.2968    4.1947    0.7561 H       1  LIG1        0.0257
     34 H          -0.4146    4.3619   -0.8683 H       1  LIG1        0.0257
     35 H           1.0614    5.2392   -0.4145 H       1  LIG1        0.0257
@<TRIPOS>BOND
     1     1     2    2
     2     2     3   ar
     3     3     4   ar
     4     4     5   ar
     5     5     6   ar
     6     6     7   ar
     7     7     8   ar
     8     8     9    1
     9     8    10   ar
    10    10    11   ar
    11    11    12   ar
    12     6    12   ar
    13     2    12   ar
    14     5    13    1
    15     4    14    1
    16    14    15    1
    17    15    16    1
    18    16    17    1
    19    16    18    1
    20    16    19    1
    21     3    20    1
    22     7    21    1
    23     9    22    1
    24    10    23    1
    25    11    24    1
    26    14    25    1
    27    14    26    1
    28    15    27    1
    29    15    28    1
    30    17    29    1
    31    18    30    1
    32    18    31    1
    33    18    32    1
    34    19    33    1
    35    19    34    1
    36    19    35    1
