@<TRIPOS>MOLECULE
NuBBE_1787
 35 37 0 0 0
SMALL
GASTEIGER

@<TRIPOS>ATOM
      1 O          -3.2061   -1.6765   -0.1561 O.2     1  LIG1       -0.2830
      2 C          -1.9956   -1.5629    0.0262 C.ar    1  LIG1        0.2379
      3 C          -1.0532   -2.6748    0.2263 C.ar    1  LIG1        0.1092
      4 C           0.2941   -2.3539    0.4040 C.ar    1  LIG1        0.1465
      5 O           0.7723   -1.0655    0.4047 O.2     1  LIG1       -0.4507
      6 C          -0.1140   -0.0087    0.2200 C.ar    1  LIG1        0.1807
      7 C          -1.4378   -0.1884    0.0440 C.ar    1  LIG1        0.2082
      8 O          -2.3607    0.8302   -0.1227 O.3     1  LIG1       -0.5007
      9 C           0.5485    1.3260    0.2509 C.ar    1  LIG1        0.0247
     10 C           0.0740    2.4079   -0.5166 C.ar    1  LIG1       -0.0055
     11 C           0.6959    3.6586   -0.4822 C.ar    1  LIG1        0.1619
     12 O           0.3004    4.7727   -1.1796 O.3     1  LIG1       -0.4914
     13 C          -0.8780    4.6357   -1.9689 C.3     1  LIG1        0.0790
     14 C           1.8293    3.8232    0.3154 C.ar    1  LIG1        0.1585
     15 C           2.3414    2.7735    1.0640 C.ar    1  LIG1       -0.0159
     16 C           1.7028    1.5296    1.0300 C.ar    1  LIG1       -0.0473
     17 O           2.4652    5.0331    0.3714 O.3     1  LIG1       -0.5033
     18 C           1.2426   -3.3635    0.5937 C.ar    1  LIG1        0.0231
     19 C           0.8302   -4.6919    0.6045 C.ar    1  LIG1        0.1239
     20 C          -0.5084   -5.0276    0.4329 C.ar    1  LIG1        0.0223
     21 C          -1.4514   -4.0171    0.2434 C.ar    1  LIG1        0.1348
     22 O          -2.7623   -4.3615    0.0775 O.3     1  LIG1       -0.5058
     23 O           1.7151   -5.7134    0.7821 O.3     1  LIG1       -0.5065
     24 H          -3.2197    0.3621   -0.2278 H       1  LIG1        0.2924
     25 H          -0.7935    2.2567   -1.1484 H       1  LIG1        0.0662
     26 H          -1.0473    5.5834   -2.4884 H       1  LIG1        0.0660
     27 H          -1.7516    4.4377   -1.3384 H       1  LIG1        0.0660
     28 H          -0.7562    3.8601   -2.7326 H       1  LIG1        0.0660
     29 H           3.2292    2.9231    1.6713 H       1  LIG1        0.0655
     30 H           2.1180    0.7217    1.6286 H       1  LIG1        0.0626
     31 H           1.9435    5.6185   -0.2119 H       1  LIG1        0.2923
     32 H           2.2867   -3.0985    0.7289 H       1  LIG1        0.0691
     33 H          -0.7969   -6.0746    0.4479 H       1  LIG1        0.0691
     34 H          -2.8675   -5.3253    0.1276 H       1  LIG1        0.2922
     35 H           2.6113   -5.3496    0.8785 H       1  LIG1        0.2921
@<TRIPOS>BOND
     1     1     2    2
     2     2     3   ar
     3     3     4   ar
     4     4     5   ar
     5     5     6   ar
     6     6     7   ar
     7     2     7   ar
     8     7     8    1
     9     6     9    1
    10     9    10   ar
    11    10    11   ar
    12    11    12    1
    13    12    13    1
    14    11    14   ar
    15    14    15   ar
    16    15    16   ar
    17     9    16   ar
    18    14    17    1
    19     4    18   ar
    20    18    19   ar
    21    19    20   ar
    22    20    21   ar
    23     3    21   ar
    24    21    22    1
    25    19    23    1
    26     8    24    1
    27    10    25    1
    28    13    26    1
    29    13    27    1
    30    13    28    1
    31    15    29    1
    32    16    30    1
    33    17    31    1
    34    18    32    1
    35    20    33    1
    36    22    34    1
    37    23    35    1
