@<TRIPOS>MOLECULE
NuBBE_2265
 33 34 0 0 0
SMALL
GASTEIGER

@<TRIPOS>ATOM
      1 C           0.4089   -1.1248   -0.0087 C.ar    1  LIG1        0.0000
      2 C           1.6713   -0.4816   -0.0202 C.ar    1  LIG1        0.0000
      3 C           1.6580    0.9634   -0.0370 C.ar    1  LIG1        0.0000
      4 C           0.4289    1.6563   -0.0268 C.ar    1  LIG1        0.0000
      5 C          -0.8190    0.9794   -0.0174 C.ar    1  LIG1        0.0000
      6 C          -0.8211   -0.4423   -0.0123 C.ar    1  LIG1        0.0000
      7 C          -2.0683   -1.1517   -0.0108 C.ar    1  LIG1        0.0000
      8 C          -3.2636   -0.4322   -0.0122 C.ar    1  LIG1        0.0000
      9 C          -3.2690    0.9495   -0.0142 C.ar    1  LIG1        0.0000
     10 C          -2.0755    1.6771   -0.0168 C.ar    1  LIG1        0.0000
     11 C          -2.1974    3.1852   -0.0205 C.3     1  LIG1        0.0000
     12 C          -2.2167   -2.6636   -0.0121 C.3     1  LIG1        0.0000
     13 O           0.4603    3.0076   -0.0337 O.3     1  LIG1        0.0000
     14 AC         -1.2415    4.4310    0.9860 Ac      1  LIG1        0.0000
     15 O           2.7488    1.7704   -0.0790 O.3     1  LIG1        0.0000
     16 AC          3.9084    3.8812    0.4459 Ac      1  LIG1        0.0000
     17 C           2.9332   -1.3743   -0.0159 C.2     1  LIG1        0.0000
     18 C           4.1115   -0.9939    0.5445 C.2     1  LIG1        0.0000
     19 C           2.9817   -2.7320   -0.6390 C.3     1  LIG1        0.0000
     20 H           0.3773   -2.1756    0.0061 H       1  LIG1        0.0000
     21 H          -4.2122   -0.9566   -0.0122 H       1  LIG1        0.0000
     22 H          -4.2244    1.4603   -0.0152 H       1  LIG1        0.0000
     23 H          -3.2568    3.5203   -0.0195 H       1  LIG1        0.0000
     24 H          -1.7313    3.6058   -0.9360 H       1  LIG1        0.0000
     25 H          -1.7277    3.6095    0.8914 H       1  LIG1        0.0000
     26 H          -1.3032   -3.2753   -0.0155 H       1  LIG1        0.0000
     27 H          -2.7912   -2.9670   -0.9129 H       1  LIG1        0.0000
     28 H          -2.7901   -2.9695    0.8882 H       1  LIG1        0.0000
     29 H           4.3032   -0.0587    1.0393 H       1  LIG1        0.0000
     30 H           4.9684   -1.6626    0.5084 H       1  LIG1        0.0000
     31 H           2.0842   -2.9593   -1.1609 H       1  LIG1        0.0000
     32 H           3.1778   -3.5013    0.1409 H       1  LIG1        0.0000
     33 H           3.7874   -2.7749   -1.4019 H       1  LIG1        0.0000
@<TRIPOS>BOND
     1     1     2   ar
     2     2     3   ar
     3     3     4   ar
     4     4     5   ar
     5     5     6   ar
     6     1     6   ar
     7     6     7   ar
     8     7     8   ar
     9     8     9   ar
    10     9    10   ar
    11     5    10   ar
    12    10    11    1
    13     7    12    1
    14     4    13    1
    15    13    14    1
    16     3    15    1
    17    15    16    1
    18     2    17    1
    19    17    18    2
    20    17    19    1
    21     1    20    1
    22     8    21    1
    23     9    22    1
    24    11    23    1
    25    11    24    1
    26    11    25    1
    27    12    26    1
    28    12    27    1
    29    12    28    1
    30    18    29    1
    31    18    30    1
    32    19    31    1
    33    19    32    1
    34    19    33    1
