@<TRIPOS>MOLECULE
NuBBE_2262
 35 36 0 0 0
SMALL
GASTEIGER

@<TRIPOS>ATOM
      1 C          -3.4718   -2.7034   -0.0031 C.2     1  LIG1        0.1509
      2 O          -3.9806   -3.8194   -0.0474 O.2     1  LIG1       -0.2957
      3 C          -1.9961   -2.5125   -0.0541 C.ar    1  LIG1        0.0255
      4 C          -1.3479   -1.2365   -0.0190 C.ar    1  LIG1        0.0377
      5 C           0.0794   -1.2113   -0.0325 C.ar    1  LIG1       -0.0102
      6 C           0.7518    0.0462    0.0072 C.ar    1  LIG1       -0.0441
      7 C           0.0961    1.2936    0.0567 C.ar    1  LIG1        0.0290
      8 C          -1.2922    1.2435    0.0728 C.ar    1  LIG1        0.1649
      9 C          -1.9903    0.0269    0.0264 C.ar    1  LIG1        0.1671
     10 O          -3.3594    0.1439    0.0074 O.3     1  LIG1       -0.5029
     11 O          -2.0851    2.3658    0.1299 O.3     1  LIG1       -0.5030
     12 C           0.8981    2.5944    0.0770 C.3     1  LIG1        0.0889
     13 C           1.8287    2.6627    1.2945 C.3     1  LIG1       -0.0320
     14 C           1.6900    2.7896   -1.2238 C.3     1  LIG1       -0.0320
     15 O           0.0002    3.7174    0.1834 O.3     1  LIG1       -0.3844
     16 C           0.8081   -2.4357   -0.0890 C.ar    1  LIG1       -0.0426
     17 C           0.1333   -3.6607   -0.1361 C.ar    1  LIG1       -0.0576
     18 C          -1.2512   -3.6983   -0.1198 C.ar    1  LIG1       -0.0506
     19 C           2.3176   -2.4795   -0.1016 C.3     1  LIG1       -0.0391
     20 H          -4.1284   -1.8339    0.0888 H       1  LIG1        0.1082
     21 H           1.8410    0.0519   -0.0023 H       1  LIG1        0.0628
     22 H          -3.5236    1.1114    0.0271 H       1  LIG1        0.2923
     23 H          -1.4680    3.1320    0.1667 H       1  LIG1        0.2923
     24 H           2.6109    1.8975    1.2690 H       1  LIG1        0.0260
     25 H           1.2606    2.5410    2.2243 H       1  LIG1        0.0260
     26 H           2.3171    3.6426    1.3568 H       1  LIG1        0.0260
     27 H           2.4478    2.0144   -1.3760 H       1  LIG1        0.0260
     28 H           2.1971    3.7625   -1.2289 H       1  LIG1        0.0260
     29 H           1.0206    2.7891   -2.0924 H       1  LIG1        0.0260
     30 H           0.5487    4.5241    0.1872 H       1  LIG1        0.2106
     31 H           0.6809   -4.6004   -0.1813 H       1  LIG1        0.0621
     32 H          -1.7522   -4.6649   -0.1521 H       1  LIG1        0.0625
     33 H           2.7075   -1.9474   -0.9749 H       1  LIG1        0.0278
     34 H           2.6922   -3.5081   -0.1569 H       1  LIG1        0.0278
     35 H           2.7192   -2.0382    0.8160 H       1  LIG1        0.0278
@<TRIPOS>BOND
     1     1     2    2
     2     1     3    1
     3     3     4   ar
     4     4     5   ar
     5     5     6   ar
     6     6     7   ar
     7     7     8   ar
     8     8     9   ar
     9     4     9   ar
    10     9    10    1
    11     8    11    1
    12     7    12    1
    13    12    13    1
    14    12    14    1
    15    12    15    1
    16     5    16   ar
    17    16    17   ar
    18    17    18   ar
    19     3    18   ar
    20    16    19    1
    21     1    20    1
    22     6    21    1
    23    10    22    1
    24    11    23    1
    25    13    24    1
    26    13    25    1
    27    13    26    1
    28    14    27    1
    29    14    28    1
    30    14    29    1
    31    15    30    1
    32    17    31    1
    33    18    32    1
    34    19    33    1
    35    19    34    1
    36    19    35    1
