REMARK  Name = NuBBE_1777
REMARK  4 active torsions:
REMARK  status: ('A' for Active; 'I' for Inactive)
REMARK    1  A    between atoms: O_1  and  C_2
REMARK    2  A    between atoms: C_3  and  C_4
REMARK    3  A    between atoms: C_12  and  O_14
REMARK    4  A    between atoms: O_14  and  C_15
REMARK                            x       y       z     vdW  Elec       q    Type
REMARK                         _______ _______ _______ _____ _____    ______ ____
ROOT
ATOM      1  C   LIG A   1       0.659   0.098  -0.730  0.00  0.00    +0.207 C 
ATOM      2  O   LIG A   1      -0.610   0.143  -0.040  0.00  0.00    -0.484 OA
ATOM      3  C   LIG A   1      -1.259   1.347  -0.031  0.00  0.00    +0.128 A 
ATOM      4  C   LIG A   1      -0.637   2.556  -0.341  0.00  0.00    -0.005 A 
ATOM      5  C   LIG A   1       0.806   2.592  -0.737  0.00  0.00    +0.043 C 
ATOM      6  C   LIG A   1       1.513   1.308  -0.327  0.00  0.00    +0.054 C 
ATOM      7  C   LIG A   1      -1.389   3.736  -0.308  0.00  0.00    +0.011 A 
ATOM      8  C   LIG A   1      -2.736   3.701   0.057  0.00  0.00    +0.046 A 
ATOM      9  C   LIG A   1      -3.343   2.495   0.407  0.00  0.00    +0.124 A 
ATOM     10  C   LIG A   1      -2.603   1.314   0.354  0.00  0.00    +0.091 A 
ENDROOT
BRANCH   1  12
ATOM     11  C   LIG A   1       0.530  -2.436  -0.222  0.00  0.00    +0.127 A 
ATOM     12  C   LIG A   1       1.302  -1.266  -0.451  0.00  0.00    +0.038 A 
ATOM     13  C   LIG A   1       2.705  -1.421  -0.501  0.00  0.00    +0.060 A 
ATOM     14  C   LIG A   1       3.253  -2.673  -0.289  0.00  0.00    +0.167 A 
ATOM     15  C   LIG A   1       2.480  -3.777  -0.051  0.00  0.00    +0.170 A 
ATOM     16  C   LIG A   1       1.107  -3.694  -0.019  0.00  0.00    +0.095 A 
ATOM     17  O   LIG A   1       3.217  -4.904   0.128  0.00  0.00    -0.453 OA
ATOM     18  C   LIG A   1       4.552  -4.377  -0.015  0.00  0.00    +0.466 C 
ATOM     19  O   LIG A   1       4.583  -2.962  -0.296  0.00  0.00    -0.453 OA
BRANCH  11  20
ATOM     20  O   LIG A   1      -0.839  -2.422  -0.185  0.00  0.00    -0.506 OA
ATOM     21  H   LIG A   1      -1.121  -1.490  -0.115  0.00  0.00    +0.292 HD
ENDBRANCH  11  20
ENDBRANCH   1  12
BRANCH   9  22
ATOM     22  O   LIG A   1      -4.668   2.582   0.736  0.00  0.00    -0.495 OA
ATOM     23  C   LIG A   1      -5.144   1.590   1.640  0.00  0.00    +0.277 C 
ENDBRANCH   9  22
TORSDOF 3
