REMARK  Name = NuBBE_2156
REMARK  4 active torsions:
REMARK  status: ('A' for Active; 'I' for Inactive)
REMARK    1  A    between atoms: C_1  and  C_2
REMARK    2  A    between atoms: C_4  and  C_21
REMARK    3  A    between atoms: C_7  and  C_12
REMARK    4  A    between atoms: C_9  and  C_11
REMARK                            x       y       z     vdW  Elec       q    Type
REMARK                         _______ _______ _______ _____ _____    ______ ____
ROOT
ATOM      1  C   LIG A   1      -1.086   1.516  -1.762  0.00  0.00    +0.011 C 
ATOM      2  C   LIG A   1      -1.228   0.449  -0.673  0.00  0.00    +0.025 C 
ATOM      3  C   LIG A   1      -0.629   0.942   0.649  0.00  0.00    +0.152 C 
ATOM      4  O   LIG A   1       0.709   0.432   0.721  0.00  0.00    -0.364 OA
ATOM      5  C   LIG A   1       0.920  -0.583  -0.272  0.00  0.00    +0.152 C 
ATOM      6  C   LIG A   1      -0.410  -0.795  -1.009  0.00  0.00    +0.025 C 
ATOM      7  C   LIG A   1      -1.104  -2.073  -0.530  0.00  0.00    +0.011 C 
ENDROOT
BRANCH   5   8
ATOM      8  C   LIG A   1       2.083  -0.214  -1.181  0.00  0.00    -0.015 A 
ATOM      9  C   LIG A   1       2.457  -1.091  -2.218  0.00  0.00    +0.055 A 
ATOM     10  C   LIG A   1       3.529  -0.749  -3.016  0.00  0.00    +0.167 A 
ATOM     11  C   LIG A   1       4.242   0.408  -2.817  0.00  0.00    +0.166 A 
ATOM     12  C   LIG A   1       3.925   1.286  -1.806  0.00  0.00    +0.050 A 
ATOM     13  C   LIG A   1       2.840   0.966  -0.982  0.00  0.00    +0.010 A 
ATOM     14  O   LIG A   1       5.258   0.552  -3.708  0.00  0.00    -0.453 OA
ATOM     15  C   LIG A   1       5.107  -0.652  -4.487  0.00  0.00    +0.466 C 
ATOM     16  O   LIG A   1       4.007  -1.481  -4.058  0.00  0.00    -0.453 OA
ENDBRANCH   5   8
BRANCH   3  17
ATOM     17  C   LIG A   1      -1.430   0.548   1.882  0.00  0.00    -0.015 A 
ATOM     18  C   LIG A   1      -2.759   0.994   2.012  0.00  0.00    +0.055 A 
ATOM     19  C   LIG A   1      -3.466   0.637   3.142  0.00  0.00    +0.167 A 
ATOM     20  C   LIG A   1      -2.905  -0.123   4.138  0.00  0.00    +0.166 A 
ATOM     21  C   LIG A   1      -1.604  -0.565   4.064  0.00  0.00    +0.050 A 
ATOM     22  C   LIG A   1      -0.863  -0.220   2.928  0.00  0.00    +0.010 A 
ATOM     23  O   LIG A   1      -3.769  -0.359   5.161  0.00  0.00    -0.453 OA
ATOM     24  C   LIG A   1      -4.940   0.341   4.692  0.00  0.00    +0.466 C 
ATOM     25  O   LIG A   1      -4.754   0.979   3.411  0.00  0.00    -0.453 OA
ENDBRANCH   3  17
TORSDOF 2
