REMARK  Name = NuBBE_1795
REMARK  18 active torsions:
REMARK  status: ('A' for Active; 'I' for Inactive)
REMARK    1  A    between atoms: C_2  and  C_3
REMARK    2  A    between atoms: C_3  and  C_4
REMARK    3  A    between atoms: C_4  and  C_5
REMARK    4  A    between atoms: C_5  and  C_6
REMARK    5  A    between atoms: C_6  and  C_7
REMARK    6  A    between atoms: C_7  and  C_8
REMARK    7  A    between atoms: C_8  and  C_9
REMARK    8  A    between atoms: C_9  and  C_10
REMARK    9  A    between atoms: C_10  and  C_11
REMARK   10  A    between atoms: C_13  and  C_14
REMARK   11  A    between atoms: C_14  and  C_15
REMARK   12  A    between atoms: C_15  and  O_16
REMARK   13  A    between atoms: C_15  and  C_20
REMARK   14  A    between atoms: O_16  and  C_17
REMARK   15  A    between atoms: C_17  and  C_18
REMARK   16  A    between atoms: C_20  and  O_21
REMARK   17  A    between atoms: O_21  and  C_22
REMARK   18  A    between atoms: C_22  and  C_23
REMARK                            x       y       z     vdW  Elec       q    Type
REMARK                         _______ _______ _______ _____ _____    ______ ____
ROOT
ATOM      1  C   LIG A   1       0.165   0.376   0.095  0.00  0.00    +0.177 C 
ATOM      2  C   LIG A   1       0.827   1.718  -0.115  0.00  0.00    +0.059 C 
ATOM      3  C   LIG A   1       2.136   1.599   0.641  0.00  0.00    +0.105 C 
ATOM      4  C   LIG A   1       1.803   0.542   1.666  0.00  0.00    +0.311 C 
ATOM      5  O   LIG A   1       0.624  -0.075   1.366  0.00  0.00    -0.461 OA
ATOM      6  O   LIG A   1       2.481   0.280   2.646  0.00  0.00    -0.251 OA
ENDROOT
BRANCH   1   7
ATOM      7  C   LIG A   1      -1.354   0.508   0.058  0.00  0.00    +0.045 C 
BRANCH   7   8
ATOM      8  C   LIG A   1      -2.056  -0.833   0.255  0.00  0.00    +0.003 C 
BRANCH   8   9
ATOM      9  C   LIG A   1      -3.569  -0.660   0.175  0.00  0.00    +0.000 C 
BRANCH   9  10
ATOM     10  C   LIG A   1      -4.289  -1.995   0.359  0.00  0.00    -0.000 C 
BRANCH  10  11
ATOM     11  C   LIG A   1      -5.811  -1.854   0.307  0.00  0.00    +0.000 C 
BRANCH  11  12
ATOM     12  C   LIG A   1      -6.303  -1.310  -1.033  0.00  0.00    +0.001 C 
BRANCH  12  13
ATOM     13  C   LIG A   1      -7.828  -1.195  -1.073  0.00  0.00    +0.013 C 
BRANCH  13  14
ATOM     14  C   LIG A   1      -8.326  -0.642  -2.410  0.00  0.00    +0.088 C 
BRANCH  14  16
ATOM     15  C   LIG A   1      -7.639  -2.260  -4.417  0.00  0.00    +0.004 C 
ATOM     16  C   LIG A   1      -7.965  -1.526  -3.533  0.00  0.00    -0.106 C 
ENDBRANCH  14  16
ENDBRANCH  13  14
ENDBRANCH  12  13
ENDBRANCH  11  12
ENDBRANCH  10  11
ENDBRANCH   9  10
ENDBRANCH   8   9
ENDBRANCH   7   8
ENDBRANCH   1   7
BRANCH   3  17
ATOM     17  C   LIG A   1       3.299   1.226  -0.279  0.00  0.00    +0.063 C 
BRANCH  17  18
ATOM     18  C   LIG A   1       4.669   1.111   0.411  0.00  0.00    +0.214 C 
BRANCH  18  19
ATOM     19  C   LIG A   1       5.124   2.405   1.120  0.00  0.00    +0.276 C 
BRANCH  19  20
ATOM     20  O   LIG A   1       6.448   2.203   1.661  0.00  0.00    -0.461 OA
BRANCH  20  21
ATOM     21  C   LIG A   1       6.485   1.781   2.954  0.00  0.00    +0.304 C 
ATOM     22  C   LIG A   1       7.803   1.136   3.248  0.00  0.00    +0.136 C 
ATOM     23  O   LIG A   1       5.551   1.814   3.740  0.00  0.00    -0.251 OA
ENDBRANCH  20  21
ENDBRANCH  19  20
ENDBRANCH  18  19
BRANCH  18  24
ATOM     24  O   LIG A   1       5.683   0.800  -0.579  0.00  0.00    -0.458 OA
BRANCH  24  25
ATOM     25  C   LIG A   1       5.851  -0.520  -0.870  0.00  0.00    +0.304 C 
ATOM     26  C   LIG A   1       7.235  -0.748  -1.397  0.00  0.00    +0.136 C 
ATOM     27  O   LIG A   1       5.045  -1.408  -0.638  0.00  0.00    -0.251 OA
ENDBRANCH  24  25
ENDBRANCH  18  24
ENDBRANCH  17  18
ENDBRANCH   3  17
TORSDOF 16
