@<TRIPOS>MOLECULE
NuBBE_954
 61 66 0 0 0
SMALL
GASTEIGER

@<TRIPOS>ATOM
      1 C          -2.4861    1.6518    1.7668 C.3     1  LIG1       -0.0563
      2 C          -1.3509    1.9253    0.7572 C.3     1  LIG1        0.0074
      3 C          -0.0261    1.3099    1.2547 C.3     1  LIG1        0.1145
      4 C           0.8072    2.4431    1.8232 C.3     1  LIG1        0.0905
      5 H           1.8780    2.5098    1.7652 H       1  LIG1        0.0626
      6 O           0.1900    1.5041    2.6813 O.3     1  LIG1       -0.3631
      7 C           0.0629    3.7364    1.7287 C.3     1  LIG1       -0.0163
      8 C          -0.9877    3.4621    0.6376 C.3     1  LIG1       -0.0023
      9 H          -0.4426    3.5997   -0.3104 H       1  LIG1        0.0357
     10 C          -2.1412    4.4164    0.6131 C.ar    1  LIG1       -0.0059
     11 C          -2.7624    4.9162   -0.5163 C.ar    1  LIG1        0.0951
     12 O          -3.7736    5.7569   -0.1869 O.2     1  LIG1       -0.4708
     13 C          -3.8133    5.8122    1.1669 C.ar    1  LIG1        0.0919
     14 C          -2.8349    5.0119    1.7072 C.ar    1  LIG1       -0.0205
     15 C           0.4416   -0.1035    0.8149 C.3     1  LIG1        0.0695
     16 C          -0.0744   -1.1473    1.8372 C.3     1  LIG1       -0.0493
     17 C           1.9669   -0.2582    0.7512 C.2     1  LIG1        0.2060
     18 C           2.5302   -1.4679    0.0709 C.2     1  LIG1        0.1608
     19 O           3.8503   -1.7434    0.3713 O.2     1  LIG1       -0.5034
     20 C           1.7977   -2.2469   -0.7507 C.2     1  LIG1       -0.0017
     21 C           0.3911   -1.8122   -1.2250 C.3     1  LIG1        0.0158
     22 C          -0.0367   -0.4009   -0.6371 C.3     1  LIG1       -0.0130
     23 H           0.4915    0.3393   -1.2638 H       1  LIG1        0.0323
     24 C          -1.5390   -0.0810   -0.8020 C.3     1  LIG1       -0.0475
     25 C          -1.7632    1.4128   -0.6341 C.3     1  LIG1       -0.0440
     26 C           0.4144   -1.6370   -2.7742 C.3     1  LIG1       -0.0519
     27 C          -0.5806   -2.9346   -0.9153 C.2     1  LIG1       -0.0704
     28 C          -0.2601   -4.2276   -1.0546 C.2     1  LIG1       -0.0214
     29 C           1.0990   -4.5966   -1.5177 C.2     1  LIG1        0.1655
     30 C           2.2865   -3.6546   -1.2008 C.3     1  LIG1        0.0528
     31 C           3.2001   -3.5533   -2.4339 C.3     1  LIG1       -0.0488
     32 C           3.0519   -4.4234   -0.0896 C.3     1  LIG1       -0.0488
     33 O           1.2344   -5.6789   -2.0892 O.2     1  LIG1       -0.2918
     34 O           2.7928    0.4702    1.3025 O.2     1  LIG1       -0.2881
     35 H          -2.2849    2.1074    2.7423 H       1  LIG1        0.0236
     36 H          -2.6212    0.5799    1.9367 H       1  LIG1        0.0236
     37 H          -3.4455    2.0431    1.4114 H       1  LIG1        0.0236
     38 H           0.7236    4.5599    1.4373 H       1  LIG1        0.0297
     39 H          -0.3829    3.9900    2.6965 H       1  LIG1        0.0297
     40 H          -2.6076    4.7742   -1.5772 H       1  LIG1        0.1032
     41 H          -4.5774    6.4509    1.5877 H       1  LIG1        0.1029
     42 H          -2.6507    4.8724    2.7636 H       1  LIG1        0.0652
     43 H           0.3242   -0.9482    2.8392 H       1  LIG1        0.0240
     44 H           0.2334   -2.1694    1.6011 H       1  LIG1        0.0240
     45 H          -1.1644   -1.1406    1.9154 H       1  LIG1        0.0240
     46 H           4.1448   -0.9974    0.9395 H       1  LIG1        0.2923
     47 H          -2.1527   -0.6323   -0.0830 H       1  LIG1        0.0269
     48 H          -1.8976   -0.3621   -1.7967 H       1  LIG1        0.0269
     49 H          -2.8154    1.6505   -0.8341 H       1  LIG1        0.0272
     50 H          -1.1918    1.9222   -1.4211 H       1  LIG1        0.0272
     51 H           1.2184   -0.9570   -3.0811 H       1  LIG1        0.0241
     52 H          -0.5244   -1.2265   -3.1592 H       1  LIG1        0.0241
     53 H           0.5612   -2.5802   -3.3101 H       1  LIG1        0.0241
     54 H          -1.6087   -2.7043   -0.6535 H       1  LIG1        0.0582
     55 H          -0.9719   -5.0330   -0.9216 H       1  LIG1        0.0650
     56 H           2.6750   -3.1685   -3.3121 H       1  LIG1        0.0242
     57 H           3.5972   -4.5364   -2.7142 H       1  LIG1        0.0242
     58 H           4.0567   -2.8967   -2.2446 H       1  LIG1        0.0242
     59 H           2.5355   -4.3482    0.8748 H       1  LIG1        0.0242
     60 H           4.0789   -4.0675    0.0363 H       1  LIG1        0.0242
     61 H           3.1344   -5.4928   -0.3217 H       1  LIG1        0.0242
@<TRIPOS>BOND
     1     2     3    1
     2     3     4    1
     3     4     6    1
     4     4     7    1
     5     7     8    1
     6     2     8    1
     7    10    11   ar
     8    11    12   ar
     9    12    13   ar
    10    13    14   ar
    11    10    14   ar
    12     6     3    1
    13     3    15    1
    14    15    17    1
    15    17    18    1
    16    18    20    2
    17    20    21    1
    18    21    22    1
    19    15    22    1
    20    22    24    1
    21    24    25    1
    22     2    25    1
    23    21    27    1
    24    27    28    2
    25    28    29    1
    26    29    30    1
    27    20    30    1
    28     1     2    1
    29     4     5    1
    30    15    16    1
    31    17    34    2
    32    18    19    1
    33    21    26    1
    34    22    23    1
    35    29    33    2
    36    30    31    1
    37    30    32    1
    38     8    10    1
    39     8     9    1
    40     1    35    1
    41     1    36    1
    42     1    37    1
    43     7    38    1
    44     7    39    1
    45    11    40    1
    46    13    41    1
    47    14    42    1
    48    16    43    1
    49    16    44    1
    50    16    45    1
    51    19    46    1
    52    24    47    1
    53    24    48    1
    54    25    49    1
    55    25    50    1
    56    26    51    1
    57    26    52    1
    58    26    53    1
    59    27    54    1
    60    28    55    1
    61    31    56    1
    62    31    57    1
    63    31    58    1
    64    32    59    1
    65    32    60    1
    66    32    61    1
