REMARK  Name = NuBBE_1753
REMARK  5 active torsions:
REMARK  status: ('A' for Active; 'I' for Inactive)
REMARK    1  A    between atoms: O_1  and  C_2
REMARK    2  A    between atoms: O_1  and  C_3
REMARK    3  A    between atoms: C_5  and  C_6
REMARK    4  A    between atoms: C_6  and  C_7
REMARK    5  A    between atoms: C_11  and  O_12
REMARK                            x       y       z     vdW  Elec       q    Type
REMARK                         _______ _______ _______ _____ _____    ______ ____
ROOT
ATOM      1  C   LIG A   1      -1.329  -0.835  -0.103  0.00  0.00    +0.162 A 
ATOM      2  C   LIG A   1      -0.814   0.470  -0.173  0.00  0.00    +0.053 A 
ATOM      3  C   LIG A   1       0.543   0.715  -0.441  0.00  0.00    -0.040 A 
ATOM      4  C   LIG A   1       1.394  -0.378  -0.631  0.00  0.00    +0.008 A 
ATOM      5  C   LIG A   1       0.896  -1.682  -0.569  0.00  0.00    +0.049 A 
ATOM      6  C   LIG A   1      -0.460  -1.911  -0.308  0.00  0.00    +0.159 A 
ENDROOT
BRANCH   1   7
ATOM      7  O   LIG A   1      -2.672  -0.865   0.167  0.00  0.00    -0.491 OA
ATOM      8  C   LIG A   1      -3.304  -2.131   0.284  0.00  0.00    +0.277 C 
ENDBRANCH   1   7
BRANCH   6   9
ATOM      9  O   LIG A   1      -0.898  -3.206  -0.266  0.00  0.00    -0.503 OA
ATOM     10  H   LIG A   1      -0.144  -3.802  -0.401  0.00  0.00    +0.292 HD
ENDBRANCH   6   9
BRANCH   3  11
ATOM     11  C   LIG A   1       1.069   2.130  -0.525  0.00  0.00    +0.061 C 
BRANCH  11  12
ATOM     12  C   LIG A   1       1.514   2.688   0.803  0.00  0.00    -0.030 C 
ATOM     13  C   LIG A   1       2.741   3.162   1.051  0.00  0.00    +0.004 C 
ENDBRANCH  11  12
ENDBRANCH   3  11
TORSDOF 4
