@<TRIPOS>MOLECULE
NuBBE_2018
 41 43 0 0 0
SMALL
GASTEIGER

@<TRIPOS>ATOM
      1 O          -1.8540   -1.3713   -0.1309 O.2     1  LIG1       -0.2863
      2 C          -0.6218   -1.3311   -0.1396 C.ar    1  LIG1        0.2038
      3 C           0.1191   -2.6006   -0.1542 C.ar    1  LIG1        0.1097
      4 C          -0.5493   -3.8275   -0.1627 C.ar    1  LIG1        0.1349
      5 O          -1.9135   -3.9408   -0.1631 O.3     1  LIG1       -0.5058
      6 C           0.1682   -5.0173   -0.1695 C.ar    1  LIG1        0.0259
      7 C           1.5662   -4.9902   -0.1724 C.ar    1  LIG1        0.1657
      8 O           2.2236   -6.1898   -0.1726 O.3     1  LIG1       -0.5031
      9 C           2.2592   -3.7691   -0.1723 C.ar    1  LIG1        0.2049
     10 O           3.6181   -3.5837   -0.1896 O.3     1  LIG1       -0.4885
     11 C           4.4663   -4.7215   -0.2132 C.3     1  LIG1        0.0791
     12 C           1.5120   -2.5727   -0.1572 C.ar    1  LIG1        0.1870
     13 O           2.2054   -1.3846   -0.1435 O.2     1  LIG1       -0.4582
     14 C           1.4953   -0.2097   -0.1359 C.ar    1  LIG1        0.1040
     15 C           0.1594   -0.0619   -0.1295 C.ar    1  LIG1        0.0645
     16 C          -0.4742    1.2810   -0.1460 C.ar    1  LIG1       -0.0076
     17 C           0.1399    2.3966    0.4450 C.ar    1  LIG1       -0.0084
     18 C          -0.4493    3.6735    0.4261 C.ar    1  LIG1        0.1621
     19 O           0.3294    4.6262    1.0320 O.3     1  LIG1       -0.4914
     20 C          -0.3463    5.7081    1.6596 C.3     1  LIG1        0.0790
     21 C          -1.6837    3.8619   -0.2099 C.ar    1  LIG1        0.1615
     22 O          -2.1914    5.1298   -0.3139 O.3     1  LIG1       -0.4915
     23 C          -3.6117    5.2309   -0.3652 C.3     1  LIG1        0.0790
     24 C          -2.3054    2.7572   -0.8003 C.ar    1  LIG1       -0.0157
     25 C          -1.7129    1.4892   -0.7613 C.ar    1  LIG1       -0.0501
     26 H          -2.2932   -3.0320   -0.1517 H       1  LIG1        0.2922
     27 H          -0.3805   -5.9549   -0.1711 H       1  LIG1        0.0692
     28 H           1.5753   -6.9138   -0.1899 H       1  LIG1        0.2923
     29 H           5.4981   -4.3625   -0.2825 H       1  LIG1        0.0660
     30 H           4.2863   -5.3408   -1.0973 H       1  LIG1        0.0660
     31 H           4.3827   -5.2927    0.7167 H       1  LIG1        0.0660
     32 H           2.2024    0.6114   -0.1474 H       1  LIG1        0.1037
     33 H           1.0997    2.2997    0.9486 H       1  LIG1        0.0661
     34 H           0.3345    6.1266    2.4085 H       1  LIG1        0.0660
     35 H          -1.2519    5.3873    2.1856 H       1  LIG1        0.0660
     36 H          -0.5591    6.5005    0.9369 H       1  LIG1        0.0660
     37 H          -3.8711    6.2935   -0.3397 H       1  LIG1        0.0660
     38 H          -4.0675    4.7499    0.5068 H       1  LIG1        0.0660
     39 H          -4.0182    4.8251   -1.2966 H       1  LIG1        0.0660
     40 H          -3.2433    2.8470   -1.3385 H       1  LIG1        0.0655
     41 H          -2.2428    0.6729   -1.2483 H       1  LIG1        0.0625
@<TRIPOS>BOND
     1     1     2    2
     2     2     3   ar
     3     3     4   ar
     4     4     5    1
     5     4     6   ar
     6     6     7   ar
     7     7     8    1
     8     7     9   ar
     9     9    10    1
    10    10    11    1
    11     9    12   ar
    12     3    12   ar
    13    12    13   ar
    14    13    14   ar
    15    14    15   ar
    16     2    15   ar
    17    15    16    1
    18    16    17   ar
    19    17    18   ar
    20    18    19    1
    21    19    20    1
    22    18    21   ar
    23    21    22    1
    24    22    23    1
    25    21    24   ar
    26    24    25   ar
    27    16    25   ar
    28     5    26    1
    29     6    27    1
    30     8    28    1
    31    11    29    1
    32    11    30    1
    33    11    31    1
    34    14    32    1
    35    17    33    1
    36    20    34    1
    37    20    35    1
    38    20    36    1
    39    23    37    1
    40    23    38    1
    41    23    39    1
    42    24    40    1
    43    25    41    1
