REMARK  Name = NuBBE_1314
REMARK  3 active torsions:
REMARK  status: ('A' for Active; 'I' for Inactive)
REMARK    1  A    between atoms: C_3  and  O_4
REMARK    2  A    between atoms: O_4  and  C_5
REMARK    3  A    between atoms: C_6  and  C_7
REMARK                            x       y       z     vdW  Elec       q    Type
REMARK                         _______ _______ _______ _____ _____    ______ ____
ROOT
ATOM      1  O   LIG A   1      -3.197   1.095   0.462  0.00  0.00    -0.283 OA
ATOM      2  C   LIG A   1      -2.009   0.835   0.321  0.00  0.00    +0.235 A 
ATOM      3  C   LIG A   1      -1.477  -0.559   0.202  0.00  0.00    +0.210 A 
ATOM      4  C   LIG A   1      -0.145  -0.695   0.046  0.00  0.00    +0.181 A 
ATOM      5  O   LIG A   1       0.773   0.334  -0.022  0.00  0.00    -0.450 OA
ATOM      6  C   LIG A   1      -1.027   1.934   0.269  0.00  0.00    +0.069 A 
ATOM      7  C   LIG A   1       0.325   1.622   0.105  0.00  0.00    +0.150 A 
ATOM      8  C   LIG A   1       1.261   2.675   0.074  0.00  0.00    +0.063 A 
ATOM      9  C   LIG A   1       2.672   2.781  -0.061  0.00  0.00    +0.053 A 
ATOM     10  C   LIG A   1       2.969   4.124  -0.006  0.00  0.00    +0.196 A 
ATOM     11  O   LIG A   1       1.837   4.857   0.151  0.00  0.00    -0.463 OA
ATOM     12  C   LIG A   1       0.798   3.979   0.201  0.00  0.00    +0.138 A 
ATOM     13  C   LIG A   1      -0.542   4.324   0.358  0.00  0.00    +0.048 A 
ATOM     14  C   LIG A   1      -1.456   3.265   0.391  0.00  0.00    +0.019 A 
ENDROOT
BRANCH   4  15
ATOM     15  C   LIG A   1       0.486  -2.017  -0.082  0.00  0.00    +0.021 A 
ATOM     16  C   LIG A   1       0.921  -2.708   1.056  0.00  0.00    +0.012 A 
ATOM     17  C   LIG A   1       1.532  -3.958   0.928  0.00  0.00    +0.001 A 
ATOM     18  C   LIG A   1       1.712  -4.522  -0.334  0.00  0.00    +0.000 A 
ATOM     19  C   LIG A   1       1.281  -3.839  -1.471  0.00  0.00    +0.001 A 
ATOM     20  C   LIG A   1       0.670  -2.590  -1.347  0.00  0.00    +0.012 A 
ENDBRANCH   4  15
BRANCH   3  21
ATOM     21  O   LIG A   1      -2.287  -1.684   0.287  0.00  0.00    -0.488 OA
ATOM     22  C   LIG A   1      -3.629  -1.541  -0.162  0.00  0.00    +0.277 C 
ENDBRANCH   3  21
TORSDOF 2
