@<TRIPOS>MOLECULE
NuBBE_1275
 33 35 0 0 0
SMALL
GASTEIGER

@<TRIPOS>ATOM
      1 O          -6.0550    1.1888    0.1320 O.2     1  LIG1       -0.2452
      2 C          -4.8368    1.2990    0.1326 C.ar    1  LIG1        0.3372
      3 C          -4.2049    2.6307    0.0961 C.ar    1  LIG1        0.0236
      4 C          -2.8797    2.7958    0.1068 C.ar    1  LIG1       -0.0443
      5 O          -3.9859    0.1987    0.1657 O.2     1  LIG1       -0.4220
      6 C          -2.5860    0.3582    0.1696 C.ar    1  LIG1        0.1425
      7 C          -2.0169    1.6288    0.1517 C.ar    1  LIG1        0.0182
      8 C          -0.6287    1.7468    0.1685 C.ar    1  LIG1       -0.0419
      9 C           0.1833    0.5997    0.1984 C.ar    1  LIG1        0.0259
     10 C           1.6780    0.7452    0.2098 C.3     1  LIG1        0.1131
     11 H           2.0191    1.1131   -0.7649 H       1  LIG1        0.0672
     12 O           2.1076    1.7088    1.1817 O.3     1  LIG1       -0.3843
     13 C           2.3558   -0.5869    0.5412 C.3     1  LIG1        0.1241
     14 H           2.2348   -0.7903    1.6149 H       1  LIG1        0.0663
     15 O           3.7632   -0.4795    0.3019 O.3     1  LIG1       -0.3849
     16 C           1.6977   -1.7208   -0.2676 C.3     1  LIG1        0.1335
     17 C           1.8051   -1.5430   -1.7941 C.3     1  LIG1       -0.0226
     18 C           2.3743   -3.0544    0.0915 C.3     1  LIG1       -0.0226
     19 O           0.3025   -1.8414    0.1000 O.3     1  LIG1       -0.4831
     20 C          -0.4114   -0.6703    0.1590 C.ar    1  LIG1        0.1306
     21 C          -1.8009   -0.7943    0.1752 C.ar    1  LIG1        0.0235
     22 H          -4.8834    3.4742    0.0590 H       1  LIG1        0.0689
     23 H          -2.4349    3.7848    0.0750 H       1  LIG1        0.0627
     24 H          -0.1623    2.7307    0.1495 H       1  LIG1        0.0629
     25 H           1.5099    1.6336    1.9471 H       1  LIG1        0.2103
     26 H           4.0433    0.3433    0.7499 H       1  LIG1        0.2101
     27 H           2.8430   -1.4094   -2.1141 H       1  LIG1        0.0269
     28 H           1.2226   -0.6891   -2.1550 H       1  LIG1        0.0269
     29 H           1.3939   -2.4176   -2.3120 H       1  LIG1        0.0269
     30 H           3.4321   -3.0607   -0.1947 H       1  LIG1        0.0269
     31 H           1.8807   -3.8938   -0.4113 H       1  LIG1        0.0269
     32 H           2.3064   -3.2527    1.1668 H       1  LIG1        0.0269
     33 H          -2.2664   -1.7758    0.1697 H       1  LIG1        0.0691
@<TRIPOS>BOND
     1     1     2    2
     2     2     3   ar
     3     3     4   ar
     4     2     5   ar
     5     5     6   ar
     6     6     7   ar
     7     4     7   ar
     8     7     8   ar
     9     8     9   ar
    10     9    10    1
    11    10    13    1
    12    13    14    1
    13    13    15    1
    14    13    16    1
    15    16    17    1
    16    16    18    1
    17    16    19    1
    18     9    20   ar
    19    19    20    1
    20    20    21   ar
    21     6    21   ar
    22    10    12    1
    23    10    11    1
    24     3    22    1
    25     4    23    1
    26     8    24    1
    27    12    25    1
    28    15    26    1
    29    17    27    1
    30    17    28    1
    31    17    29    1
    32    18    30    1
    33    18    31    1
    34    18    32    1
    35    21    33    1
