REMARK  Name = NuBBE_193
REMARK  13 active torsions:
REMARK  status: ('A' for Active; 'I' for Inactive)
REMARK    1  A    between atoms: O_1  and  C_2
REMARK    2  A    between atoms: C_6  and  O_15
REMARK    3  A    between atoms: C_10  and  C_11
REMARK    4  A    between atoms: C_11  and  O_12
REMARK    5  A    between atoms: O_12  and  C_13
REMARK    6  A    between atoms: O_15  and  C_16
REMARK    7  A    between atoms: C_19  and  C_30
REMARK    8  A    between atoms: C_21  and  O_29
REMARK    9  A    between atoms: C_23  and  O_28
REMARK   10  A    between atoms: C_25  and  O_27
REMARK   11  A    between atoms: C_30  and  O_31
REMARK   12  A    between atoms: C_35  and  C_36
REMARK   13  A    between atoms: C_36  and  O_37
REMARK                            x       y       z     vdW  Elec       q    Type
REMARK                         _______ _______ _______ _____ _____    ______ ____
ROOT
ATOM      1  C   LIG A   1      -1.800   3.807  -0.154  0.00  0.00    +0.146 C 
ATOM      2  C   LIG A   1      -0.680   2.744  -0.009  0.00  0.00    +0.075 C 
ATOM      3  C   LIG A   1      -1.430   1.449   0.416  0.00  0.00    +0.096 C 
ATOM      4  C   LIG A   1      -0.737   0.182  -0.139  0.00  0.00    +0.317 C 
ATOM      5  O   LIG A   1      -0.553   0.241  -1.562  0.00  0.00    -0.470 OA
ATOM      6  C   LIG A   1       0.046   1.395  -1.986  0.00  0.00    +0.201 C 
ATOM      7  C   LIG A   1       0.068   2.555  -1.309  0.00  0.00    +0.077 C 
ATOM      8  C   LIG A   1      -3.042   3.001  -0.340  0.00  0.00    +0.006 C 
ATOM      9  C   LIG A   1      -2.856   1.707  -0.043  0.00  0.00    -0.036 C 
ENDROOT
BRANCH   1  10
ATOM     10  O   LIG A   1      -1.948   4.591   1.020  0.00  0.00    -0.387 OA
ATOM     11  H   LIG A   1      -2.385   4.047   1.696  0.00  0.00    +0.210 HD
ENDBRANCH   1  10
BRANCH   7  12
ATOM     12  C   LIG A   1       0.819   3.711  -1.850  0.00  0.00    +0.338 C 
ATOM     13  O   LIG A   1       1.224   4.637  -1.154  0.00  0.00    -0.245 OA
BRANCH  12  14
ATOM     14  O   LIG A   1       0.883   3.633  -3.199  0.00  0.00    -0.465 OA
ATOM     15  C   LIG A   1       1.416   4.768  -3.881  0.00  0.00    +0.280 C 
ENDBRANCH  12  14
ENDBRANCH   7  12
BRANCH   4  16
ATOM     16  O   LIG A   1       0.519   0.001   0.544  0.00  0.00    -0.309 OA
BRANCH  16  17
ATOM     17  C   LIG A   1       1.038  -1.332   0.398  0.00  0.00    +0.286 C 
ATOM     18  O   LIG A   1       0.098  -2.229   0.996  0.00  0.00    -0.340 OA
ATOM     19  C   LIG A   1       0.520  -3.589   1.009  0.00  0.00    +0.178 C 
ATOM     20  C   LIG A   1       1.748  -3.732   1.916  0.00  0.00    +0.177 C 
ATOM     21  C   LIG A   1       2.865  -2.856   1.355  0.00  0.00    +0.179 C 
ATOM     22  C   LIG A   1       2.421  -1.411   1.106  0.00  0.00    +0.201 C 
BRANCH  22  23
ATOM     23  O   LIG A   1       3.456  -0.778   0.328  0.00  0.00    -0.384 OA
ATOM     24  H   LIG A   1       4.279  -0.926   0.837  0.00  0.00    +0.210 HD
ENDBRANCH  22  23
BRANCH  21  25
ATOM     25  O   LIG A   1       3.985  -2.862   2.259  0.00  0.00    -0.386 OA
ATOM     26  H   LIG A   1       4.109  -3.803   2.501  0.00  0.00    +0.210 HD
ENDBRANCH  21  25
BRANCH  20  27
ATOM     27  O   LIG A   1       2.248  -5.073   1.978  0.00  0.00    -0.387 OA
ATOM     28  H   LIG A   1       1.477  -5.652   2.169  0.00  0.00    +0.210 HD
ENDBRANCH  20  27
BRANCH  19  29
ATOM     29  C   LIG A   1      -0.653  -4.439   1.510  0.00  0.00    +0.190 C 
BRANCH  29  30
ATOM     30  O   LIG A   1      -0.302  -5.819   1.570  0.00  0.00    -0.392 OA
ATOM     31  H   LIG A   1      -0.421  -6.184   0.673  0.00  0.00    +0.209 HD
ENDBRANCH  29  30
ENDBRANCH  19  29
ENDBRANCH  16  17
ENDBRANCH   4  16
BRANCH   9  32
ATOM     32  C   LIG A   1      -3.906   0.650  -0.054  0.00  0.00    +0.187 C 
BRANCH  32  33
ATOM     33  O   LIG A   1      -3.560  -0.352  -0.992  0.00  0.00    -0.391 OA
ATOM     34  H   LIG A   1      -3.371   0.097  -1.835  0.00  0.00    +0.210 HD
ENDBRANCH  32  33
ENDBRANCH   9  32
TORSDOF 12
