REMARK  Name = NuBBE_545
REMARK  20 active torsions:
REMARK  status: ('A' for Active; 'I' for Inactive)
REMARK    1  A    between atoms: C_1  and  C_2
REMARK    2  A    between atoms: C_6  and  C_41
REMARK    3  A    between atoms: C_9  and  C_40
REMARK    4  A    between atoms: C_10  and  C_39
REMARK    5  A    between atoms: C_15  and  C_16
REMARK    6  A    between atoms: C_15  and  C_37
REMARK    7  A    between atoms: C_16  and  O_17
REMARK    8  A    between atoms: C_18  and  O_36
REMARK    9  A    between atoms: C_20  and  O_35
REMARK   10  A    between atoms: C_23  and  C_34
REMARK   11  A    between atoms: C_31  and  O_32
REMARK   12  A    between atoms: C_31  and  C_33
REMARK   13  A    between atoms: C_37  and  O_38
REMARK   14  A    between atoms: C_41  and  O_42
REMARK   15  A    between atoms: O_42  and  C_43
REMARK   16  A    between atoms: C_46  and  C_54
REMARK   17  A    between atoms: C_48  and  O_53
REMARK   18  A    between atoms: C_50  and  O_52
REMARK   19  A    between atoms: C_54  and  O_55
REMARK   20  A    between atoms: C_56  and  O_58
REMARK                            x       y       z     vdW  Elec       q    Type
REMARK                         _______ _______ _______ _____ _____    ______ ____
ROOT
ATOM      1  C   LIG A   1      -3.856  -2.187   5.075  0.00  0.00    +0.010 C 
ATOM      2  C   LIG A   1      -3.037  -1.047   4.433  0.00  0.00    +0.018 C 
ATOM      3  C   LIG A   1      -4.024  -0.086   3.768  0.00  0.00    +0.007 C 
ATOM      4  C   LIG A   1      -3.322   1.053   3.047  0.00  0.00    +0.019 C 
ATOM      5  C   LIG A   1      -2.336   0.545   1.973  0.00  0.00    +0.077 C 
ATOM      6  C   LIG A   1      -1.700   1.789   1.343  0.00  0.00    +0.019 C 
ATOM      7  C   LIG A   1      -0.626   1.446   0.329  0.00  0.00    +0.012 C 
ATOM      8  C   LIG A   1       0.535   0.548   0.848  0.00  0.00    -0.005 C 
ATOM      9  C   LIG A   1       1.261  -0.190  -0.401  0.00  0.00    -0.019 C 
ATOM     10  C   LIG A   1       1.502   0.747  -1.616  0.00  0.00    +0.008 C 
ATOM     11  C   LIG A   1       2.885   1.337  -1.739  0.00  0.00    +0.005 C 
ATOM     12  C   LIG A   1       3.926   0.212  -1.737  0.00  0.00    +0.008 C 
ATOM     13  C   LIG A   1       5.269   0.569  -2.473  0.00  0.00    +0.049 C 
ATOM     14  C   LIG A   1       6.238  -0.641  -2.365  0.00  0.00    +0.154 C 
ATOM     15  C   LIG A   1       6.379  -1.218  -0.951  0.00  0.00    +0.144 C 
ATOM     16  C   LIG A   1       5.023  -1.604  -0.354  0.00  0.00    +0.041 C 
ATOM     17  C   LIG A   1       4.005  -0.423  -0.301  0.00  0.00    -0.022 C 
ATOM     18  C   LIG A   1       2.548  -1.009   0.027  0.00  0.00    +0.006 C 
ATOM     19  C   LIG A   1       2.367  -1.668   1.417  0.00  0.00    +0.031 C 
ATOM     20  C   LIG A   1       1.016  -1.508   2.083  0.00  0.00    -0.026 C 
ATOM     21  C   LIG A   1       0.101  -0.532   1.867  0.00  0.00    -0.060 C 
ATOM     22  C   LIG A   1      -1.219  -0.327   2.696  0.00  0.00    +0.064 C 
ATOM     23  C   LIG A   1      -1.900  -1.556   3.473  0.00  0.00    +0.073 C 
ATOM     24  C   LIG A   1      -0.933  -2.382   4.343  0.00  0.00    +0.042 C 
ATOM     25  C   LIG A   1       4.521   0.553   0.783  0.00  0.00    +0.012 C 
ATOM     26  C   LIG A   1       0.274  -1.292  -0.971  0.00  0.00    +0.012 C 
ATOM     27  C   LIG A   1       1.476   1.503   1.634  0.00  0.00    +0.016 C 
ENDROOT
BRANCH  23  28
ATOM     28  O   LIG A   1      -2.506  -2.464   2.550  0.00  0.00    -0.388 OA
ATOM     29  H   LIG A   1      -2.106  -2.339   1.657  0.00  0.00    +0.210 HD
ENDBRANCH  23  28
BRANCH  15  30
ATOM     30  O   LIG A   1       7.192  -2.397  -1.019  0.00  0.00    -0.389 OA
ATOM     31  H   LIG A   1       7.938  -2.153  -1.604  0.00  0.00    +0.210 HD
ENDBRANCH  15  30
BRANCH  14  32
ATOM     32  O   LIG A   1       7.557  -0.314  -2.831  0.00  0.00    -0.389 OA
ATOM     33  H   LIG A   1       7.427   0.171  -3.681  0.00  0.00    +0.210 HD
ENDBRANCH  14  32
BRANCH   5  34
ATOM     34  C   LIG A   1      -3.117  -0.236   0.922  0.00  0.00    +0.316 C 
ATOM     35  O   LIG A   1      -2.628  -1.175   0.335  0.00  0.00    -0.250 OA
BRANCH  34  36
ATOM     36  O   LIG A   1      -4.397   0.209   0.647  0.00  0.00    -0.432 OA
BRANCH  36  37
ATOM     37  C   LIG A   1      -5.231  -0.647  -0.177  0.00  0.00    +0.342 C 
ATOM     38  O   LIG A   1      -4.662  -0.947  -1.456  0.00  0.00    -0.331 OA
ATOM     39  C   LIG A   1      -4.920  -0.013  -2.506  0.00  0.00    +0.179 C 
ATOM     40  C   LIG A   1      -5.304   1.371  -1.967  0.00  0.00    +0.177 C 
ATOM     41  C   LIG A   1      -6.644   1.210  -1.244  0.00  0.00    +0.180 C 
ATOM     42  C   LIG A   1      -6.654  -0.008  -0.303  0.00  0.00    +0.214 C 
BRANCH  41  43
ATOM     43  O   LIG A   1      -6.930   2.415  -0.523  0.00  0.00    -0.386 OA
ATOM     44  H   LIG A   1      -6.676   3.137  -1.139  0.00  0.00    +0.210 HD
ENDBRANCH  41  43
BRANCH  40  45
ATOM     45  O   LIG A   1      -5.467   2.394  -2.953  0.00  0.00    -0.387 OA
ATOM     46  H   LIG A   1      -4.781   2.234  -3.641  0.00  0.00    +0.210 HD
ENDBRANCH  40  45
BRANCH  42  47
ATOM     47  O   LIG A   1      -7.583  -0.982  -0.827  0.00  0.00    -0.383 OA
ATOM     48  H   LIG A   1      -8.468  -0.572  -0.825  0.00  0.00    +0.210 HD
ENDBRANCH  42  47
BRANCH  39  49
ATOM     49  C   LIG A   1      -3.700   0.019  -3.429  0.00  0.00    +0.190 C 
BRANCH  49  50
ATOM     50  O   LIG A   1      -3.921   0.906  -4.525  0.00  0.00    -0.392 OA
ATOM     51  H   LIG A   1      -3.272   0.667  -5.213  0.00  0.00    +0.209 HD
ENDBRANCH  49  50
ENDBRANCH  39  49
ENDBRANCH  36  37
ENDBRANCH  34  36
ENDBRANCH   5  34
BRANCH  13  52
ATOM     52  C   LIG A   1       4.952   0.747  -3.997  0.00  0.00    +0.167 C 
BRANCH  52  53
ATOM     53  O   LIG A   1       6.140   1.010  -4.746  0.00  0.00    -0.394 OA
ATOM     54  H   LIG A   1       5.839   1.378  -5.599  0.00  0.00    +0.209 HD
ENDBRANCH  52  53
ENDBRANCH  13  52
BRANCH  13  55
ATOM     55  C   LIG A   1       5.942   1.874  -1.976  0.00  0.00    +0.167 C 
BRANCH  55  56
ATOM     56  O   LIG A   1       5.100   3.007  -2.167  0.00  0.00    -0.394 OA
ATOM     57  H   LIG A   1       5.558   3.774  -1.783  0.00  0.00    +0.209 HD
ENDBRANCH  55  56
ENDBRANCH  13  55
TORSDOF 15
