REMARK  Name = NuBBE_2493
REMARK  6 active torsions:
REMARK  status: ('A' for Active; 'I' for Inactive)
REMARK    1  A    between atoms: C_2  and  C_3
REMARK    2  A    between atoms: C_3  and  C_4
REMARK    3  A    between atoms: C_8  and  C_9
REMARK    4  A    between atoms: C_14  and  C_15
REMARK    5  A    between atoms: C_14  and  C_16
REMARK    6  A    between atoms: C_20  and  O_21
REMARK                            x       y       z     vdW  Elec       q    Type
REMARK                         _______ _______ _______ _____ _____    ______ ____
ROOT
ATOM      1  C   LIG A   1      -0.827   3.247   1.054  0.00  0.00    -0.012 C 
ATOM      2  C   LIG A   1      -2.323   3.425   0.720  0.00  0.00    +0.015 C 
ATOM      3  C   LIG A   1      -0.655   2.252   2.225  0.00  0.00    +0.011 C 
ATOM      4  C   LIG A   1      -0.934   0.793   1.851  0.00  0.00    +0.007 C 
ATOM      5  C   LIG A   1      -0.044   0.330   0.679  0.00  0.00    +0.027 C 
ATOM      6  C   LIG A   1      -0.137  -1.222   0.342  0.00  0.00    -0.022 C 
ATOM      7  C   LIG A   1      -1.585  -1.626  -0.021  0.00  0.00    +0.012 C 
ATOM      8  C   LIG A   1       0.303  -2.042   1.585  0.00  0.00    +0.015 C 
ATOM      9  C   LIG A   1       0.467  -3.531   1.319  0.00  0.00    +0.075 C 
ATOM     10  C   LIG A   1       1.402  -3.803   0.167  0.00  0.00    +0.139 C 
ATOM     11  O   LIG A   1       2.215  -4.726   0.252  0.00  0.00    -0.297 OA
ATOM     12  C   LIG A   1       1.199  -3.012  -1.137  0.00  0.00    +0.027 C 
ATOM     13  C   LIG A   1       0.116  -3.715  -1.968  0.00  0.00    +0.019 C 
ATOM     14  C   LIG A   1       2.522  -3.110  -1.943  0.00  0.00    +0.019 C 
ATOM     15  C   LIG A   1       0.910  -1.508  -0.802  0.00  0.00    +0.008 C 
ATOM     16  C   LIG A   1       0.630  -0.630  -2.041  0.00  0.00    +0.008 C 
ATOM     17  C   LIG A   1       0.691   0.859  -1.695  0.00  0.00    +0.035 C 
ATOM     18  C   LIG A   1      -0.261   1.251  -0.553  0.00  0.00    +0.070 C 
ATOM     19  C   LIG A   1      -0.027   2.733  -0.175  0.00  0.00    +0.045 C 
ENDROOT
BRANCH   1  21
ATOM     20  C   LIG A   1       0.532   5.445   0.959  0.00  0.00    +0.004 C 
ATOM     21  C   LIG A   1      -0.346   4.618   1.543  0.00  0.00    -0.028 C 
ENDBRANCH   1  21
BRANCH  18  22
ATOM     22  O   LIG A   1      -1.594   1.110  -1.040  0.00  0.00    -0.388 OA
ATOM     23  H   LIG A   1      -1.707   1.710  -1.798  0.00  0.00    +0.210 HD
ENDBRANCH  18  22
TORSDOF 2
