@<TRIPOS>MOLECULE
NuBBE_606
 99 104 0 0 0
SMALL
GASTEIGER

@<TRIPOS>ATOM
      1 C          -0.8739    1.7350    0.2379 C.3     1  LIG1       -0.0588
      2 C           0.5476    1.8822    0.8604 C.3     1  LIG1       -0.0233
      3 C           1.1147    0.4182    1.3549 C.3     1  LIG1       -0.0231
      4 C           0.1227   -0.3103    2.3058 C.3     1  LIG1       -0.0466
      5 C           0.5341   -1.7539    2.6565 C.3     1  LIG1       -0.0486
      6 C           0.6801   -2.6054    1.3825 C.3     1  LIG1       -0.0268
      7 H          -0.2908   -2.4458    0.8886 H       1  LIG1        0.0312
      8 C           0.7548   -4.1674    1.5967 C.3     1  LIG1        0.0055
      9 C           2.0728   -4.6772    2.2195 C.3     1  LIG1       -0.0562
     10 C           0.5098   -4.8213    0.1897 C.3     1  LIG1        0.1084
     11 H           0.5153   -5.9167    0.2422 H       1  LIG1        0.0739
     12 C           1.5699   -4.3574   -0.8228 C.3     1  LIG1       -0.0146
     13 C           1.6213   -2.8286   -0.9702 C.3     1  LIG1       -0.0437
     14 C           1.7355   -2.0227    0.3697 C.3     1  LIG1       -0.0252
     15 C           1.3369   -0.5068    0.0816 C.3     1  LIG1       -0.0294
     16 H           0.3468   -0.5924   -0.3869 H       1  LIG1        0.0312
     17 C           2.2180    0.1673   -0.9941 C.3     1  LIG1       -0.0489
     18 C           1.7074    1.5443   -1.4163 C.3     1  LIG1       -0.0491
     19 C           1.5732    2.4514   -0.1955 C.3     1  LIG1       -0.0313
     20 H           2.5515    2.3690    0.2879 H       1  LIG1        0.0309
     21 C           1.5556    3.9626   -0.5276 C.3     1  LIG1       -0.0258
     22 H           2.5311    4.1754   -0.9870 H       1  LIG1        0.0315
     23 C           1.4871    4.8042    0.7635 C.3     1  LIG1       -0.0284
     24 C           2.8006    4.7414    1.5701 C.3     1  LIG1       -0.0593
     25 C           0.2950    4.3619    1.6353 C.3     1  LIG1       -0.0468
     26 C           0.3761    2.8854    2.0476 C.3     1  LIG1       -0.0464
     27 C           1.2943    6.2229    0.2129 C.3     1  LIG1       -0.0468
     28 C           0.4737    6.0834   -1.0714 C.3     1  LIG1       -0.0457
     29 C           0.4734    4.5823   -1.4576 C.3     1  LIG1       -0.0168
     30 H          -0.5066    4.1877   -1.1828 H       1  LIG1        0.0348
     31 C           0.6156    4.4070   -2.9673 C.2     1  LIG1       -0.0763
     32 C          -0.6642    4.3658   -3.7673 C.3     1  LIG1       -0.0438
     33 C           1.7934    4.3187   -3.6086 C.2     1  LIG1       -0.0994
     34 C           3.1984   -2.1505    0.8612 C.3     1  LIG1       -0.0590
     35 O          -0.7527   -4.3534   -0.3588 O.3     1  LIG1       -0.4608
     36 C          -1.9106   -4.9414    0.0456 C.2     1  LIG1        0.3077
     37 C          -3.0442   -3.9590   -0.1162 C.3     1  LIG1        0.0489
     38 C          -3.6979   -4.1014   -1.4762 C.3     1  LIG1       -0.0176
     39 C          -4.7584   -3.0468   -1.6734 C.ar    1  LIG1       -0.0468
     40 C          -4.4384   -1.8255   -2.2819 C.ar    1  LIG1       -0.0586
     41 C          -5.4097   -0.8347   -2.4314 C.ar    1  LIG1       -0.0615
     42 C          -6.7064   -1.0529   -1.9696 C.ar    1  LIG1       -0.0617
     43 C          -7.0337   -2.2623   -1.3589 C.ar    1  LIG1       -0.0615
     44 C          -6.0641   -3.2551   -1.2092 C.ar    1  LIG1       -0.0586
     45 O          -2.0138   -6.0391    0.5484 O.2     1  LIG1       -0.2508
     46 C          -0.3326   -4.6304    2.5987 C.3     1  LIG1       -0.0562
     47 C           2.4290    0.6033    2.1744 C.3     1  LIG1       -0.0588
     48 H          -0.9215    1.0241   -0.5885 H       1  LIG1        0.0235
     49 H          -1.2593    2.6806   -0.1412 H       1  LIG1        0.0235
     50 H          -1.6075    1.4109    0.9839 H       1  LIG1        0.0235
     51 H          -0.8701   -0.3691    1.8455 H       1  LIG1        0.0271
     52 H          -0.0060    0.2564    3.2356 H       1  LIG1        0.0271
     53 H          -0.2662   -2.1539    3.2888 H       1  LIG1        0.0268
     54 H           1.4390   -1.7841    3.2673 H       1  LIG1        0.0268
     55 H           2.9277   -4.6463    1.5463 H       1  LIG1        0.0236
     56 H           1.9788   -5.7284    2.5197 H       1  LIG1        0.0236
     57 H           2.3300   -4.1075    3.1190 H       1  LIG1        0.0236
     58 H           1.3314   -4.7739   -1.8103 H       1  LIG1        0.0301
     59 H           2.5594   -4.7469   -0.5648 H       1  LIG1        0.0301
     60 H           0.7172   -2.5126   -1.5074 H       1  LIG1        0.0272
     61 H           2.4629   -2.5863   -1.6317 H       1  LIG1        0.0272
     62 H           2.2735   -0.4488   -1.8960 H       1  LIG1        0.0268
     63 H           3.2463    0.2811   -0.6363 H       1  LIG1        0.0268
     64 H           0.7629    1.4525   -1.9615 H       1  LIG1        0.0268
     65 H           2.4368    1.9622   -2.1187 H       1  LIG1        0.0268
     66 H           3.0178    3.7390    1.9503 H       1  LIG1        0.0235
     67 H           2.7616    5.4155    2.4319 H       1  LIG1        0.0235
     68 H           3.6592    5.0342    0.9548 H       1  LIG1        0.0235
     69 H          -0.6560    4.5459    1.1231 H       1  LIG1        0.0271
     70 H           0.2613    4.9769    2.5441 H       1  LIG1        0.0271
     71 H          -0.5264    2.6367    2.6213 H       1  LIG1        0.0271
     72 H           1.1911    2.8068    2.7657 H       1  LIG1        0.0271
     73 H           0.8191    6.8941    0.9359 H       1  LIG1        0.0271
     74 H           2.2652    6.6687   -0.0430 H       1  LIG1        0.0271
     75 H           0.9028    6.7254   -1.8504 H       1  LIG1        0.0271
     76 H          -0.5512    6.4329   -0.9006 H       1  LIG1        0.0271
     77 H          -0.4703    4.3217   -4.8462 H       1  LIG1        0.0274
     78 H          -1.2678    5.2605   -3.5850 H       1  LIG1        0.0274
     79 H          -1.2540    3.4813   -3.5064 H       1  LIG1        0.0274
     80 H           1.8442    4.2014   -4.6872 H       1  LIG1        0.0534
     81 H           2.7440    4.3705   -3.0916 H       1  LIG1        0.0534
     82 H           3.8239   -1.3070    0.5628 H       1  LIG1        0.0235
     83 H           3.7022   -3.0275    0.4445 H       1  LIG1        0.0235
     84 H           3.2721   -2.2351    1.9473 H       1  LIG1        0.0235
     85 H          -2.6569   -2.9435    0.0409 H       1  LIG1        0.0381
     86 H          -3.7585   -4.1262    0.6986 H       1  LIG1        0.0381
     87 H          -4.1435   -5.0982   -1.5816 H       1  LIG1        0.0318
     88 H          -2.9484   -4.0244   -2.2738 H       1  LIG1        0.0318
     89 H          -3.4291   -1.6375   -2.6414 H       1  LIG1        0.0620
     90 H          -5.1537    0.1088   -2.9063 H       1  LIG1        0.0618
     91 H          -7.4616   -0.2799   -2.0840 H       1  LIG1        0.0618
     92 H          -8.0444   -2.4318   -0.9967 H       1  LIG1        0.0618
     93 H          -6.3333   -4.1914   -0.7250 H       1  LIG1        0.0620
     94 H          -1.3059   -4.1756    2.3998 H       1  LIG1        0.0236
     95 H          -0.0661   -4.3727    3.6300 H       1  LIG1        0.0236
     96 H          -0.4432   -5.7211    2.5731 H       1  LIG1        0.0236
     97 H           2.2715    1.2100    3.0697 H       1  LIG1        0.0235
     98 H           3.2427    1.0501    1.6030 H       1  LIG1        0.0235
     99 H           2.8189   -0.3302    2.5720 H       1  LIG1        0.0235
@<TRIPOS>BOND
     1     2     3    1
     2     3     4    1
     3     4     5    1
     4     5     6    1
     5     6     8    1
     6     8    10    1
     7    10    12    1
     8    12    13    1
     9    13    14    1
    10    14    15    1
    11    15    17    1
    12    17    18    1
    13    18    19    1
    14     2    19    1
    15    19    21    1
    16    21    23    1
    17    23    25    1
    18    25    26    1
    19     2    26    1
    20    23    27    1
    21    27    28    1
    22    28    29    1
    23    21    29    1
    24    31    32    1
    25    31    33    2
    26     6    14    1
    27    35    36    1
    28    36    37    1
    29    37    38    1
    30    38    39    1
    31    39    40   ar
    32    40    41   ar
    33    41    42   ar
    34    42    43   ar
    35    43    44   ar
    36    39    44   ar
    37    36    45    2
    38    15     3    1
    39     1     2    1
    40     3    47    1
    41     6     7    1
    42     8     9    1
    43     8    46    1
    44    10    11    1
    45    10    35    1
    46    14    34    1
    47    15    16    1
    48    19    20    1
    49    21    22    1
    50    23    24    1
    51    29    31    1
    52    29    30    1
    53     1    48    1
    54     1    49    1
    55     1    50    1
    56     4    51    1
    57     4    52    1
    58     5    53    1
    59     5    54    1
    60     9    55    1
    61     9    56    1
    62     9    57    1
    63    12    58    1
    64    12    59    1
    65    13    60    1
    66    13    61    1
    67    17    62    1
    68    17    63    1
    69    18    64    1
    70    18    65    1
    71    24    66    1
    72    24    67    1
    73    24    68    1
    74    25    69    1
    75    25    70    1
    76    26    71    1
    77    26    72    1
    78    27    73    1
    79    27    74    1
    80    28    75    1
    81    28    76    1
    82    32    77    1
    83    32    78    1
    84    32    79    1
    85    33    80    1
    86    33    81    1
    87    34    82    1
    88    34    83    1
    89    34    84    1
    90    37    85    1
    91    37    86    1
    92    38    87    1
    93    38    88    1
    94    40    89    1
    95    41    90    1
    96    42    91    1
    97    43    92    1
    98    44    93    1
    99    46    94    1
   100    46    95    1
   101    46    96    1
   102    47    97    1
   103    47    98    1
   104    47    99    1
