@<TRIPOS>MOLECULE
NuBBE_2389
 55 56 0 0 0
SMALL
GASTEIGER

@<TRIPOS>ATOM
      1 C          -1.5046   -0.8868   -1.7025 C.3     1  LIG1       -0.0587
      2 C          -0.5845   -0.7010   -0.4708 C.3     1  LIG1       -0.0222
      3 C          -1.3570   -0.2608    0.8473 C.3     1  LIG1       -0.0273
      4 H          -0.5571   -0.1214    1.5951 H       1  LIG1        0.0312
      5 C          -2.3025   -1.3323    1.5076 C.3     1  LIG1       -0.0056
      6 C          -3.6149   -1.5871    0.7261 C.3     1  LIG1        0.0498
      7 O          -4.4518   -2.5100    1.4221 O.3     1  LIG1       -0.3945
      8 C          -2.7096   -0.8637    2.9342 C.3     1  LIG1       -0.0572
      9 C          -1.4961   -2.6428    1.6938 C.3     1  LIG1       -0.0452
     10 C          -0.7970   -3.1214    0.4277 C.3     1  LIG1       -0.0520
     11 C           0.1217   -2.0536   -0.1732 C.3     1  LIG1       -0.0468
     12 C          -1.9980    1.1373    0.7015 C.3     1  LIG1       -0.0454
     13 C          -0.9535    2.1908    0.3347 C.3     1  LIG1       -0.0314
     14 C          -0.2283    1.7861   -0.9222 C.2     1  LIG1       -0.0730
     15 C          -0.2978    2.5689   -2.0124 C.2     1  LIG1       -0.0992
     16 C           0.4903    0.4372   -0.7987 C.3     1  LIG1       -0.0142
     17 H           1.1229    0.5121    0.0980 H       1  LIG1        0.0351
     18 C           1.4681    0.1038   -1.9629 C.3     1  LIG1       -0.0423
     19 C           2.6453    1.0870   -2.1435 C.3     1  LIG1       -0.0309
     20 C           3.5490    1.2159   -0.9388 C.2     1  LIG1       -0.0659
     21 C           3.6794    2.3967   -0.3073 C.2     1  LIG1        0.0213
     22 C           4.4947    2.6415    0.9054 C.2     1  LIG1        0.3295
     23 O           5.1243    1.7991    1.5115 O.2     1  LIG1       -0.2458
     24 O           4.4485    3.9236    1.3000 O.3     1  LIG1       -0.4775
     25 C           4.2568   -0.0450   -0.5263 C.3     1  LIG1       -0.0433
     26 H          -2.0774   -1.8131   -1.6690 H       1  LIG1        0.0235
     27 H          -0.9261   -0.9608   -2.6281 H       1  LIG1        0.0235
     28 H          -2.2107   -0.0626   -1.8284 H       1  LIG1        0.0235
     29 H          -3.4427   -2.0183   -0.2560 H       1  LIG1        0.0562
     30 H          -4.1842   -0.6610    0.5991 H       1  LIG1        0.0562
     31 H          -5.2443   -2.6470    0.8754 H       1  LIG1        0.2094
     32 H          -3.4098   -0.0225    2.9012 H       1  LIG1        0.0236
     33 H          -1.8359   -0.5528    3.5175 H       1  LIG1        0.0236
     34 H          -3.2038   -1.6657    3.4949 H       1  LIG1        0.0236
     35 H          -2.1412   -3.4451    2.0731 H       1  LIG1        0.0271
     36 H          -0.7289   -2.4884    2.4655 H       1  LIG1        0.0271
     37 H          -1.5370   -3.4546   -0.3068 H       1  LIG1        0.0266
     38 H          -0.1968   -4.0068    0.6714 H       1  LIG1        0.0266
     39 H           0.5622   -2.4683   -1.0874 H       1  LIG1        0.0271
     40 H           0.9528   -1.8842    0.5242 H       1  LIG1        0.0271
     41 H          -2.4608    1.4545    1.6405 H       1  LIG1        0.0271
     42 H          -2.7950    1.1245   -0.0497 H       1  LIG1        0.0271
     43 H          -0.2273    2.3032    1.1498 H       1  LIG1        0.0310
     44 H          -1.4474    3.1630    0.2230 H       1  LIG1        0.0310
     45 H          -0.8368    3.5123   -1.9935 H       1  LIG1        0.0534
     46 H           0.1540    2.3041   -2.9611 H       1  LIG1        0.0534
     47 H           1.8925   -0.8942   -1.8085 H       1  LIG1        0.0274
     48 H           0.9343    0.0535   -2.9184 H       1  LIG1        0.0274
     49 H           2.2804    2.0755   -2.4414 H       1  LIG1        0.0310
     50 H           3.2464    0.7473   -2.9977 H       1  LIG1        0.0310
     51 H           3.1276    3.2587   -0.6897 H       1  LIG1        0.0688
     52 H           3.8955    4.5159    0.7501 H       1  LIG1        0.2954
     53 H           4.2524   -0.7774   -1.3410 H       1  LIG1        0.0274
     54 H           3.7513   -0.4974    0.3325 H       1  LIG1        0.0274
     55 H           5.3084    0.1339   -0.2878 H       1  LIG1        0.0274
@<TRIPOS>BOND
     1     1     2    1
     2     2     3    1
     3     3     4    1
     4     3     5    1
     5     5     6    1
     6     6     7    1
     7     5     8    1
     8     5     9    1
     9     9    10    1
    10    10    11    1
    11     2    11    1
    12     3    12    1
    13    12    13    1
    14    13    14    1
    15    14    15    2
    16    14    16    1
    17     2    16    1
    18    18    19    1
    19    19    20    1
    20    20    21    2
    21    21    22    1
    22    22    23    2
    23    22    24    1
    24    20    25    1
    25    16    18    1
    26    16    17    1
    27     1    26    1
    28     1    27    1
    29     1    28    1
    30     6    29    1
    31     6    30    1
    32     7    31    1
    33     8    32    1
    34     8    33    1
    35     8    34    1
    36     9    35    1
    37     9    36    1
    38    10    37    1
    39    10    38    1
    40    11    39    1
    41    11    40    1
    42    12    41    1
    43    12    42    1
    44    13    43    1
    45    13    44    1
    46    15    45    1
    47    15    46    1
    48    18    47    1
    49    18    48    1
    50    19    49    1
    51    19    50    1
    52    21    51    1
    53    24    52    1
    54    25    53    1
    55    25    54    1
    56    25    55    1
