REMARK  Name = NuBBE_637
REMARK  22 active torsions:
REMARK  status: ('A' for Active; 'I' for Inactive)
REMARK    1  A    between atoms: O_1  and  C_2
REMARK    2  A    between atoms: C_6  and  O_8
REMARK    3  A    between atoms: O_8  and  C_9
REMARK    4  A    between atoms: C_11  and  O_13
REMARK    5  A    between atoms: O_13  and  C_14
REMARK    6  A    between atoms: C_14  and  C_15
REMARK    7  A    between atoms: C_18  and  O_20
REMARK    8  A    between atoms: C_21  and  O_23
REMARK    9  A    between atoms: O_23  and  C_24
REMARK   10  A    between atoms: C_24  and  C_25
REMARK   11  A    between atoms: C_26  and  C_27
REMARK   12  A    between atoms: C_28  and  C_29
REMARK   13  A    between atoms: C_29  and  C_30
REMARK   14  A    between atoms: C_30  and  C_31
REMARK   15  A    between atoms: C_31  and  C_32
REMARK   16  A    between atoms: C_32  and  C_33
REMARK   17  A    between atoms: C_35  and  C_37
REMARK   18  A    between atoms: C_38  and  C_39
REMARK   19  A    between atoms: C_38  and  C_40
REMARK   20  A    between atoms: C_40  and  C_41
REMARK   21  A    between atoms: C_41  and  C_42
REMARK   22  A    between atoms: C_42  and  C_43
REMARK                            x       y       z     vdW  Elec       q    Type
REMARK                         _______ _______ _______ _____ _____    ______ ____
ROOT
ATOM      1  C   LIG A   1       0.349   1.764   2.505  0.00  0.00    +0.138 C 
ATOM      2  C   LIG A   1       1.392   2.633   1.903  0.00  0.00    +0.009 C 
ATOM      3  C   LIG A   1       2.361   2.080   1.159  0.00  0.00    -0.001 C 
ATOM      4  C   LIG A   1       3.640   2.756   0.729  0.00  0.00    +0.282 C 
ATOM      5  O   LIG A   1       4.437   1.682   0.212  0.00  0.00    -0.308 OA
ATOM      6  C   LIG A   1       3.971   0.548   0.945  0.00  0.00    +0.326 C 
ATOM      7  C   LIG A   1       2.420   0.576   0.794  0.00  0.00    +0.091 C 
ATOM      8  C   LIG A   1       1.758   0.530  -0.606  0.00  0.00    +0.172 C 
ATOM      9  C   LIG A   1       1.207  -0.792  -1.170  0.00  0.00    +0.210 C 
ATOM     10  C   LIG A   1       1.116  -1.977  -0.192  0.00  0.00    +0.036 C 
ATOM     11  C   LIG A   1       2.295  -2.943  -0.411  0.00  0.00    +0.012 C 
ATOM     12  C   LIG A   1       0.837  -1.589   1.317  0.00  0.00    -0.022 C 
ATOM     13  C   LIG A   1      -0.692  -1.326   1.422  0.00  0.00    +0.012 C 
ATOM     14  C   LIG A   1       1.711  -0.362   1.841  0.00  0.00    +0.017 C 
ATOM     15  C   LIG A   1       1.013   0.463   2.969  0.00  0.00    +0.040 C 
ENDROOT
BRANCH   1  16
ATOM     16  O   LIG A   1      -0.191   2.417   3.643  0.00  0.00    -0.388 OA
ATOM     17  H   LIG A   1      -0.663   3.204   3.323  0.00  0.00    +0.210 HD
ENDBRANCH   1  16
BRANCH   8  18
ATOM     18  O   LIG A   1       2.524   1.204  -1.614  0.00  0.00    -0.387 OA
ATOM     19  H   LIG A   1       3.375   0.748  -1.740  0.00  0.00    +0.210 HD
ENDBRANCH   8  18
BRANCH   4  20
ATOM     20  O   LIG A   1       4.225   3.309   1.906  0.00  0.00    -0.350 OA
ATOM     21  C   LIG A   1       5.449   3.976   1.647  0.00  0.00    +0.197 C 
ENDBRANCH   4  20
BRANCH   9  22
ATOM     22  O   LIG A   1      -0.158  -0.521  -1.650  0.00  0.00    -0.455 OA
BRANCH  22  23
ATOM     23  C   LIG A   1      -0.263   0.086  -2.856  0.00  0.00    +0.332 C 
ATOM     24  O   LIG A   1       0.663   0.318  -3.639  0.00  0.00    -0.246 OA
BRANCH  23  25
ATOM     25  C   LIG A   1      -1.666   0.398  -3.137  0.00  0.00    +0.091 C 
ATOM     26  C   LIG A   1      -1.964   1.325  -4.067  0.00  0.00    +0.007 C 
BRANCH  26  27
ATOM     27  C   LIG A   1      -3.295   1.683  -4.481  0.00  0.00    -0.004 C 
ATOM     28  C   LIG A   1      -4.363   1.716  -3.674  0.00  0.00    -0.027 C 
BRANCH  28  29
ATOM     29  C   LIG A   1      -5.704   2.168  -4.146  0.00  0.00    +0.027 C 
BRANCH  29  30
ATOM     30  C   LIG A   1      -6.543   0.996  -4.652  0.00  0.00    +0.004 C 
BRANCH  30  31
ATOM     31  C   LIG A   1      -7.915   1.450  -5.154  0.00  0.00    +0.000 C 
BRANCH  31  32
ATOM     32  C   LIG A   1      -8.744   2.111  -4.053  0.00  0.00    -0.003 C 
ATOM     33  C   LIG A   1     -10.100   2.572  -4.552  0.00  0.00    +0.004 C 
ENDBRANCH  31  32
ENDBRANCH  30  31
ENDBRANCH  29  30
ENDBRANCH  28  29
ENDBRANCH  26  27
ENDBRANCH  23  25
ENDBRANCH  22  23
ENDBRANCH   9  22
BRANCH  12  34
ATOM     34  C   LIG A   1       1.146  -2.861   2.209  0.00  0.00    +0.012 C 
BRANCH  34  35
ATOM     35  C   LIG A   1       1.020  -2.742   3.736  0.00  0.00    +0.035 C 
BRANCH  35  36
ATOM     36  C   LIG A   1       1.456  -4.014   4.442  0.00  0.00    -0.055 C 
ATOM     37  C   LIG A   1       0.558  -4.957   4.771  0.00  0.00    +0.012 C 
BRANCH  36  38
ATOM     38  C   LIG A   1       2.847  -4.186   4.835  0.00  0.00    -0.005 C 
ATOM     39  C   LIG A   1       3.903  -3.624   4.237  0.00  0.00    +0.008 C 
ENDBRANCH  36  38
ENDBRANCH  35  36
ENDBRANCH  34  35
ENDBRANCH  12  34
BRANCH   6  40
ATOM     40  O   LIG A   1       4.667  -0.653   0.649  0.00  0.00    -0.434 OA
BRANCH  40  41
ATOM     41  C   LIG A   1       5.909  -0.598   1.251  0.00  0.00    +0.306 C 
ATOM     42  C   LIG A   1       6.304  -1.946   1.771  0.00  0.00    +0.136 C 
ATOM     43  O   LIG A   1       6.543   0.399   1.512  0.00  0.00    -0.251 OA
ENDBRANCH  40  41
ENDBRANCH   6  40
TORSDOF 17
