REMARK  Name = NuBBE_629
REMARK  9 active torsions:
REMARK  status: ('A' for Active; 'I' for Inactive)
REMARK    1  A    between atoms: C_2  and  O_3
REMARK    2  A    between atoms: C_2  and  C_8
REMARK    3  A    between atoms: O_3  and  C_4
REMARK    4  A    between atoms: C_4  and  C_5
REMARK    5  A    between atoms: C_5  and  C_6
REMARK    6  A    between atoms: C_5  and  C_7
REMARK    7  A    between atoms: C_10  and  O_11
REMARK    8  A    between atoms: C_12  and  O_13
REMARK    9  A    between atoms: C_14  and  O_15
REMARK                            x       y       z     vdW  Elec       q    Type
REMARK                         _______ _______ _______ _____ _____    ______ ____
ROOT
ATOM      1  C   LIG A   1       1.004  -0.708   0.574  0.00  0.00    +0.066 A 
ATOM      2  C   LIG A   1       2.012  -1.686   0.541  0.00  0.00    +0.064 A 
ATOM      3  C   LIG A   1       3.270  -1.385   1.045  0.00  0.00    +0.163 A 
ATOM      4  C   LIG A   1       3.529  -0.120   1.565  0.00  0.00    +0.201 A 
ATOM      5  C   LIG A   1       2.532   0.847   1.595  0.00  0.00    +0.163 A 
ATOM      6  C   LIG A   1       1.264   0.564   1.108  0.00  0.00    +0.064 A 
ENDROOT
BRANCH   1   8
ATOM      7  O   LIG A   1      -0.470  -1.942  -0.831  0.00  0.00    -0.245 OA
ATOM      8  C   LIG A   1      -0.312  -1.043  -0.021  0.00  0.00    +0.339 C 
BRANCH   8   9
ATOM      9  O   LIG A   1      -1.264  -0.213   0.465  0.00  0.00    -0.461 OA
BRANCH   9  10
ATOM     10  C   LIG A   1      -2.561  -0.332  -0.139  0.00  0.00    +0.235 C 
BRANCH  10  11
ATOM     11  C   LIG A   1      -2.604   0.434  -1.469  0.00  0.00    +0.021 C 
ATOM     12  C   LIG A   1      -3.982   0.315  -2.112  0.00  0.00    +0.010 C 
ATOM     13  C   LIG A   1      -2.223   1.905  -1.281  0.00  0.00    +0.010 C 
ENDBRANCH  10  11
ENDBRANCH   9  10
ENDBRANCH   8   9
ENDBRANCH   1   8
BRANCH   3  14
ATOM     14  O   LIG A   1       4.289  -2.295   1.047  0.00  0.00    -0.503 OA
ATOM     15  H   LIG A   1       3.956  -3.130   0.673  0.00  0.00    +0.292 HD
ENDBRANCH   3  14
BRANCH   4  16
ATOM     16  O   LIG A   1       4.775   0.194   2.046  0.00  0.00    -0.501 OA
ATOM     17  H   LIG A   1       5.298  -0.621   1.903  0.00  0.00    +0.292 HD
ENDBRANCH   4  16
BRANCH   5  18
ATOM     18  O   LIG A   1       2.795   2.088   2.095  0.00  0.00    -0.503 OA
ATOM     19  H   LIG A   1       3.737   2.055   2.357  0.00  0.00    +0.292 HD
ENDBRANCH   5  18
TORSDOF 7
