REMARK  Name = NuBBE_1244
REMARK  14 active torsions:
REMARK  status: ('A' for Active; 'I' for Inactive)
REMARK    1  A    between atoms: O_1  and  C_2
REMARK    2  A    between atoms: C_3  and  C_37
REMARK    3  A    between atoms: C_6  and  O_24
REMARK    4  A    between atoms: C_7  and  C_8
REMARK    5  A    between atoms: C_11  and  C_13
REMARK    6  A    between atoms: C_13  and  O_14
REMARK    7  A    between atoms: C_15  and  O_23
REMARK    8  A    between atoms: C_17  and  O_22
REMARK    9  A    between atoms: C_19  and  O_21
REMARK   10  A    between atoms: C_28  and  C_30
REMARK   11  A    between atoms: C_33  and  O_36
REMARK   12  A    between atoms: C_39  and  O_41
REMARK   13  A    between atoms: C_42  and  O_44
REMARK   14  A    between atoms: C_45  and  O_49
REMARK                            x       y       z     vdW  Elec       q    Type
REMARK                         _______ _______ _______ _____ _____    ______ ____
ROOT
ATOM      1  C   LIG A   1       0.286  -1.130  -0.333  0.00  0.00    +0.135 A 
ATOM      2  C   LIG A   1       0.140   0.268  -0.521  0.00  0.00    +0.069 A 
ATOM      3  C   LIG A   1       0.694   1.114   0.460  0.00  0.00    +0.152 A 
ATOM      4  C   LIG A   1       1.366   0.567   1.560  0.00  0.00    +0.106 A 
ATOM      5  C   LIG A   1       1.458  -0.823   1.736  0.00  0.00    +0.140 A 
ATOM      6  C   LIG A   1       0.891  -1.705   0.806  0.00  0.00    +0.068 A 
ATOM      7  C   LIG A   1       2.007   1.480   2.519  0.00  0.00    +0.197 A 
ATOM      8  O   LIG A   1       2.582   1.063   3.513  0.00  0.00    -0.287 OA
ATOM      9  C   LIG A   1       1.955   2.915   2.223  0.00  0.00    +0.098 A 
ATOM     10  C   LIG A   1       1.252   3.335   1.164  0.00  0.00    +0.139 A 
ATOM     11  O   LIG A   1       0.575   2.479   0.307  0.00  0.00    -0.454 OA
ENDROOT
BRANCH   6  12
ATOM     12  C   LIG A   1       0.900  -3.211   1.089  0.00  0.00    +0.187 C 
ATOM     13  O   LIG A   1       0.940  -3.901  -0.186  0.00  0.00    -0.361 OA
ATOM     14  C   LIG A   1       0.938  -5.330  -0.061  0.00  0.00    +0.175 C 
ATOM     15  C   LIG A   1      -0.347  -5.810   0.631  0.00  0.00    +0.176 C 
ATOM     16  C   LIG A   1      -0.425  -5.168   2.012  0.00  0.00    +0.177 C 
ATOM     17  C   LIG A   1      -0.340  -3.641   1.923  0.00  0.00    +0.179 C 
BRANCH  17  18
ATOM     18  O   LIG A   1      -0.303  -3.132   3.262  0.00  0.00    -0.386 OA
ATOM     19  H   LIG A   1      -1.009  -3.606   3.745  0.00  0.00    +0.210 HD
ENDBRANCH  17  18
BRANCH  16  20
ATOM     20  O   LIG A   1      -1.658  -5.539   2.651  0.00  0.00    -0.387 OA
ATOM     21  H   LIG A   1      -1.734  -6.506   2.508  0.00  0.00    +0.210 HD
ENDBRANCH  16  20
BRANCH  15  22
ATOM     22  O   LIG A   1      -0.389  -7.230   0.808  0.00  0.00    -0.387 OA
ATOM     23  H   LIG A   1      -0.214  -7.629  -0.072  0.00  0.00    +0.210 HD
ENDBRANCH  15  22
BRANCH  14  24
ATOM     24  C   LIG A   1       1.062  -5.927  -1.470  0.00  0.00    +0.190 C 
BRANCH  24  25
ATOM     25  O   LIG A   1       1.059  -7.350  -1.438  0.00  0.00    -0.392 OA
ATOM     26  H   LIG A   1       1.949  -7.637  -1.159  0.00  0.00    +0.209 HD
ENDBRANCH  24  25
ENDBRANCH  14  24
ENDBRANCH   6  12
BRANCH  10  27
ATOM     27  C   LIG A   1       1.153   4.776   0.818  0.00  0.00    +0.018 A 
ATOM     28  C   LIG A   1       0.995   5.186  -0.517  0.00  0.00    +0.015 A 
ATOM     29  C   LIG A   1       0.892   6.543  -0.853  0.00  0.00    +0.046 A 
ATOM     30  C   LIG A   1       0.947   7.503   0.149  0.00  0.00    +0.117 A 
ATOM     31  C   LIG A   1       1.097   7.129   1.476  0.00  0.00    +0.046 A 
ATOM     32  C   LIG A   1       1.196   5.774   1.808  0.00  0.00    +0.015 A 
BRANCH  30  33
ATOM     33  O   LIG A   1       0.856   8.835  -0.126  0.00  0.00    -0.507 OA
ATOM     34  H   LIG A   1       0.768   8.949  -1.086  0.00  0.00    +0.292 HD
ENDBRANCH  30  33
ENDBRANCH  10  27
BRANCH   2  35
ATOM     35  C   LIG A   1      -0.557   0.759  -1.797  0.00  0.00    +0.186 C 
ATOM     36  C   LIG A   1      -2.061   0.338  -1.862  0.00  0.00    +0.179 C 
ATOM     37  C   LIG A   1      -2.975   1.553  -1.670  0.00  0.00    +0.176 C 
ATOM     38  C   LIG A   1      -2.688   2.626  -2.733  0.00  0.00    +0.171 C 
ATOM     39  C   LIG A   1      -1.192   2.696  -3.058  0.00  0.00    +0.194 C 
ATOM     40  O   LIG A   1      -0.407   2.181  -1.977  0.00  0.00    -0.366 OA
BRANCH  36  41
ATOM     41  O   LIG A   1      -2.346  -0.247  -3.147  0.00  0.00    -0.386 OA
ATOM     42  H   LIG A   1      -1.879  -1.104  -3.165  0.00  0.00    +0.210 HD
ENDBRANCH  36  41
BRANCH  37  43
ATOM     43  O   LIG A   1      -2.802   2.125  -0.359  0.00  0.00    -0.387 OA
ATOM     44  H   LIG A   1      -1.875   2.439  -0.306  0.00  0.00    +0.210 HD
ENDBRANCH  37  43
BRANCH  38  45
ATOM     45  O   LIG A   1      -3.150   3.901  -2.259  0.00  0.00    -0.387 OA
ATOM     46  H   LIG A   1      -3.320   3.791  -1.301  0.00  0.00    +0.210 HD
ENDBRANCH  38  45
ENDBRANCH   2  35
BRANCH   1  47
ATOM     47  O   LIG A   1      -0.152  -1.937  -1.359  0.00  0.00    -0.506 OA
ATOM     48  H   LIG A   1       0.354  -2.774  -1.268  0.00  0.00    +0.292 HD
ENDBRANCH   1  47
BRANCH   5  49
ATOM     49  O   LIG A   1       2.134  -1.369   2.799  0.00  0.00    -0.505 OA
ATOM     50  H   LIG A   1       2.416  -0.644   3.403  0.00  0.00    +0.292 HD
ENDBRANCH   5  49
TORSDOF 14
