@<TRIPOS>MOLECULE
NuBBE_1481
 43 46 0 0 0
SMALL
GASTEIGER

@<TRIPOS>ATOM
      1 C          -0.7572    0.8669    4.5330 C.3     1  LIG1       -0.0215
      2 C           0.5546    0.6547    3.7688 C.3     1  LIG1        0.1235
      3 C           1.7269    0.6205    4.7571 C.3     1  LIG1       -0.0215
      4 O           0.5070   -0.6582    3.1753 O.3     1  LIG1       -0.4814
      5 C           0.2113   -0.7623    1.8437 C.ar    1  LIG1        0.1343
      6 C          -0.0393   -2.0532    1.3900 C.ar    1  LIG1        0.0232
      7 C          -0.2821   -2.2850    0.0368 C.ar    1  LIG1        0.1364
      8 C          -0.3454   -1.2143   -0.8688 C.ar    1  LIG1        0.0881
      9 C          -0.1590    0.1098   -0.4070 C.ar    1  LIG1        0.0672
     10 N          -0.2931    1.2146   -1.3151 N.ar    1  LIG1       -0.3421
     11 C          -0.2640    0.9959   -2.7223 C.ar    1  LIG1        0.0529
     12 C          -0.0816    2.0660   -3.6130 C.ar    1  LIG1       -0.0375
     13 C          -0.0660    1.8541   -4.9944 C.ar    1  LIG1       -0.0598
     14 C          -0.2280    0.5685   -5.5057 C.ar    1  LIG1       -0.0610
     15 C          -0.3937   -0.5072   -4.6350 C.ar    1  LIG1       -0.0489
     16 C          -0.4000   -0.2925   -3.2500 C.ar    1  LIG1        0.0459
     17 C          -0.5710   -1.4331   -2.3254 C.ar    1  LIG1        0.2006
     18 O          -0.8575   -2.5299   -2.7929 O.2     1  LIG1       -0.2864
     19 H           0.0681    3.0736   -3.2333 H       1  LIG1        0.0638
     20 C          -1.5011    2.0081   -0.9788 C.3     1  LIG1        0.0124
     21 O          -0.5290   -3.5824   -0.3270 O.3     1  LIG1       -0.4942
     22 C           0.6858   -4.2406   -0.6888 C.3     1  LIG1        0.0788
     23 C           0.1885    0.3206    0.9558 C.ar    1  LIG1        0.0409
     24 C           0.6068    1.6271    1.4681 C.2     1  LIG1       -0.0493
     25 C           0.7658    1.7798    2.7858 C.2     1  LIG1       -0.0408
     26 H          -0.9228    0.0585    5.2547 H       1  LIG1        0.0271
     27 H          -1.6163    0.8514    3.8517 H       1  LIG1        0.0271
     28 H          -0.7661    1.8198    5.0735 H       1  LIG1        0.0271
     29 H           1.6052   -0.1960    5.4788 H       1  LIG1        0.0271
     30 H           1.8228    1.5592    5.3140 H       1  LIG1        0.0271
     31 H           2.6728    0.4314    4.2352 H       1  LIG1        0.0271
     32 H          -0.0243   -2.8853    2.0890 H       1  LIG1        0.0691
     33 H           0.0776    2.6934   -5.6706 H       1  LIG1        0.0618
     34 H          -0.2179    0.4012   -6.5798 H       1  LIG1        0.0618
     35 H          -0.5139   -1.5125   -5.0334 H       1  LIG1        0.0625
     36 H          -1.5944    2.2127    0.0927 H       1  LIG1        0.0456
     37 H          -2.4160    1.4875   -1.2914 H       1  LIG1        0.0456
     38 H          -1.4781    2.9900   -1.4657 H       1  LIG1        0.0456
     39 H           1.3128   -4.4030    0.1946 H       1  LIG1        0.0660
     40 H           1.2450   -3.6844   -1.4491 H       1  LIG1        0.0660
     41 H           0.4261   -5.2184   -1.1052 H       1  LIG1        0.0660
     42 H           0.7861    2.4421    0.7762 H       1  LIG1        0.0623
     43 H           1.0544    2.7512    3.1779 H       1  LIG1        0.0611
@<TRIPOS>BOND
     1     1     2    1
     2     2     3    1
     3     2     4    1
     4     4     5    1
     5     5     6   ar
     6     6     7   ar
     7     7     8   ar
     8     8     9   ar
     9     9    10   ar
    10    10    11   ar
    11    11    12   ar
    12    12    13   ar
    13    13    14   ar
    14    14    15   ar
    15    15    16   ar
    16    11    16   ar
    17    16    17   ar
    18     8    17   ar
    19    17    18    2
    20    12    19    1
    21    10    20    1
    22     7    21    1
    23    21    22    1
    24     5    23   ar
    25     9    23   ar
    26    23    24    1
    27    24    25    2
    28     2    25    1
    29     1    26    1
    30     1    27    1
    31     1    28    1
    32     3    29    1
    33     3    30    1
    34     3    31    1
    35     6    32    1
    36    13    33    1
    37    14    34    1
    38    15    35    1
    39    20    36    1
    40    20    37    1
    41    20    38    1
    42    22    39    1
    43    22    40    1
    44    22    41    1
    45    24    42    1
    46    25    43    1
