@<TRIPOS>MOLECULE
NuBBE_1515
 77 78 0 0 0
SMALL
GASTEIGER

@<TRIPOS>ATOM
      1 O          -5.5194    1.1238   -6.9293 O.2     1  LIG1       -0.2833
      2 C          -5.0456    0.5625   -5.9132 C.ar    1  LIG1        0.2310
      3 C          -5.5733    0.9998   -4.6227 C.ar    1  LIG1        0.0487
      4 C          -5.2959    0.2063   -3.5096 C.ar    1  LIG1        0.0505
      5 N          -4.5635   -0.9716   -3.6708 N.ar    1  LIG1       -0.3549
      6 H          -4.2944   -1.4399   -2.8140 H       1  LIG1        0.1657
      7 C          -3.7690   -1.1845   -4.7980 C.ar    1  LIG1        0.0624
      8 C          -3.9602   -0.4819   -5.9518 C.ar    1  LIG1        0.1864
      9 O          -3.1317   -0.6536   -7.0561 O.3     1  LIG1       -0.4897
     10 C          -3.6315   -0.3731   -8.3685 C.3     1  LIG1        0.0790
     11 C          -2.6501   -2.2264   -4.6285 C.3     1  LIG1       -0.0088
     12 C          -2.0357   -2.3491   -3.2041 C.3     1  LIG1       -0.0476
     13 C          -1.4248   -1.0390   -2.6953 C.3     1  LIG1       -0.0527
     14 C          -0.7294   -1.1381   -1.3333 C.3     1  LIG1       -0.0530
     15 C          -1.6022   -1.5804   -0.1489 C.3     1  LIG1       -0.0531
     16 C          -2.6833   -0.6012    0.3147 C.3     1  LIG1       -0.0531
     17 C          -2.2459    0.8414    0.6287 C.3     1  LIG1       -0.0531
     18 C          -1.2189    1.0642    1.7798 C.3     1  LIG1       -0.0531
     19 C           0.2064    0.4928    1.5404 C.3     1  LIG1       -0.0531
     20 C           1.2720    0.6857    2.6439 C.3     1  LIG1       -0.0531
     21 C           2.6773    0.0478    2.3165 C.3     1  LIG1       -0.0530
     22 C           3.7638    0.4785    3.3513 C.3     1  LIG1       -0.0505
     23 C           5.2028   -0.0934    3.1807 C.3     1  LIG1       -0.0240
     24 C           6.3313    0.3125    4.2288 C.3     1  LIG1        0.0656
     25 C           6.0998   -0.0708    5.7448 C.3     1  LIG1       -0.0180
     26 C           7.2578    0.3467    6.6912 C.3     1  LIG1       -0.0601
     27 C           4.8311    0.5025    6.3777 C.3     1  LIG1       -0.0601
     28 C           7.6697   -0.3207    3.7421 C.3     1  LIG1       -0.0358
     29 O           6.4807    1.7379    4.1374 O.3     1  LIG1       -0.3886
     30 C          -5.7928    0.6062   -2.2659 C.ar    1  LIG1       -0.0377
     31 C          -6.5374    1.7841   -2.1417 C.ar    1  LIG1       -0.0598
     32 C          -6.8035    2.5698   -3.2635 C.ar    1  LIG1       -0.0610
     33 C          -6.3222    2.1786   -4.5083 C.ar    1  LIG1       -0.0488
     34 H          -4.2845    0.4912   -8.4625 H       1  LIG1        0.0660
     35 H          -4.1329   -1.2556   -8.7756 H       1  LIG1        0.0660
     36 H          -2.7781   -0.1364   -9.0134 H       1  LIG1        0.0660
     37 H          -1.8301   -2.0293   -5.3309 H       1  LIG1        0.0329
     38 H          -3.0506   -3.2150   -4.8936 H       1  LIG1        0.0329
     39 H          -1.2695   -3.1358   -3.2129 H       1  LIG1        0.0269
     40 H          -2.8001   -2.7014   -2.5021 H       1  LIG1        0.0269
     41 H          -2.1881   -0.2585   -2.6352 H       1  LIG1        0.0265
     42 H          -0.6847   -0.6939   -3.4284 H       1  LIG1        0.0265
     43 H          -0.2822   -0.1591   -1.1323 H       1  LIG1        0.0265
     44 H           0.1149   -1.8336   -1.4124 H       1  LIG1        0.0265
     45 H          -0.9646   -1.8107    0.7034 H       1  LIG1        0.0265
     46 H          -2.0580   -2.5516   -0.3621 H       1  LIG1        0.0265
     47 H          -3.1757   -1.0189    1.2035 H       1  LIG1        0.0265
     48 H          -3.4624   -0.5709   -0.4576 H       1  LIG1        0.0265
     49 H          -3.1651    1.3910    0.8938 H       1  LIG1        0.0265
     50 H          -1.8891    1.3217   -0.2891 H       1  LIG1        0.0265
     51 H          -1.6474    0.6687    2.7087 H       1  LIG1        0.0265
     52 H          -1.1412    2.1520    1.9180 H       1  LIG1        0.0265
     53 H           0.5799    0.8952    0.5945 H       1  LIG1        0.0265
     54 H           0.1356   -0.5815    1.4511 H       1  LIG1        0.0265
     55 H           0.8966    0.2042    3.5559 H       1  LIG1        0.0265
     56 H           1.3847    1.7524    2.8547 H       1  LIG1        0.0265
     57 H           3.0004    0.3200    1.3053 H       1  LIG1        0.0265
     58 H           2.5766   -1.0473    2.3313 H       1  LIG1        0.0265
     59 H           3.3677    0.1702    4.3120 H       1  LIG1        0.0266
     60 H           3.8269    1.5707    3.3441 H       1  LIG1        0.0266
     61 H           5.5520    0.2654    2.1997 H       1  LIG1        0.0293
     62 H           5.1599   -1.1871    3.1130 H       1  LIG1        0.0293
     63 H           6.0223   -1.1646    5.7985 H       1  LIG1        0.0323
     64 H           7.7568    1.2670    6.3771 H       1  LIG1        0.0233
     65 H           8.0052   -0.4493    6.7665 H       1  LIG1        0.0233
     66 H           6.9093    0.5204    7.7174 H       1  LIG1        0.0233
     67 H           4.6877    1.5564    6.1237 H       1  LIG1        0.0233
     68 H           4.8497    0.4256    7.4713 H       1  LIG1        0.0233
     69 H           3.9645   -0.0885    6.0900 H       1  LIG1        0.0233
     70 H           7.5127   -1.2950    3.2676 H       1  LIG1        0.0257
     71 H           8.3762   -0.4949    4.5609 H       1  LIG1        0.0257
     72 H           8.1956    0.3306    3.0341 H       1  LIG1        0.0257
     73 H           7.3693    1.9749    4.4556 H       1  LIG1        0.2102
     74 H          -5.5929    0.0179   -1.3751 H       1  LIG1        0.0638
     75 H          -6.9105    2.0932   -1.1686 H       1  LIG1        0.0618
     76 H          -7.3815    3.4856   -3.1690 H       1  LIG1        0.0618
     77 H          -6.5172    2.7875   -5.3855 H       1  LIG1        0.0625
@<TRIPOS>BOND
     1     1     2    2
     2     2     3   ar
     3     3     4   ar
     4     4     5   ar
     5     5     6    1
     6     5     7   ar
     7     7     8   ar
     8     2     8   ar
     9     8     9    1
    10     9    10    1
    11     7    11    1
    12    11    12    1
    13    12    13    1
    14    13    14    1
    15    14    15    1
    16    15    16    1
    17    16    17    1
    18    17    18    1
    19    18    19    1
    20    19    20    1
    21    20    21    1
    22    21    22    1
    23    22    23    1
    24    23    24    1
    25    24    25    1
    26    25    26    1
    27    25    27    1
    28    24    28    1
    29    24    29    1
    30     4    30   ar
    31    30    31   ar
    32    31    32   ar
    33    32    33   ar
    34     3    33   ar
    35    10    34    1
    36    10    35    1
    37    10    36    1
    38    11    37    1
    39    11    38    1
    40    12    39    1
    41    12    40    1
    42    13    41    1
    43    13    42    1
    44    14    43    1
    45    14    44    1
    46    15    45    1
    47    15    46    1
    48    16    47    1
    49    16    48    1
    50    17    49    1
    51    17    50    1
    52    18    51    1
    53    18    52    1
    54    19    53    1
    55    19    54    1
    56    20    55    1
    57    20    56    1
    58    21    57    1
    59    21    58    1
    60    22    59    1
    61    22    60    1
    62    23    61    1
    63    23    62    1
    64    25    63    1
    65    26    64    1
    66    26    65    1
    67    26    66    1
    68    27    67    1
    69    27    68    1
    70    27    69    1
    71    28    70    1
    72    28    71    1
    73    28    72    1
    74    29    73    1
    75    30    74    1
    76    31    75    1
    77    32    76    1
    78    33    77    1
