REMARK  Name = NuBBE_1606
REMARK  5 active torsions:
REMARK  status: ('A' for Active; 'I' for Inactive)
REMARK    1  A    between atoms: C_1  and  C_15
REMARK    2  A    between atoms: C_5  and  C_14
REMARK    3  A    between atoms: C_10  and  C_13
REMARK    4  A    between atoms: C_15  and  C_16
REMARK    5  A    between atoms: C_15  and  C_17
REMARK                            x       y       z     vdW  Elec       q    Type
REMARK                         _______ _______ _______ _____ _____    ______ ____
ROOT
ATOM      1  C   LIG A   1      -0.836   0.980  -0.397  0.00  0.00    +0.022 C 
ATOM      2  C   LIG A   1      -1.952   0.210  -1.131  0.00  0.00    +0.009 C 
ATOM      3  C   LIG A   1      -2.160  -1.163  -0.505  0.00  0.00    +0.008 C 
ATOM      4  C   LIG A   1      -0.892  -2.032  -0.582  0.00  0.00    +0.016 C 
ATOM      5  C   LIG A   1       0.414  -1.249  -0.544  0.00  0.00    -0.041 A 
ATOM      6  C   LIG A   1       0.444   0.160  -0.506  0.00  0.00    -0.040 A 
ATOM      7  C   LIG A   1       1.681   0.828  -0.595  0.00  0.00    +0.007 A 
ATOM      8  C   LIG A   1       2.887   0.125  -0.682  0.00  0.00    -0.050 A 
ATOM      9  C   LIG A   1       2.851  -1.268  -0.726  0.00  0.00    +0.003 A 
ATOM     10  C   LIG A   1       1.631  -1.944  -0.664  0.00  0.00    +0.004 A 
ATOM     11  C   LIG A   1       4.192   0.855  -0.795  0.00  0.00    +0.044 C 
ATOM     12  C   LIG A   1      -0.962  -3.115   0.503  0.00  0.00    +0.012 C 
ENDROOT
BRANCH   1  13
ATOM     13  C   LIG A   1      -1.178   1.339   1.088  0.00  0.00    -0.010 C 
ATOM     14  C   LIG A   1      -0.135   2.272   1.721  0.00  0.00    +0.008 C 
ATOM     15  C   LIG A   1      -2.554   2.006   1.224  0.00  0.00    +0.008 C 
ENDBRANCH   1  13
TORSDOF 1
