REMARK  Name = NuBBE_2507
REMARK  5 active torsions:
REMARK  status: ('A' for Active; 'I' for Inactive)
REMARK    1  A    between atoms: C_1  and  C_2
REMARK    2  A    between atoms: C_2  and  C_3
REMARK    3  A    between atoms: C_2  and  C_4
REMARK    4  A    between atoms: C_16  and  C_17
REMARK    5  A    between atoms: C_16  and  C_18
REMARK                            x       y       z     vdW  Elec       q    Type
REMARK                         _______ _______ _______ _____ _____    ______ ____
ROOT
ATOM      1  C   LIG A   1      -2.106  -1.998   0.004  0.00  0.00    +0.006 C 
ATOM      2  C   LIG A   1      -1.794  -1.145  -0.987  0.00  0.00    +0.014 C 
ATOM      3  C   LIG A   1      -1.064   0.074  -0.773  0.00  0.00    -0.011 C 
ATOM      4  C   LIG A   1      -0.681   0.523   0.436  0.00  0.00    +0.017 C 
ATOM      5  C   LIG A   1      -1.049  -0.263   1.629  0.00  0.00    +0.230 C 
ATOM      6  O   LIG A   1      -0.871   0.146   2.767  0.00  0.00    -0.283 OA
ATOM      7  C   LIG A   1      -1.681  -1.637   1.395  0.00  0.00    +0.229 C 
ATOM      8  O   LIG A   1      -1.831  -2.411   2.333  0.00  0.00    -0.283 OA
ATOM      9  C   LIG A   1       0.012   1.882   0.404  0.00  0.00    +0.027 C 
ATOM     10  C   LIG A   1       0.404   2.558   1.726  0.00  0.00    +0.014 C 
ATOM     11  C   LIG A   1       1.698   2.047   2.359  0.00  0.00    +0.001 C 
ATOM     12  C   LIG A   1       2.319   0.851   1.654  0.00  0.00    +0.007 C 
ATOM     13  C   LIG A   1       2.496   1.023   0.122  0.00  0.00    -0.031 C 
ATOM     14  C   LIG A   1       3.763   1.875  -0.138  0.00  0.00    +0.011 C 
ATOM     15  C   LIG A   1       2.783  -0.383  -0.448  0.00  0.00    +0.011 C 
ATOM     16  C   LIG A   1       1.268   1.764  -0.531  0.00  0.00    +0.010 C 
ATOM     17  C   LIG A   1       0.801   1.259  -1.931  0.00  0.00    +0.041 C 
ATOM     18  C   LIG A   1      -0.718   1.011  -1.912  0.00  0.00    +0.149 C 
ATOM     19  O   LIG A   1      -1.365   2.269  -1.643  0.00  0.00    -0.371 OA
ATOM     20  C   LIG A   1      -1.010   2.797  -0.346  0.00  0.00    +0.172 C 
ENDROOT
BRANCH   1  22
ATOM     21  C   LIG A   1      -1.922  -4.483  -0.249  0.00  0.00    +0.012 C 
ATOM     22  C   LIG A   1      -2.881  -3.294  -0.148  0.00  0.00    +0.017 C 
ATOM     23  C   LIG A   1      -3.857  -3.311  -1.332  0.00  0.00    +0.012 C 
ENDBRANCH   1  22
TORSDOF 1
