REMARK  Name = NuBBE_2101
REMARK  8 active torsions:
REMARK  status: ('A' for Active; 'I' for Inactive)
REMARK    1  A    between atoms: C_1  and  C_2
REMARK    2  A    between atoms: C_1  and  C_4
REMARK    3  A    between atoms: C_6  and  O_7
REMARK    4  A    between atoms: O_7  and  C_8
REMARK    5  A    between atoms: C_11  and  O_14
REMARK    6  A    between atoms: O_14  and  C_15
REMARK    7  A    between atoms: C_17  and  C_22
REMARK    8  A    between atoms: C_19  and  C_21
REMARK                            x       y       z     vdW  Elec       q    Type
REMARK                         _______ _______ _______ _____ _____    ______ ____
ROOT
ATOM      1  C   LIG A   1      -1.009  -0.310  -0.694  0.00  0.00    +0.044 C 
ATOM      2  C   LIG A   1       0.453  -0.646  -0.757  0.00  0.00    +0.150 C 
ATOM      3  C   LIG A   1       0.982  -1.881  -0.868  0.00  0.00    +0.203 C 
ATOM      4  C   LIG A   1       0.040  -3.058  -0.942  0.00  0.00    +0.229 C 
ATOM      5  O   LIG A   1       0.470  -4.189  -1.211  0.00  0.00    -0.286 OA
ATOM      6  C   LIG A   1      -1.473  -2.843  -0.736  0.00  0.00    +0.193 C 
ATOM      7  C   LIG A   1      -1.766  -1.497  -0.065  0.00  0.00    +0.055 C 
ATOM      8  O   LIG A   1       1.265   0.461  -0.556  0.00  0.00    -0.484 OA
ATOM      9  C   LIG A   1       0.427   1.575  -0.182  0.00  0.00    +0.207 C 
ATOM     10  C   LIG A   1      -0.954   0.975   0.193  0.00  0.00    +0.045 C 
ATOM     11  C   LIG A   1      -1.152   0.737   1.696  0.00  0.00    +0.012 C 
ENDROOT
BRANCH   9  12
ATOM     12  C   LIG A   1       1.119   2.470   0.840  0.00  0.00    -0.003 A 
ATOM     13  C   LIG A   1       0.485   3.636   1.315  0.00  0.00    +0.056 A 
ATOM     14  C   LIG A   1       1.141   4.411   2.255  0.00  0.00    +0.167 A 
ATOM     15  C   LIG A   1       2.389   4.082   2.725  0.00  0.00    +0.166 A 
ATOM     16  C   LIG A   1       3.057   2.969   2.273  0.00  0.00    +0.050 A 
ATOM     17  C   LIG A   1       2.420   2.170   1.316  0.00  0.00    +0.011 A 
ATOM     18  O   LIG A   1       2.853   4.969   3.644  0.00  0.00    -0.453 OA
ATOM     19  C   LIG A   1       1.776   5.926   3.663  0.00  0.00    +0.466 C 
ATOM     20  O   LIG A   1       0.663   5.554   2.820  0.00  0.00    -0.453 OA
ENDBRANCH   9  12
BRANCH   3  21
ATOM     21  O   LIG A   1       2.368  -2.002  -0.906  0.00  0.00    -0.489 OA
ATOM     22  C   LIG A   1       2.924  -3.304  -1.050  0.00  0.00    +0.277 C 
ENDBRANCH   3  21
BRANCH   6  23
ATOM     23  O   LIG A   1      -2.128  -3.857   0.040  0.00  0.00    -0.372 OA
ATOM     24  C   LIG A   1      -2.106  -5.147  -0.571  0.00  0.00    +0.195 C 
ENDBRANCH   6  23
BRANCH   1  25
ATOM     25  C   LIG A   1      -1.578   0.107  -2.099  0.00  0.00    +0.041 C 
BRANCH  25  26
ATOM     26  C   LIG A   1      -1.512  -0.870  -3.245  0.00  0.00    -0.034 C 
ATOM     27  C   LIG A   1      -2.585  -1.306  -3.920  0.00  0.00    +0.004 C 
ENDBRANCH  25  26
ENDBRANCH   1  25
TORSDOF 5
