@<TRIPOS>MOLECULE
NuBBE_2027
 26 27 0 0 0
SMALL
GASTEIGER

@<TRIPOS>ATOM
      1 C          -1.8654    0.8566    0.2140 C.3     1  LIG1       -0.0558
      2 C          -0.3324    0.7844    0.2467 C.3     1  LIG1       -0.0110
      3 C           0.2142    2.1649    0.6539 C.3     1  LIG1       -0.0558
      4 C           0.2586    0.3025   -1.0760 C.2     1  LIG1       -0.0676
      5 C           1.0588   -0.9544   -0.7848 C.3     1  LIG1       -0.0193
      6 C           0.0652   -2.0840   -0.4649 C.3     1  LIG1       -0.0462
      7 C          -0.4525   -1.7018    0.9341 C.3     1  LIG1       -0.0489
      8 C           0.2202   -0.3349    1.1917 C.3     1  LIG1       -0.0316
      9 C           1.6106   -0.6159    0.5983 C.3     1  LIG1       -0.0429
     10 C           0.1502    0.8882   -2.2754 C.2     1  LIG1       -0.0987
     11 H          -2.2083    1.7147   -0.3762 H       1  LIG1        0.0238
     12 H          -2.2713    0.9663    1.2257 H       1  LIG1        0.0238
     13 H          -2.3185   -0.0304   -0.2407 H       1  LIG1        0.0238
     14 H          -0.1498    2.9503   -0.0189 H       1  LIG1        0.0238
     15 H           1.3075    2.2107    0.6350 H       1  LIG1        0.0238
     16 H          -0.1097    2.4236    1.6686 H       1  LIG1        0.0238
     17 H           1.8071   -1.2086   -1.5379 H       1  LIG1        0.0346
     18 H           0.5711   -3.0550   -0.4256 H       1  LIG1        0.0271
     19 H          -0.7481   -2.1510   -1.1957 H       1  LIG1        0.0271
     20 H          -0.1044   -2.4379    1.6693 H       1  LIG1        0.0268
     21 H          -1.5432   -1.6815    0.9912 H       1  LIG1        0.0268
     22 H           0.2264   -0.0567    2.2487 H       1  LIG1        0.0309
     23 H           2.1172   -1.4628    1.0752 H       1  LIG1        0.0274
     24 H           2.2865    0.2444    0.6050 H       1  LIG1        0.0274
     25 H          -0.4220    1.8006   -2.4089 H       1  LIG1        0.0535
     26 H           0.6322    0.4676   -3.1523 H       1  LIG1        0.0535
@<TRIPOS>BOND
     1     1     2    1
     2     2     3    1
     3     2     4    1
     4     4     5    1
     5     5     6    1
     6     6     7    1
     7     7     8    1
     8     2     8    1
     9     8     9    1
    10     5     9    1
    11     4    10    2
    12     1    11    1
    13     1    12    1
    14     1    13    1
    15     3    14    1
    16     3    15    1
    17     3    16    1
    18     5    17    1
    19     6    18    1
    20     6    19    1
    21     7    20    1
    22     7    21    1
    23     8    22    1
    24     9    23    1
    25     9    24    1
    26    10    25    1
    27    10    26    1
