REMARK  Name = NuBBE_672
REMARK  3 active torsions:
REMARK  status: ('A' for Active; 'I' for Inactive)
REMARK    1  A    between atoms: C_1  and  C_2
REMARK    2  A    between atoms: C_9  and  O_10
REMARK    3  A    between atoms: O_10  and  C_11
REMARK                            x       y       z     vdW  Elec       q    Type
REMARK                         _______ _______ _______ _____ _____    ______ ____
ROOT
ATOM      1  C   LIG A   1      -3.643   0.085  -0.770  0.00  0.00    +0.052 C 
ATOM      2  C   LIG A   1      -2.130   0.013  -0.617  0.00  0.00    +0.178 C 
ATOM      3  O   LIG A   1      -1.824  -1.185   0.121  0.00  0.00    -0.458 OA
ATOM      4  C   LIG A   1      -1.593   1.227   0.125  0.00  0.00    +0.080 C 
ATOM      5  C   LIG A   1      -0.113   1.037   0.292  0.00  0.00    -0.026 A 
ATOM      6  C   LIG A   1       0.749   2.142   0.299  0.00  0.00    +0.005 A 
ATOM      7  C   LIG A   1       2.118   1.961   0.483  0.00  0.00    +0.004 A 
ATOM      8  C   LIG A   1       2.631   0.678   0.663  0.00  0.00    +0.046 A 
ATOM      9  C   LIG A   1       1.779  -0.431   0.650  0.00  0.00    +0.134 A 
ATOM     10  C   LIG A   1       0.395  -0.263   0.488  0.00  0.00    +0.104 A 
ATOM     11  C   LIG A   1      -0.554  -1.417   0.560  0.00  0.00    +0.343 C 
ATOM     12  O   LIG A   1      -0.242  -2.514   0.998  0.00  0.00    -0.245 OA
ENDROOT
BRANCH   9  13
ATOM     13  O   LIG A   1       2.362  -1.647   0.884  0.00  0.00    -0.494 OA
ATOM     14  C   LIG A   1       2.648  -2.315  -0.345  0.00  0.00    +0.277 C 
ENDBRANCH   9  13
TORSDOF 1
