@<TRIPOS>MOLECULE
NuBBE_1363
 50 53 0 0 0
SMALL
GASTEIGER

@<TRIPOS>ATOM
      1 C          -1.2067    5.1250    0.9116 C.2     1  LIG1       -0.1026
      2 C          -0.7952    4.1670    1.7545 C.2     1  LIG1       -0.0896
      3 C          -0.8492    2.6866    1.4662 C.3     1  LIG1       -0.0190
      4 C           0.5144    1.9424    1.5904 C.3     1  LIG1        0.0199
      5 C           1.6220    2.4402    0.6078 C.3     1  LIG1       -0.0105
      6 C           1.2935    2.0080   -0.8045 C.3     1  LIG1       -0.0269
      7 C           1.3461    0.4649   -0.6439 C.3     1  LIG1        0.0465
      8 C           1.6225   -0.2023   -2.0077 C.3     1  LIG1       -0.0146
      9 C           0.5722    0.1093   -3.0497 C.2     1  LIG1       -0.0893
     10 C          -0.4722   -0.6773   -3.3373 C.2     1  LIG1       -0.1026
     11 C           2.8904    1.6076    0.7832 C.3     1  LIG1        0.0052
     12 N           2.4214    0.2375    0.4348 N.3     1  LIG1       -0.2788
     13 C           1.6458   -0.1846    1.6323 C.3     1  LIG1        0.0653
     14 N           0.3253    0.4517    1.4749 N.3     1  LIG1       -0.2749
     15 C           0.0267    0.0363    0.0737 C.3     1  LIG1        0.0535
     16 C          -0.3401   -1.4501    0.1039 C.2     1  LIG1       -0.0368
     17 C           0.7352   -2.3639    0.6307 C.3     1  LIG1       -0.0261
     18 C           1.5220   -1.7104    1.7568 C.3     1  LIG1       -0.0200
     19 C          -1.5659   -1.8514   -0.2833 C.2     1  LIG1       -0.0030
     20 N          -1.9950   -3.1543   -0.2828 N.am    1  LIG1       -0.2922
     21 C          -3.2612   -3.5410   -0.6952 C.2     1  LIG1        0.2137
     22 C          -3.4664   -5.0307   -0.5812 C.3     1  LIG1        0.0125
     23 O          -4.1269   -2.7909   -1.1148 O.2     1  LIG1       -0.2758
     24 H          -1.1626    6.1730    1.1972 H       1  LIG1        0.0532
     25 H          -1.6128    4.8994   -0.0700 H       1  LIG1        0.0532
     26 H          -0.4422    4.4620    2.7405 H       1  LIG1        0.0567
     27 H          -1.3019    2.5256    0.4820 H       1  LIG1        0.0322
     28 H          -1.5463    2.2473    2.1930 H       1  LIG1        0.0322
     29 H           0.8708    2.1330    2.6131 H       1  LIG1        0.0469
     30 H           1.8177    3.5117    0.6980 H       1  LIG1        0.0329
     31 H           2.0614    2.3707   -1.5019 H       1  LIG1        0.0287
     32 H           0.3275    2.3809   -1.1551 H       1  LIG1        0.0287
     33 H           1.7410   -1.2854   -1.9073 H       1  LIG1        0.0326
     34 H           2.5853    0.1535   -2.4014 H       1  LIG1        0.0326
     35 H           0.6837    1.0435   -3.5972 H       1  LIG1        0.0567
     36 H          -0.6359   -1.6216   -2.8294 H       1  LIG1        0.0532
     37 H          -1.2118   -0.3858   -4.0768 H       1  LIG1        0.0532
     38 H           3.3277    1.6796    1.7867 H       1  LIG1        0.0430
     39 H           3.6788    1.9086    0.0813 H       1  LIG1        0.0430
     40 H           2.1243    0.1305    2.5704 H       1  LIG1        0.0633
     41 H          -0.8249    0.5926   -0.3325 H       1  LIG1        0.0528
     42 H           1.4149   -2.6351   -0.1838 H       1  LIG1        0.0312
     43 H           0.3283   -3.3068    1.0122 H       1  LIG1        0.0312
     44 H           2.5181   -2.1683    1.8140 H       1  LIG1        0.0296
     45 H           1.0270   -1.9420    2.7100 H       1  LIG1        0.0296
     46 H          -2.2955   -1.1264   -0.6451 H       1  LIG1        0.0782
     47 H          -1.3663   -3.8737    0.0466 H       1  LIG1        0.1542
     48 H          -2.7667   -5.5516   -1.2404 H       1  LIG1        0.0323
     49 H          -4.4880   -5.2844   -0.8773 H       1  LIG1        0.0323
     50 H          -3.3102   -5.3505    0.4527 H       1  LIG1        0.0323
@<TRIPOS>BOND
     1     1     2    2
     2     2     3    1
     3     3     4    1
     4     4     5    1
     5     5     6    1
     6     6     7    1
     7     7     8    1
     8     8     9    1
     9     9    10    2
    10     5    11    1
    11    11    12    1
    12     7    12    1
    13    12    13    1
    14    13    14    1
    15     4    14    1
    16    14    15    1
    17     7    15    1
    18    15    16    1
    19    16    17    1
    20    17    18    1
    21    13    18    1
    22    16    19    2
    23    19    20    1
    24    20    21   am
    25    21    22    1
    26    21    23    2
    27     1    24    1
    28     1    25    1
    29     2    26    1
    30     3    27    1
    31     3    28    1
    32     4    29    1
    33     5    30    1
    34     6    31    1
    35     6    32    1
    36     8    33    1
    37     8    34    1
    38     9    35    1
    39    10    36    1
    40    10    37    1
    41    11    38    1
    42    11    39    1
    43    13    40    1
    44    15    41    1
    45    17    42    1
    46    17    43    1
    47    18    44    1
    48    18    45    1
    49    19    46    1
    50    20    47    1
    51    22    48    1
    52    22    49    1
    53    22    50    1
