@<TRIPOS>MOLECULE
NuBBE_669
 30 31 0 0 0
SMALL
GASTEIGER

@<TRIPOS>ATOM
      1 O          -2.6155   -0.4091   -0.0656 O.2     2  VAL2       -0.2735
      2 C          -1.4796   -0.0981    0.2852 C.2     2  VAL2        0.2368
      3 N          -0.5472   -1.0209    0.7023 N.am    1  PRO1       -0.2884
      4 CA          0.5649   -0.6503    1.5530 C.3     1  PRO1        0.1023
      5 CB          1.4408   -1.8910    1.5185 C.3     1  PRO1       -0.0243
      6 CG          0.4034   -3.0163    1.5184 C.3     1  PRO1       -0.0350
      7 CD         -0.7716   -2.4509    0.7204 C.3     1  PRO1        0.0156
      8 HA          0.1627   -0.4934    2.5632 H       1  PRO1        0.0597
      9 CA         -0.8856    1.3136    0.0145 C.3     2  VAL2        0.1019
     10 HA         -1.6227    2.0287    0.4010 H       2  VAL2        0.0597
     11 CB         -0.7410    1.5161   -1.5185 C.3     2  VAL2       -0.0197
     12 HB         -1.7089    1.2746   -1.9791 H       2  VAL2        0.0318
     13 CG1        -0.4363    2.9759   -1.8707 C.3     2  VAL2       -0.0605
     14 CG2         0.3013    0.5988   -2.1672 C.3     2  VAL2       -0.0605
     15 N           0.3532    1.6255    0.7364 N.am    2  VAL2       -0.3022
     16 C           1.2409    0.6485    1.1313 C.2     1  PRO1        0.2342
     17 O           2.4138    0.9220    1.3612 O.2     1  PRO1       -0.2738
     18 HB1         2.1264   -1.9506    2.3689 H       1  PRO1        0.0288
     19 HB2         2.0362   -1.9262    0.5975 H       1  PRO1        0.0288
     20 HG1         0.0850   -3.2223    2.5476 H       1  PRO1        0.0281
     21 HG2         0.7886   -3.9476    1.0936 H       1  PRO1        0.0281
     22 HD1        -1.7372   -2.6835    1.1801 H       1  PRO1        0.0465
     23 HD2        -0.7748   -2.8065   -0.3148 H       1  PRO1        0.0465
     24 HG11       -0.4834    3.1268   -2.9546 H       2  VAL2        0.0233
     25 HG12        0.5638    3.2746   -1.5405 H       2  VAL2        0.0233
     26 HG13       -1.1656    3.6506   -1.4109 H       2  VAL2        0.0233
     27 HG21        0.3298    0.7583   -3.2506 H       2  VAL2        0.0233
     28 HG22        0.0622   -0.4564   -2.0055 H       2  VAL2        0.0233
     29 HG23        1.3075    0.7862   -1.7801 H       2  VAL2        0.0233
     30 H           0.7888    2.5229    0.5652 H       2  VAL2        0.1495
@<TRIPOS>BOND
     1     2     3   am
     2     3     4    1
     3     4     5    1
     4     5     6    1
     5     6     7    1
     6     3     7    1
     7     2     9    1
     8    11    12    1
     9    11    13    1
    10    11    14    1
    11     9    15    1
    12    15    16   am
    13     4    16    1
    14     1     2    2
    15     4     8    1
    16     9    10    1
    17     9    11    1
    18    16    17    2
    19     5    18    1
    20     5    19    1
    21     6    20    1
    22     6    21    1
    23     7    22    1
    24     7    23    1
    25    13    24    1
    26    13    25    1
    27    13    26    1
    28    14    27    1
    29    14    28    1
    30    14    29    1
    31    15    30    1
