@<TRIPOS>MOLECULE
NuBBE_1188
 36 38 0 0 0
SMALL
GASTEIGER

@<TRIPOS>ATOM
      1 O          -1.3991   -0.8343    0.0434 O.2     1  LIG1       -0.2864
      2 C          -0.2125   -0.5438    0.0739 C.ar    1  LIG1        0.2003
      3 C           0.2944    0.8661    0.1025 C.ar    1  LIG1        0.0643
      4 C          -0.6014    2.0395    0.0711 C.ar    1  LIG1       -0.0110
      5 C          -1.8115    1.9905   -0.6296 C.ar    1  LIG1       -0.0504
      6 C          -2.6874    3.0770   -0.6347 C.ar    1  LIG1       -0.0194
      7 C          -2.3614    4.2462    0.0481 C.ar    1  LIG1        0.1201
      8 O          -3.1382    5.3689    0.1169 O.3     1  LIG1       -0.4951
      9 C          -4.3743    5.3089   -0.5848 C.3     1  LIG1        0.0788
     10 C          -1.1521    4.3178    0.7366 C.ar    1  LIG1       -0.0194
     11 C          -0.2831    3.2243    0.7552 C.ar    1  LIG1       -0.0504
     12 C           1.6263    1.0285    0.1443 C.ar    1  LIG1        0.1038
     13 O           2.5782    0.0448    0.1877 O.2     1  LIG1       -0.4620
     14 C           0.8074   -1.6063    0.0943 C.ar    1  LIG1        0.0682
     15 C           2.1456   -1.2519    0.1594 C.ar    1  LIG1        0.1421
     16 C           3.1287   -2.2323    0.1987 C.ar    1  LIG1        0.0265
     17 C           2.7673   -3.5796    0.1596 C.ar    1  LIG1        0.1620
     18 O           3.7730   -4.5039    0.2055 O.3     1  LIG1       -0.5032
     19 C           1.4186   -3.9573    0.0775 C.ar    1  LIG1        0.1622
     20 O           0.9007   -5.2231    0.0188 O.3     1  LIG1       -0.4914
     21 C           1.8183   -6.3076    0.0016 C.3     1  LIG1        0.0790
     22 C           0.4380   -2.9563    0.0499 C.ar    1  LIG1       -0.0019
     23 H          -2.1062    1.0980   -1.1785 H       1  LIG1        0.0625
     24 H          -3.6185    2.9633   -1.1786 H       1  LIG1        0.0654
     25 H          -4.8892    6.2625   -0.4445 H       1  LIG1        0.0660
     26 H          -5.0174    4.5186   -0.1819 H       1  LIG1        0.0660
     27 H          -4.2070    5.1724   -1.6588 H       1  LIG1        0.0660
     28 H          -0.8858    5.2251    1.2731 H       1  LIG1        0.0654
     29 H           0.6376    3.3155    1.3264 H       1  LIG1        0.0625
     30 H           2.1263    1.9897    0.1479 H       1  LIG1        0.1037
     31 H           4.1685   -1.9280    0.2595 H       1  LIG1        0.0692
     32 H           4.6294   -4.0496    0.2606 H       1  LIG1        0.2923
     33 H           1.2439   -7.2347   -0.0805 H       1  LIG1        0.0660
     34 H           2.3820   -6.3588    0.9387 H       1  LIG1        0.0660
     35 H           2.4748   -6.2573   -0.8735 H       1  LIG1        0.0660
     36 H          -0.6139   -3.2327   -0.0057 H       1  LIG1        0.0663
@<TRIPOS>BOND
     1     1     2    2
     2     2     3   ar
     3     3     4    1
     4     4     5   ar
     5     5     6   ar
     6     6     7   ar
     7     7     8    1
     8     8     9    1
     9     7    10   ar
    10    10    11   ar
    11     4    11   ar
    12     3    12   ar
    13    12    13   ar
    14     2    14   ar
    15    14    15   ar
    16    13    15   ar
    17    15    16   ar
    18    16    17   ar
    19    17    18    1
    20    17    19   ar
    21    19    20    1
    22    20    21    1
    23    19    22   ar
    24    14    22   ar
    25     5    23    1
    26     6    24    1
    27     9    25    1
    28     9    26    1
    29     9    27    1
    30    10    28    1
    31    11    29    1
    32    12    30    1
    33    16    31    1
    34    18    32    1
    35    21    33    1
    36    21    34    1
    37    21    35    1
    38    22    36    1
