REMARK  Name = NuBBE_983
REMARK  9 active torsions:
REMARK  status: ('A' for Active; 'I' for Inactive)
REMARK    1  A    between atoms: C_1  and  C_2
REMARK    2  A    between atoms: C_2  and  C_3
REMARK    3  A    between atoms: C_2  and  O_4
REMARK    4  A    between atoms: C_2  and  C_5
REMARK    5  A    between atoms: C_8  and  O_9
REMARK    6  A    between atoms: O_9  and  C_10
REMARK    7  A    between atoms: C_10  and  C_11
REMARK    8  A    between atoms: C_15  and  C_16
REMARK    9  A    between atoms: C_16  and  O_17
REMARK                            x       y       z     vdW  Elec       q    Type
REMARK                         _______ _______ _______ _____ _____    ______ ____
ROOT
ATOM      1  C   LIG A   1      -0.186  -0.931  -1.252  0.00  0.00    +0.024 C 
ATOM      2  C   LIG A   1      -0.658  -1.127   0.226  0.00  0.00    +0.055 C 
ATOM      3  C   LIG A   1      -1.631  -0.181   0.964  0.00  0.00    +0.202 C 
ATOM      4  C   LIG A   1       1.378  -0.947  -1.334  0.00  0.00    +0.007 C 
ATOM      5  C   LIG A   1       2.180   0.363  -1.381  0.00  0.00    +0.006 C 
ATOM      6  C   LIG A   1       3.171   0.712  -0.239  0.00  0.00    +0.015 C 
ATOM      7  C   LIG A   1       2.595   1.704   0.794  0.00  0.00    +0.006 C 
ATOM      8  C   LIG A   1       1.421   1.176   1.625  0.00  0.00    +0.005 C 
ATOM      9  C   LIG A   1       0.119   1.815   1.149  0.00  0.00    +0.034 C 
ATOM     10  C   LIG A   1      -1.171   1.152   1.558  0.00  0.00    -0.037 C 
ATOM     11  C   LIG A   1      -2.010   1.836   2.366  0.00  0.00    +0.011 C 
ENDROOT
BRANCH   1  13
ATOM     12  C   LIG A   1      -2.413  -0.455  -2.467  0.00  0.00    +0.041 C 
ATOM     13  C   LIG A   1      -0.969   0.020  -2.219  0.00  0.00    +0.064 C 
ATOM     14  C   LIG A   1      -0.295   0.134  -3.599  0.00  0.00    +0.041 C 
BRANCH  13  15
ATOM     15  O   LIG A   1      -1.046   1.327  -1.674  0.00  0.00    -0.389 OA
ATOM     16  H   LIG A   1      -1.557   1.892  -2.280  0.00  0.00    +0.210 HD
ENDBRANCH  13  15
ENDBRANCH   1  13
BRANCH   3  17
ATOM     17  O   LIG A   1      -2.131  -0.941   2.115  0.00  0.00    -0.457 OA
BRANCH  17  18
ATOM     18  C   LIG A   1      -3.162  -1.794   1.903  0.00  0.00    +0.304 C 
ATOM     19  C   LIG A   1      -3.629  -2.381   3.191  0.00  0.00    +0.136 C 
ATOM     20  O   LIG A   1      -3.669  -2.041   0.812  0.00  0.00    -0.251 OA
ENDBRANCH  17  18
ENDBRANCH   3  17
BRANCH   6  21
ATOM     21  C   LIG A   1       3.878  -0.487   0.411  0.00  0.00    +0.159 C 
BRANCH  21  22
ATOM     22  O   LIG A   1       4.799  -0.065   1.413  0.00  0.00    -0.395 OA
ATOM     23  H   LIG A   1       5.373   0.617   1.024  0.00  0.00    +0.209 HD
ENDBRANCH  21  22
ENDBRANCH   6  21
TORSDOF 6
