@<TRIPOS>MOLECULE
NuBBE_2150
 54 57 0 0 0
SMALL
GASTEIGER

@<TRIPOS>ATOM
      1 C           1.0071   -4.6623    3.7472 C.3     1  LIG1        0.0790
      2 O           1.4529   -3.6148    2.8879 O.3     1  LIG1       -0.4913
      3 C           0.4839   -2.9575    2.1812 C.ar    1  LIG1        0.1656
      4 C          -0.8749   -3.2077    2.2020 C.ar    1  LIG1        0.2075
      5 O          -1.5374   -4.1756    2.8965 O.3     1  LIG1       -0.4489
      6 C          -2.8740   -4.0289    2.3928 C.3     1  LIG1        0.2334
      7 O          -3.0412   -2.8504    1.5866 O.3     1  LIG1       -0.4525
      8 C          -1.7445   -2.4536    1.4509 C.ar    1  LIG1        0.1702
      9 C          -1.3192   -1.4321    0.6251 C.ar    1  LIG1       -0.0124
     10 C           0.0560   -1.1799    0.5069 C.ar    1  LIG1       -0.0339
     11 C           0.6406   -0.1513   -0.4750 C.3     1  LIG1        0.0220
     12 H           1.6284   -0.5370   -0.7628 H       1  LIG1        0.0381
     13 C           0.7734    1.2427    0.2242 C.3     1  LIG1       -0.0255
     14 H           0.2654    1.2037    1.1982 H       1  LIG1        0.0311
     15 C           2.2429    1.5679    0.5129 C.3     1  LIG1       -0.0612
     16 C          -0.0128    2.2633   -0.6776 C.3     1  LIG1        0.0129
     17 C          -0.7580    3.3422    0.1545 C.3     1  LIG1       -0.0262
     18 C           0.1205    4.2125    1.0133 C.2     1  LIG1       -0.0905
     19 C           0.2094    5.5438    0.9060 C.2     1  LIG1       -0.1026
     20 C          -1.0367    1.3338   -1.3736 C.3     1  LIG1        0.0941
     21 O          -1.6965    1.9530   -2.4744 O.3     1  LIG1       -0.3882
     22 H          -1.8228    1.0288   -0.6773 H       1  LIG1        0.0629
     23 C           0.8578    2.9385   -1.7576 C.3     1  LIG1        0.0172
     24 C           1.5633    1.9089   -2.6025 C.2     1  LIG1        0.1651
     25 C           0.8060    0.6355   -2.9577 C.3     1  LIG1        0.1447
     26 H           1.5586   -0.1311   -3.1707 H       1  LIG1        0.0703
     27 O           0.0812    0.8517   -4.1743 O.3     1  LIG1       -0.3813
     28 C          -0.1393    0.1495   -1.8059 C.3     1  LIG1        0.1348
     29 O          -0.9669   -0.9358   -2.2646 O.3     1  LIG1       -0.3704
     30 C          -0.2570   -2.0937   -2.7071 C.3     1  LIG1        0.0374
     31 O           2.7009    2.1304   -3.0444 O.2     1  LIG1       -0.2945
     32 C           0.9403   -1.9365    1.3233 C.ar    1  LIG1       -0.0125
     33 H           1.8802   -5.0975    4.2413 H       1  LIG1        0.0660
     34 H           0.5286   -5.4650    3.1750 H       1  LIG1        0.0660
     35 H           0.3470   -4.2765    4.5324 H       1  LIG1        0.0660
     36 H          -3.5651   -3.9872    3.2408 H       1  LIG1        0.1166
     37 H          -3.1161   -4.9102    1.7853 H       1  LIG1        0.1166
     38 H          -2.0699   -0.9014    0.0551 H       1  LIG1        0.0658
     39 H           2.6405    0.8730    1.2596 H       1  LIG1        0.0233
     40 H           2.3754    2.5787    0.9031 H       1  LIG1        0.0233
     41 H           2.8741    1.4719   -0.3745 H       1  LIG1        0.0233
     42 H          -1.4755    2.8502    0.8244 H       1  LIG1        0.0314
     43 H          -1.3584    3.9695   -0.5174 H       1  LIG1        0.0314
     44 H           0.6977    3.7266    1.7973 H       1  LIG1        0.0566
     45 H          -0.3584    6.1012    0.1682 H       1  LIG1        0.0532
     46 H           0.8565    6.1088    1.5715 H       1  LIG1        0.0532
     47 H          -2.4983    1.4174   -2.6459 H       1  LIG1        0.2099
     48 H           1.6133    3.5894   -1.3062 H       1  LIG1        0.0349
     49 H           0.2532    3.5614   -2.4290 H       1  LIG1        0.0349
     50 H          -0.6823    1.4213   -3.9477 H       1  LIG1        0.2105
     51 H           0.3275   -1.8857   -3.6070 H       1  LIG1        0.0524
     52 H          -0.9875   -2.8664   -2.9613 H       1  LIG1        0.0524
     53 H           0.3982   -2.4895   -1.9263 H       1  LIG1        0.0524
     54 H           2.0128   -1.7479    1.2772 H       1  LIG1        0.0658
@<TRIPOS>BOND
     1     1     2    1
     2     2     3    1
     3     3     4   ar
     4     4     5    1
     5     5     6    1
     6     6     7    1
     7     4     8   ar
     8     7     8    1
     9     8     9   ar
    10     9    10   ar
    11    11    13    1
    12    13    14    1
    13    13    15    1
    14    13    16    1
    15    16    17    1
    16    17    18    1
    17    18    19    2
    18    16    20    1
    19    20    21    1
    20    20    22    1
    21    16    23    1
    22    23    24    1
    23    24    25    1
    24    25    26    1
    25    25    27    1
    26    25    28    1
    27    20    28    1
    28    11    28    1
    29    28    29    1
    30    29    30    1
    31    24    31    2
    32    10    32   ar
    33     3    32   ar
    34    11    12    1
    35    11    10    1
    36     1    33    1
    37     1    34    1
    38     1    35    1
    39     6    36    1
    40     6    37    1
    41     9    38    1
    42    15    39    1
    43    15    40    1
    44    15    41    1
    45    17    42    1
    46    17    43    1
    47    18    44    1
    48    19    45    1
    49    19    46    1
    50    21    47    1
    51    23    48    1
    52    23    49    1
    53    27    50    1
    54    30    51    1
    55    30    52    1
    56    30    53    1
    57    32    54    1
