REMARK  Name = NuBBE_1604
REMARK  10 active torsions:
REMARK  status: ('A' for Active; 'I' for Inactive)
REMARK    1  A    between atoms: O_1  and  C_2
REMARK    2  A    between atoms: C_3  and  C_4
REMARK    3  A    between atoms: C_4  and  C_5
REMARK    4  A    between atoms: C_5  and  C_6
REMARK    5  A    between atoms: C_6  and  C_7
REMARK    6  A    between atoms: C_10  and  O_11
REMARK    7  A    between atoms: O_11  and  C_12
REMARK    8  A    between atoms: C_16  and  O_17
REMARK    9  A    between atoms: O_17  and  C_18
REMARK   10  A    between atoms: C_20  and  O_21
REMARK                            x       y       z     vdW  Elec       q    Type
REMARK                         _______ _______ _______ _____ _____    ______ ____
ROOT
ATOM      1  C   LIG A   1      -0.958  -4.256   0.244  0.00  0.00    +0.134 A 
ATOM      2  C   LIG A   1      -1.007  -2.858   0.053  0.00  0.00    +0.101 A 
ATOM      3  C   LIG A   1      -2.278  -2.263  -0.122  0.00  0.00    +0.138 A 
ATOM      4  C   LIG A   1      -3.434  -3.072  -0.126  0.00  0.00    +0.092 A 
ATOM      5  C   LIG A   1      -3.340  -4.445   0.078  0.00  0.00    +0.124 A 
ATOM      6  C   LIG A   1      -2.108  -5.042   0.264  0.00  0.00    +0.091 A 
ENDROOT
BRANCH   1   7
ATOM      7  O   LIG A   1       0.209  -4.963   0.416  0.00  0.00    -0.506 OA
ATOM      8  H   LIG A   1       0.958  -4.326   0.381  0.00  0.00    +0.292 HD
ENDBRANCH   1   7
BRANCH   2   9
ATOM      9  C   LIG A   1       0.298  -2.099   0.080  0.00  0.00    +0.171 C 
ATOM     10  O   LIG A   1       1.328  -2.765   0.264  0.00  0.00    -0.292 OA
BRANCH   9  11
ATOM     11  C   LIG A   1       0.393  -0.596  -0.104  0.00  0.00    +0.084 C 
BRANCH  11  12
ATOM     12  C   LIG A   1       1.860  -0.135  -0.009  0.00  0.00    +0.043 C 
BRANCH  12  13
ATOM     13  C   LIG A   1       2.030   1.355  -0.173  0.00  0.00    -0.047 A 
ATOM     14  C   LIG A   1       2.269   1.917  -1.433  0.00  0.00    +0.007 A 
ATOM     15  C   LIG A   1       2.422   3.300  -1.574  0.00  0.00    +0.046 A 
ATOM     16  C   LIG A   1       2.358   4.135  -0.458  0.00  0.00    +0.120 A 
ATOM     17  C   LIG A   1       2.099   3.584   0.796  0.00  0.00    +0.046 A 
ATOM     18  C   LIG A   1       1.942   2.202   0.938  0.00  0.00    +0.007 A 
BRANCH  16  19
ATOM     19  O   LIG A   1       2.520   5.472  -0.705  0.00  0.00    -0.495 OA
ATOM     20  C   LIG A   1       3.097   6.214   0.366  0.00  0.00    +0.277 C 
ENDBRANCH  16  19
ENDBRANCH  12  13
ENDBRANCH  11  12
ENDBRANCH   9  11
ENDBRANCH   2   9
BRANCH   3  21
ATOM     21  O   LIG A   1      -2.357  -0.910  -0.334  0.00  0.00    -0.494 OA
ATOM     22  C   LIG A   1      -3.568  -0.276   0.075  0.00  0.00    +0.277 C 
ENDBRANCH   3  21
BRANCH   5  23
ATOM     23  O   LIG A   1      -4.442  -5.247   0.093  0.00  0.00    -0.506 OA
ATOM     24  H   LIG A   1      -5.236  -4.716  -0.081  0.00  0.00    +0.292 HD
ENDBRANCH   5  23
TORSDOF 8
