@<TRIPOS>MOLECULE
NuBBE_2325
 48 51 0 0 0
SMALL
GASTEIGER

@<TRIPOS>ATOM
      1 C           0.0685    1.2591    0.6116 C.3     1  LIG1       -0.0219
      2 H          -0.0530    1.6728   -0.3920 H       1  LIG1        0.0314
      3 C           1.5495    0.7855    0.7016 C.3     1  LIG1        0.0282
      4 C           1.4265   -0.5963   -0.0089 C.3     1  LIG1        0.1017
      5 C           0.2414   -1.2319    0.7526 C.3     1  LIG1        0.1675
      6 C          -0.7985   -0.0446    0.7878 C.3     1  LIG1        0.0267
      7 H          -1.2577   -0.0087    1.7872 H       1  LIG1        0.0385
      8 C          -1.9534   -0.1358   -0.2144 C.ar    1  LIG1       -0.0371
      9 C          -3.1603   -0.7680    0.1806 C.ar    1  LIG1       -0.0545
     10 C          -4.2730   -0.8256   -0.6730 C.ar    1  LIG1       -0.0159
     11 C          -4.1646   -0.2369   -1.9123 C.ar    1  LIG1        0.1662
     12 C          -2.9966    0.3528   -2.3195 C.ar    1  LIG1        0.1665
     13 C          -1.8775    0.3922   -1.5156 C.ar    1  LIG1       -0.0126
     14 O          -3.0819    0.8857   -3.5677 O.3     1  LIG1       -0.4526
     15 C          -4.4551    0.5875   -3.8893 C.3     1  LIG1        0.2332
     16 O          -5.1373   -0.1595   -2.8591 O.3     1  LIG1       -0.4526
     17 C           0.6908   -1.4937    2.2186 C.2     1  LIG1        0.2314
     18 O           0.3244   -2.4483    2.9151 O.2     1  LIG1       -0.2856
     19 C           1.5888   -0.4842    2.8598 C.2     1  LIG1        0.1589
     20 C           1.9491    0.5957    2.1570 C.2     1  LIG1       -0.0296
     21 O           1.9848   -0.6713    4.1642 O.2     1  LIG1       -0.5035
     22 O          -0.3281   -2.3833    0.1354 O.3     1  LIG1       -0.3654
     23 C           0.5604   -3.4777   -0.0540 C.3     1  LIG1        0.0379
     24 O           2.6073   -1.3892    0.0520 O.3     1  LIG1       -0.3876
     25 C           2.5017    1.7646   -0.0329 C.3     1  LIG1       -0.0230
     26 C           3.9624    1.3976    0.0023 C.2     1  LIG1       -0.0902
     27 C           4.7193    1.1832   -1.0811 C.2     1  LIG1       -0.1026
     28 C          -0.3637    2.3964    1.5356 C.3     1  LIG1       -0.0609
     29 H           1.1702   -0.4868   -1.0711 H       1  LIG1        0.0636
     30 H          -3.2372   -1.2279    1.1654 H       1  LIG1        0.0622
     31 H          -5.1923   -1.3112   -0.3655 H       1  LIG1        0.0655
     32 H          -0.9837    0.8450   -1.9235 H       1  LIG1        0.0658
     33 H          -4.4744    0.0094   -4.8198 H       1  LIG1        0.1166
     34 H          -4.9886    1.5319   -4.0511 H       1  LIG1        0.1166
     35 H           2.5476    1.3605    2.6444 H       1  LIG1        0.0616
     36 H           1.6193   -1.5478    4.4130 H       1  LIG1        0.2923
     37 H          -0.0406   -4.3756   -0.2245 H       1  LIG1        0.0524
     38 H           1.1988   -3.6614    0.8147 H       1  LIG1        0.0524
     39 H           1.1741   -3.3120   -0.9433 H       1  LIG1        0.0524
     40 H           3.2739   -0.9748   -0.5243 H       1  LIG1        0.2100
     41 H           2.1750    1.8694   -1.0764 H       1  LIG1        0.0317
     42 H           2.4075    2.7636    0.4124 H       1  LIG1        0.0317
     43 H           4.4303    1.3184    0.9831 H       1  LIG1        0.0567
     44 H           4.3243    1.2632   -2.0888 H       1  LIG1        0.0532
     45 H           5.7706    0.9284   -0.9742 H       1  LIG1        0.0532
     46 H          -0.2235    2.1587    2.5931 H       1  LIG1        0.0233
     47 H          -1.4252    2.6230    1.3841 H       1  LIG1        0.0233
     48 H           0.1996    3.3080    1.3105 H       1  LIG1        0.0233
@<TRIPOS>BOND
     1     1     3    1
     2     3     4    1
     3     4     5    1
     4     5     6    1
     5     1     6    1
     6     8     9   ar
     7     9    10   ar
     8    10    11   ar
     9    11    12   ar
    10    12    13   ar
    11     8    13   ar
    12    12    14    1
    13    14    15    1
    14    15    16    1
    15    11    16    1
    16     5    17    1
    17    17    19    1
    18    19    20    2
    19     3    20    1
    20    22    23    1
    21    25    26    1
    22    26    27    2
    23     3    25    1
    24     4    24    1
    25     5    22    1
    26     6     7    1
    27     6     8    1
    28    17    18    2
    29    19    21    1
    30     1    28    1
    31     1     2    1
    32     4    29    1
    33     9    30    1
    34    10    31    1
    35    13    32    1
    36    15    33    1
    37    15    34    1
    38    20    35    1
    39    21    36    1
    40    23    37    1
    41    23    38    1
    42    23    39    1
    43    24    40    1
    44    25    41    1
    45    25    42    1
    46    26    43    1
    47    27    44    1
    48    27    45    1
    49    28    46    1
    50    28    47    1
    51    28    48    1
