REMARK  Name = NuBBE_156
REMARK  5 active torsions:
REMARK  status: ('A' for Active; 'I' for Inactive)
REMARK    1  A    between atoms: C_2  and  C_3
REMARK    2  A    between atoms: C_2  and  O_15
REMARK    3  A    between atoms: C_8  and  C_9
REMARK    4  A    between atoms: C_8  and  C_14
REMARK    5  A    between atoms: O_15  and  C_16
REMARK                            x       y       z     vdW  Elec       q    Type
REMARK                         _______ _______ _______ _____ _____    ______ ____
ROOT
ATOM      1  C   LIG A   1      -0.188  -2.134   0.587  0.00  0.00    +0.059 A 
ATOM      2  C   LIG A   1       0.863  -2.108  -0.336  0.00  0.00    +0.018 A 
ATOM      3  C   LIG A   1       1.261  -0.897  -0.903  0.00  0.00    +0.046 A 
ATOM      4  C   LIG A   1       0.616   0.290  -0.553  0.00  0.00    +0.124 A 
ATOM      5  O   LIG A   1       1.095   1.417  -1.160  0.00  0.00    -0.486 OA
ATOM      6  C   LIG A   1       0.344   2.631  -0.988  0.00  0.00    +0.105 C 
ATOM      7  C   LIG A   1      -0.731   2.709  -2.082  0.00  0.00    +0.055 C 
ATOM      8  C   LIG A   1      -0.240   2.751   0.428  0.00  0.00    +0.052 C 
ATOM      9  C   LIG A   1      -1.119   1.554   0.763  0.00  0.00    +0.043 C 
ATOM     10  C   LIG A   1      -0.427   0.281   0.378  0.00  0.00    -0.005 A 
ATOM     11  C   LIG A   1      -0.840  -0.941   0.931  0.00  0.00    +0.022 A 
ATOM     12  C   LIG A   1       1.348   3.773  -1.208  0.00  0.00    +0.055 C 
ENDROOT
BRANCH   1  14
ATOM     13  O   LIG A   1      -1.754  -3.569   1.682  0.00  0.00    -0.245 OA
ATOM     14  C   LIG A   1      -0.643  -3.402   1.213  0.00  0.00    +0.339 C 
BRANCH  14  15
ATOM     15  O   LIG A   1       0.377  -4.298   1.216  0.00  0.00    -0.465 OA
ATOM     16  C   LIG A   1       0.058  -5.546   1.831  0.00  0.00    +0.280 C 
ENDBRANCH  14  15
ENDBRANCH   1  14
TORSDOF 2
