REMARK  Name = NuBBE_2011
REMARK  14 active torsions:
REMARK  status: ('A' for Active; 'I' for Inactive)
REMARK    1  A    between atoms: O_1  and  C_2
REMARK    2  A    between atoms: C_4  and  C_5
REMARK    3  A    between atoms: C_6  and  C_12
REMARK    4  A    between atoms: C_21  and  C_46
REMARK    5  A    between atoms: C_22  and  O_42
REMARK    6  A    between atoms: C_27  and  O_29
REMARK    7  A    between atoms: C_30  and  C_41
REMARK    8  A    between atoms: C_31  and  C_33
REMARK    9  A    between atoms: C_33  and  C_35
REMARK   10  A    between atoms: C_33  and  O_39
REMARK   11  A    between atoms: C_35  and  O_37
REMARK   12  A    between atoms: O_37  and  C_38
REMARK   13  A    between atoms: O_42  and  C_43
REMARK   14  A    between atoms: C_43  and  C_45
REMARK                            x       y       z     vdW  Elec       q    Type
REMARK                         _______ _______ _______ _____ _____    ______ ____
ROOT
ATOM      1  C   LIG A   1      -1.322  -0.244   0.239  0.00  0.00    +0.108 C 
ATOM      2  C   LIG A   1      -1.666   0.016  -1.228  0.00  0.00    +0.118 C 
ATOM      3  C   LIG A   1      -1.283  -1.229  -2.135  0.00  0.00    +0.042 C 
ATOM      4  C   LIG A   1      -1.077  -0.750  -3.593  0.00  0.00    +0.018 C 
ATOM      5  C   LIG A   1      -2.459  -2.270  -2.049  0.00  0.00    +0.218 C 
ATOM      6  O   LIG A   1      -3.747  -1.682  -2.298  0.00  0.00    -0.456 OA
ATOM      7  C   LIG A   1      -4.116  -0.616  -1.562  0.00  0.00    +0.311 C 
ATOM      8  O   LIG A   1      -5.274  -0.451  -1.202  0.00  0.00    -0.251 OA
ATOM      9  C   LIG A   1      -3.101   0.473  -1.491  0.00  0.00    +0.159 C 
ATOM     10  C   LIG A   1       0.064  -1.936  -1.700  0.00  0.00    +0.014 C 
ATOM     11  C   LIG A   1       0.341  -2.026  -0.191  0.00  0.00    +0.008 C 
ATOM     12  C   LIG A   1       0.177  -0.611   0.318  0.00  0.00    +0.034 C 
ATOM     13  C   LIG A   1       0.735  -0.056   1.654  0.00  0.00    +0.020 C 
ATOM     14  C   LIG A   1      -0.416   0.902   2.157  0.00  0.00    +0.128 C 
ATOM     15  C   LIG A   1      -1.329   1.092   0.917  0.00  0.00    +0.100 C 
ATOM     16  C   LIG A   1      -0.828   2.005  -0.219  0.00  0.00    +0.158 C 
ATOM     17  O   LIG A   1      -0.858   1.217  -1.469  0.00  0.00    -0.363 OA
ATOM     18  C   LIG A   1       0.582   2.622  -0.051  0.00  0.00    +0.150 C 
ATOM     19  C   LIG A   1       1.249   2.397   1.340  0.00  0.00    +0.006 C 
ATOM     20  C   LIG A   1       1.938   0.978   1.478  0.00  0.00    +0.047 C 
ATOM     21  C   LIG A   1       0.177   2.277   2.438  0.00  0.00    +0.058 C 
ATOM     22  C   LIG A   1       2.167   3.569   1.732  0.00  0.00    +0.014 C 
ATOM     23  C   LIG A   1       1.128  -1.204   2.590  0.00  0.00    +0.016 C 
ENDROOT
BRANCH   5  24
ATOM     24  C   LIG A   1      -2.320  -3.457  -2.975  0.00  0.00    +0.031 A 
ATOM     25  C   LIG A   1      -2.825  -3.592  -4.306  0.00  0.00    +0.048 A 
ATOM     26  C   LIG A   1      -2.462  -4.842  -4.743  0.00  0.00    +0.195 A 
ATOM     27  O   LIG A   1      -1.783  -5.502  -3.773  0.00  0.00    -0.471 OA
ATOM     28  C   LIG A   1      -1.718  -4.672  -2.703  0.00  0.00    +0.202 A 
ENDBRANCH   5  24
BRANCH   1  29
ATOM     29  O   LIG A   1      -2.182  -1.173   0.860  0.00  0.00    -0.385 OA
ATOM     30  H   LIG A   1      -2.109  -1.069   1.829  0.00  0.00    +0.210 HD
ENDBRANCH   1  29
BRANCH  18  31
ATOM     31  O   LIG A   1       0.460   4.028  -0.311  0.00  0.00    -0.389 OA
ATOM     32  H   LIG A   1       0.222   4.127  -1.252  0.00  0.00    +0.210 HD
ENDBRANCH  18  31
BRANCH  20  33
ATOM     33  C   LIG A   1       3.028   0.585   0.446  0.00  0.00    +0.227 C 
BRANCH  33  34
ATOM     34  C   LIG A   1       4.180   1.599   0.423  0.00  0.00    +0.336 C 
ATOM     35  O   LIG A   1       4.976   1.793   1.329  0.00  0.00    -0.248 OA
BRANCH  34  36
ATOM     36  O   LIG A   1       4.139   2.265  -0.766  0.00  0.00    -0.466 OA
ATOM     37  C   LIG A   1       4.898   3.471  -0.857  0.00  0.00    +0.280 C 
ENDBRANCH  34  36
ENDBRANCH  33  34
BRANCH  33  38
ATOM     38  O   LIG A   1       3.513  -0.719   0.757  0.00  0.00    -0.380 OA
ATOM     39  H   LIG A   1       4.301  -0.884   0.210  0.00  0.00    +0.210 HD
ENDBRANCH  33  38
ENDBRANCH  20  33
BRANCH  14  40
ATOM     40  O   LIG A   1      -1.202   0.269   3.194  0.00  0.00    -0.457 OA
BRANCH  40  41
ATOM     41  C   LIG A   1      -0.753   0.243   4.486  0.00  0.00    +0.304 C 
ATOM     42  O   LIG A   1       0.044   1.007   4.995  0.00  0.00    -0.251 OA
ATOM     43  C   LIG A   1      -1.308  -0.946   5.215  0.00  0.00    +0.136 C 
ENDBRANCH  40  41
ENDBRANCH  14  40
TORSDOF 9
