@<TRIPOS>MOLECULE
NuBBE_626
 27 27 0 0 0
SMALL
GASTEIGER

@<TRIPOS>ATOM
      1 O          -1.9152   -0.3288    1.4107 O.2     1  LIG1       -0.2450
      2 C          -1.1186   -0.4994    0.4977 C.2     1  LIG1        0.3394
      3 O          -0.5084   -1.6586    0.1693 O.3     1  LIG1       -0.4612
      4 C          -0.7991   -2.7903    0.9978 C.3     1  LIG1        0.0925
      5 C           0.0561   -2.7823    2.2624 C.3     1  LIG1       -0.0214
      6 C           1.5518   -2.7855    1.9776 C.3     1  LIG1       -0.0622
      7 C          -0.6474    0.5908   -0.3912 C.ar    1  LIG1        0.0661
      8 C          -1.0835    1.9026   -0.1281 C.ar    1  LIG1       -0.0023
      9 C          -0.6004    2.9488   -0.9051 C.ar    1  LIG1        0.1628
     10 O          -0.9699    4.2466   -0.6865 O.3     1  LIG1       -0.5032
     11 C           0.3002    2.6970   -1.9352 C.ar    1  LIG1        0.2006
     12 O           0.7984    3.7224   -2.6910 O.3     1  LIG1       -0.5009
     13 C           0.7141    1.4001   -2.2053 C.ar    1  LIG1        0.1628
     14 O           1.6005    1.1537   -3.2120 O.3     1  LIG1       -0.5032
     15 C           0.2452    0.3404   -1.4462 C.ar    1  LIG1       -0.0023
     16 H          -0.5881   -3.6844    0.4018 H       1  LIG1        0.0697
     17 H          -1.8664   -2.8168    1.2470 H       1  LIG1        0.0697
     18 H          -0.1989   -3.6556    2.8720 H       1  LIG1        0.0295
     19 H          -0.1709   -1.8894    2.8548 H       1  LIG1        0.0295
     20 H           1.8509   -3.6873    1.4344 H       1  LIG1        0.0231
     21 H           2.1088   -2.7586    2.9202 H       1  LIG1        0.0231
     22 H           1.8503   -1.9119    1.3898 H       1  LIG1        0.0231
     23 H          -1.7786    2.0856    0.6877 H       1  LIG1        0.0663
     24 H          -1.6018    4.2668    0.0545 H       1  LIG1        0.2923
     25 H           0.3806    4.5238   -2.3136 H       1  LIG1        0.2924
     26 H           1.7990    2.0338   -3.5901 H       1  LIG1        0.2923
     27 H           0.5913   -0.6637   -1.6733 H       1  LIG1        0.0663
@<TRIPOS>BOND
     1     1     2    2
     2     2     3    1
     3     3     4    1
     4     4     5    1
     5     5     6    1
     6     2     7    1
     7     7     8   ar
     8     8     9   ar
     9     9    10    1
    10     9    11   ar
    11    11    12    1
    12    11    13   ar
    13    13    14    1
    14    13    15   ar
    15     7    15   ar
    16     4    16    1
    17     4    17    1
    18     5    18    1
    19     5    19    1
    20     6    20    1
    21     6    21    1
    22     6    22    1
    23     8    23    1
    24    10    24    1
    25    12    25    1
    26    14    26    1
    27    15    27    1
