@<TRIPOS>MOLECULE
NuBBE_1944
 39 40 0 0 0
SMALL
GASTEIGER

@<TRIPOS>ATOM
      1 C          -0.2008   -3.4519   -0.7533 C.3     1  LIG1       -0.0624
      2 C          -0.5071   -2.0124   -0.3034 C.3     1  LIG1       -0.0433
      3 H          -1.1654   -2.1244    0.5675 H       1  LIG1        0.0298
      4 C           0.7866   -1.2673    0.1729 C.3     1  LIG1       -0.0316
      5 H           1.1981   -1.9725    0.9153 H       1  LIG1        0.0309
      6 C           0.6141    0.0609    0.9949 C.3     1  LIG1       -0.0131
      7 H           1.4235    0.0118    1.7430 H       1  LIG1        0.0352
      8 C           0.8771    1.4089    0.2639 C.3     1  LIG1       -0.0133
      9 C          -0.3922    2.0307   -0.3282 C.3     1  LIG1       -0.0423
     10 C          -1.4968    2.1870    0.7190 C.3     1  LIG1       -0.0314
     11 C          -1.6021    1.0476    1.7006 C.2     1  LIG1       -0.0762
     12 C          -2.8299    1.0456    2.5661 C.3     1  LIG1       -0.0438
     13 C          -0.6554    0.0996    1.8128 C.2     1  LIG1       -0.0811
     14 H           1.2154    2.1128    1.0417 H       1  LIG1        0.0351
     15 C           1.9748    1.3127   -0.7716 C.2     1  LIG1       -0.0729
     16 C           1.8932    0.1345   -1.6960 C.3     1  LIG1       -0.0314
     17 C           1.9028   -1.1570   -0.8901 C.3     1  LIG1       -0.0457
     18 C           2.9768    2.2047   -0.8406 C.2     1  LIG1       -0.0992
     19 C          -1.3234   -1.3237   -1.3906 C.3     1  LIG1       -0.0624
     20 H          -1.1307   -4.0221   -0.8605 H       1  LIG1        0.0232
     21 H           0.4187   -3.9734   -0.0165 H       1  LIG1        0.0232
     22 H           0.3096   -3.4823   -1.7205 H       1  LIG1        0.0232
     23 H          -0.7583    1.4383   -1.1709 H       1  LIG1        0.0274
     24 H          -0.1675    3.0205   -0.7475 H       1  LIG1        0.0274
     25 H          -2.4518    2.3162    0.1954 H       1  LIG1        0.0310
     26 H          -1.3197    3.1090    1.2874 H       1  LIG1        0.0310
     27 H          -3.7299    0.9694    1.9475 H       1  LIG1        0.0274
     28 H          -2.8845    1.9708    3.1488 H       1  LIG1        0.0274
     29 H          -2.8374    0.2069    3.2701 H       1  LIG1        0.0274
     30 H          -0.7741   -0.6962    2.5463 H       1  LIG1        0.0575
     31 H           2.7413    0.1222   -2.3917 H       1  LIG1        0.0310
     32 H           0.9944    0.2112   -2.3137 H       1  LIG1        0.0310
     33 H           2.8685   -1.2235   -0.3683 H       1  LIG1        0.0271
     34 H           1.8894   -2.0071   -1.5779 H       1  LIG1        0.0271
     35 H           3.0337    3.0490   -0.1600 H       1  LIG1        0.0534
     36 H           3.7663    2.1175   -1.5809 H       1  LIG1        0.0534
     37 H          -2.1714   -1.9520   -1.6878 H       1  LIG1        0.0232
     38 H          -0.7347   -1.1339   -2.2907 H       1  LIG1        0.0232
     39 H          -1.7513   -0.3881   -1.0326 H       1  LIG1        0.0232
@<TRIPOS>BOND
     1     1     2    1
     2     2     3    1
     3     4     6    1
     4     6     8    1
     5     8     9    1
     6     9    10    1
     7    10    11    1
     8    11    13    2
     9     6    13    1
    10     8    15    1
    11    15    16    1
    12    16    17    1
    13     4    17    1
    14     2    19    1
    15     6     7    1
    16     8    14    1
    17    11    12    1
    18    15    18    2
    19     4     5    1
    20     4     2    1
    21     1    20    1
    22     1    21    1
    23     1    22    1
    24     9    23    1
    25     9    24    1
    26    10    25    1
    27    10    26    1
    28    12    27    1
    29    12    28    1
    30    12    29    1
    31    13    30    1
    32    16    31    1
    33    16    32    1
    34    17    33    1
    35    17    34    1
    36    18    35    1
    37    18    36    1
    38    19    37    1
    39    19    38    1
    40    19    39    1
