REMARK  Name = NuBBE_352
REMARK  8 active torsions:
REMARK  status: ('A' for Active; 'I' for Inactive)
REMARK    1  A    between atoms: C_2  and  O_3
REMARK    2  A    between atoms: C_2  and  C_5
REMARK    3  A    between atoms: O_3  and  C_4
REMARK    4  A    between atoms: C_8  and  O_9
REMARK    5  A    between atoms: C_10  and  C_11
REMARK    6  A    between atoms: C_11  and  C_12
REMARK    7  A    between atoms: C_13  and  C_14
REMARK    8  A    between atoms: C_13  and  C_15
REMARK                            x       y       z     vdW  Elec       q    Type
REMARK                         _______ _______ _______ _____ _____    ______ ____
ROOT
ATOM      1  C   LIG A   1      -1.306   1.820  -0.718  0.00  0.00    +0.059 A 
ATOM      2  C   LIG A   1      -0.948   3.086  -0.237  0.00  0.00    +0.018 A 
ATOM      3  C   LIG A   1      -0.164   3.200   0.913  0.00  0.00    +0.046 A 
ATOM      4  C   LIG A   1       0.261   2.051   1.584  0.00  0.00    +0.120 A 
ATOM      5  C   LIG A   1      -0.081   0.777   1.123  0.00  0.00    -0.002 A 
ATOM      6  C   LIG A   1      -0.863   0.675  -0.036  0.00  0.00    +0.022 A 
ENDROOT
BRANCH   1   8
ATOM      7  O   LIG A   1      -2.588   2.666  -2.569  0.00  0.00    -0.245 OA
ATOM      8  C   LIG A   1      -2.166   1.710  -1.928  0.00  0.00    +0.339 C 
BRANCH   8   9
ATOM      9  O   LIG A   1      -2.419   0.404  -2.170  0.00  0.00    -0.465 OA
ATOM     10  C   LIG A   1      -3.336   0.133  -3.228  0.00  0.00    +0.280 C 
ENDBRANCH   8   9
ENDBRANCH   1   8
BRANCH   4  11
ATOM     11  O   LIG A   1       1.024   2.160   2.711  0.00  0.00    -0.506 OA
ATOM     12  H   LIG A   1       1.227   3.098   2.862  0.00  0.00    +0.292 HD
ENDBRANCH   4  11
BRANCH   5  13
ATOM     13  C   LIG A   1       0.388  -0.488   1.803  0.00  0.00    +0.066 C 
BRANCH  13  14
ATOM     14  C   LIG A   1       1.707  -0.975   1.261  0.00  0.00    -0.023 C 
ATOM     15  C   LIG A   1       1.978  -2.170   0.697  0.00  0.00    -0.079 C 
ATOM     16  C   LIG A   1       0.971  -3.262   0.465  0.00  0.00    +0.038 C 
ATOM     17  C   LIG A   1       3.375  -2.517   0.252  0.00  0.00    +0.038 C 
ENDBRANCH  13  14
ENDBRANCH   5  13
TORSDOF 5
