@<TRIPOS>MOLECULE
NuBBE_1514
 67 71 0 0 0
SMALL
GASTEIGER

@<TRIPOS>ATOM
      1 O          -4.1446   -2.2399   -0.2828 O.3     1  LIG1       -0.4287
      2 C          -5.0647   -1.2493   -0.2347 C.2     1  LIG1        0.3064
      3 O          -4.8760   -0.1023    0.1544 O.2     1  LIG1       -0.2511
      4 C          -6.3635   -1.7197   -0.8140 C.3     1  LIG1        0.0333
      5 C          -2.8169   -1.9891    0.1941 C.3     1  LIG1        0.2532
      6 C          -2.1120   -0.7953   -0.4621 C.3     1  LIG1        0.0250
      7 C          -0.6426   -1.2030   -0.2971 C.3     1  LIG1        0.0064
      8 C          -0.7824   -2.6545   -0.7724 C.3     1  LIG1        0.0584
      9 O          -2.0144   -3.1335   -0.2295 O.3     1  LIG1       -0.3358
     10 C           0.3278   -0.3897   -1.1918 C.3     1  LIG1       -0.0297
     11 H          -0.0936   -0.3796   -2.2090 H       1  LIG1        0.0310
     12 C           0.4173    1.0836   -0.7383 C.3     1  LIG1       -0.0339
     13 H          -0.5543    1.5333   -1.0009 H       1  LIG1        0.0307
     14 C           1.4247    1.9070   -1.6090 C.3     1  LIG1       -0.0252
     15 H           0.8952    2.1063   -2.5519 H       1  LIG1        0.0313
     16 C           2.7860    1.2291   -1.9437 C.3     1  LIG1       -0.0191
     17 C           2.6169   -0.2656   -2.2683 C.3     1  LIG1       -0.0464
     18 C           1.7196   -1.0363   -1.3138 C.3     1  LIG1       -0.0488
     19 C           3.3948    1.8801   -3.2177 C.3     1  LIG1       -0.0586
     20 C           3.6544    1.5381   -0.6779 C.3     1  LIG1        0.0229
     21 H           3.3897    0.8508    0.1331 H       1  LIG1        0.0383
     22 C           3.1160    2.9173   -0.2970 C.2     1  LIG1        0.1372
     23 O           3.6388    3.6831    0.5028 O.2     1  LIG1       -0.2971
     24 C           1.8264    3.2542   -1.0017 C.3     1  LIG1        0.0097
     25 C           5.1773    1.5296   -0.8812 C.3     1  LIG1       -0.0459
     26 C           5.9757    1.7686    0.3995 C.3     1  LIG1       -0.0646
     27 C           0.4736    1.2428    0.8003 C.3     1  LIG1       -0.0494
     28 C           0.7040   -0.0382    1.5925 C.3     1  LIG1       -0.0492
     29 C          -0.2409   -1.1947    1.2145 C.3     1  LIG1       -0.0292
     30 H           0.3150   -2.1176    1.4317 H       1  LIG1        0.0308
     31 C          -1.4448   -1.1781    2.1821 C.3     1  LIG1       -0.0060
     32 C          -2.6960   -1.9597    1.7449 C.3     1  LIG1        0.1682
     33 H          -2.6435   -2.9954    2.1060 H       1  LIG1        0.0801
     34 O          -3.8336   -1.3071    2.3541 O.3     1  LIG1       -0.4549
     35 C          -4.0658   -1.5672    3.6679 C.2     1  LIG1        0.3044
     36 O          -3.4540   -2.3667    4.3526 O.2     1  LIG1       -0.2512
     37 C          -5.1838   -0.6991    4.1655 C.3     1  LIG1        0.0332
     38 H          -6.4929   -2.7940   -0.6538 H       1  LIG1        0.0342
     39 H          -6.3789   -1.4998   -1.8839 H       1  LIG1        0.0342
     40 H          -7.1902   -1.2072   -0.3144 H       1  LIG1        0.0342
     41 H          -2.3606    0.1662   -0.0034 H       1  LIG1        0.0336
     42 H          -2.3867   -0.7274   -1.5237 H       1  LIG1        0.0336
     43 H           0.0329   -3.3084   -0.4480 H       1  LIG1        0.0567
     44 H          -0.8544   -2.7225   -1.8649 H       1  LIG1        0.0567
     45 H           3.5950   -0.7587   -2.3204 H       1  LIG1        0.0271
     46 H           2.1769   -0.3662   -3.2714 H       1  LIG1        0.0271
     47 H           2.2207   -1.1377   -0.3509 H       1  LIG1        0.0268
     48 H           1.6209   -2.0557   -1.7048 H       1  LIG1        0.0268
     49 H           2.6881    1.8354   -4.0550 H       1  LIG1        0.0235
     50 H           4.3032    1.3555   -3.5357 H       1  LIG1        0.0235
     51 H           3.6560    2.9323   -3.0697 H       1  LIG1        0.0235
     52 H           2.0462    3.9947   -1.7766 H       1  LIG1        0.0345
     53 H           1.0871    3.6651   -0.3116 H       1  LIG1        0.0345
     54 H           5.4856    0.5624   -1.2957 H       1  LIG1        0.0269
     55 H           5.4746    2.3014   -1.5997 H       1  LIG1        0.0269
     56 H           5.7658    1.0026    1.1513 H       1  LIG1        0.0230
     57 H           5.7673    2.7464    0.8405 H       1  LIG1        0.0230
     58 H           7.0487    1.7507    0.1810 H       1  LIG1        0.0230
     59 H          -0.4873    1.6666    1.1251 H       1  LIG1        0.0268
     60 H           1.2186    1.9693    1.1269 H       1  LIG1        0.0268
     61 H           0.6163    0.1878    2.6636 H       1  LIG1        0.0268
     62 H           1.7442   -0.3535    1.4705 H       1  LIG1        0.0268
     63 H          -1.7391   -0.1348    2.3644 H       1  LIG1        0.0306
     64 H          -1.1185   -1.5485    3.1631 H       1  LIG1        0.0306
     65 H          -5.3254   -0.8701    5.2364 H       1  LIG1        0.0342
     66 H          -6.1100   -0.9482    3.6427 H       1  LIG1        0.0342
     67 H          -4.9298    0.3539    4.0170 H       1  LIG1        0.0342
@<TRIPOS>BOND
     1     1     2    1
     2     2     3    2
     3     2     4    1
     4     5     6    1
     5     6     7    1
     6     7     8    1
     7     8     9    1
     8     5     9    1
     9     7    10    1
    10    10    12    1
    11    12    14    1
    12    14    16    1
    13    16    17    1
    14    17    18    1
    15    10    18    1
    16    16    20    1
    17    20    22    1
    18    22    24    1
    19    14    24    1
    20    25    26    1
    21    12    27    1
    22    27    28    1
    23    28    29    1
    24     7    29    1
    25    29    31    1
    26    31    32    1
    27     5    32    1
    28    34    35    1
    29    35    36    2
    30    35    37    1
    31     1     5    1
    32    10    11    1
    33    12    13    1
    34    14    15    1
    35    16    19    1
    36    22    23    2
    37    29    30    1
    38    32    33    1
    39    32    34    1
    40    20    25    1
    41    20    21    1
    42     4    38    1
    43     4    39    1
    44     4    40    1
    45     6    41    1
    46     6    42    1
    47     8    43    1
    48     8    44    1
    49    17    45    1
    50    17    46    1
    51    18    47    1
    52    18    48    1
    53    19    49    1
    54    19    50    1
    55    19    51    1
    56    24    52    1
    57    24    53    1
    58    25    54    1
    59    25    55    1
    60    26    56    1
    61    26    57    1
    62    26    58    1
    63    27    59    1
    64    27    60    1
    65    28    61    1
    66    28    62    1
    67    31    63    1
    68    31    64    1
    69    37    65    1
    70    37    66    1
    71    37    67    1
