@<TRIPOS>MOLECULE
NuBBE_1885
 61 63 0 0 0
SMALL
GASTEIGER

@<TRIPOS>ATOM
      1 O          -0.6813   -0.6947    3.0662 O.2     1  LIG1       -0.2830
      2 C          -0.6551   -0.5864    1.8692 C.ar    1  LIG1        0.2382
      3 C          -0.3926   -1.7413    1.0062 C.ar    1  LIG1        0.1138
      4 C          -0.6890   -3.0730    1.3396 C.ar    1  LIG1        0.1918
      5 O          -1.3415   -3.3502    2.5795 O.3     1  LIG1       -0.4213
      6 C          -2.4029   -4.2496    2.6359 C.2     1  LIG1        0.3093
      7 C          -2.6628   -4.7300    4.0423 C.3     1  LIG1        0.0336
      8 O          -3.0262   -4.6691    1.6714 O.2     1  LIG1       -0.2507
      9 C          -0.1093   -4.1173    0.5798 C.ar    1  LIG1        0.2159
     10 O          -0.4279   -5.4452    1.0281 O.3     1  LIG1       -0.4185
     11 C          -0.4260   -6.6784    0.3534 C.2     1  LIG1        0.3094
     12 C          -1.2405   -7.6875    1.1289 C.3     1  LIG1        0.0336
     13 O           0.0823   -6.9234   -0.7279 O.2     1  LIG1       -0.2507
     14 C           0.7891   -3.8005   -0.4606 C.ar    1  LIG1        0.1694
     15 O           1.5747   -4.7753   -1.0165 O.3     1  LIG1       -0.4912
     16 C           2.5301   -4.3251   -1.9818 C.3     1  LIG1        0.0790
     17 C           0.9730   -2.4560   -0.8189 C.ar    1  LIG1        0.0270
     18 C           0.3936   -1.4418   -0.0916 C.ar    1  LIG1        0.1468
     19 O           0.7767   -0.1749   -0.4397 O.2     1  LIG1       -0.4507
     20 C           0.0627    0.8916    0.0875 C.ar    1  LIG1        0.1810
     21 C           0.3541    2.1743   -0.6136 C.ar    1  LIG1        0.0282
     22 C           1.2396    2.2326   -1.7000 C.ar    1  LIG1       -0.0053
     23 C           1.6698    3.4494   -2.2739 C.ar    1  LIG1        0.1659
     24 O           2.6490    3.4599   -3.2345 O.3     1  LIG1       -0.4913
     25 C           2.6793    2.3655   -4.1463 C.3     1  LIG1        0.0790
     26 C           1.1603    4.6652   -1.7833 C.ar    1  LIG1        0.2043
     27 O           1.4407    5.9359   -2.2157 O.3     1  LIG1       -0.4885
     28 C           2.5137    6.1589   -3.1208 C.3     1  LIG1        0.0791
     29 C           0.2184    4.5974   -0.7409 C.ar    1  LIG1        0.1773
     30 O          -0.3431    5.8034   -0.2403 O.3     1  LIG1       -0.4221
     31 C          -0.9671    5.9519    1.0134 C.2     1  LIG1        0.3093
     32 C          -1.1986    7.4083    1.2213 C.3     1  LIG1        0.0336
     33 O          -1.2363    5.1023    1.8455 O.2     1  LIG1       -0.2507
     34 C          -0.1638    3.3847   -0.1825 C.ar    1  LIG1       -0.0045
     35 C          -0.7435    0.7358    1.1709 C.ar    1  LIG1        0.2107
     36 O          -1.4927    1.7413    1.7084 O.3     1  LIG1       -0.4883
     37 C          -2.7245    1.3357    2.2883 C.3     1  LIG1        0.0791
     38 H          -2.2824   -4.0509    4.8095 H       1  LIG1        0.0342
     39 H          -2.2146   -5.7188    4.1820 H       1  LIG1        0.0342
     40 H          -3.7459   -4.8130    4.1771 H       1  LIG1        0.0342
     41 H          -2.3040   -7.4373    1.0718 H       1  LIG1        0.0342
     42 H          -0.9212   -7.7551    2.1715 H       1  LIG1        0.0342
     43 H          -1.1085   -8.6767    0.6746 H       1  LIG1        0.0342
     44 H           3.1877   -5.1493   -2.2597 H       1  LIG1        0.0660
     45 H           3.1789   -3.5374   -1.5736 H       1  LIG1        0.0660
     46 H           2.0130   -3.9732   -2.8829 H       1  LIG1        0.0660
     47 H           1.6532   -2.1387   -1.6033 H       1  LIG1        0.0692
     48 H           1.6266    1.2942   -2.0767 H       1  LIG1        0.0662
     49 H           3.5610    2.4860   -4.7822 H       1  LIG1        0.0660
     50 H           1.7894    2.3746   -4.7833 H       1  LIG1        0.0660
     51 H           2.7965    1.3981   -3.6525 H       1  LIG1        0.0660
     52 H           2.4436    5.5523   -4.0263 H       1  LIG1        0.0660
     53 H           3.4788    6.0355   -2.6182 H       1  LIG1        0.0660
     54 H           2.4487    7.1980   -3.4614 H       1  LIG1        0.0660
     55 H          -1.7081    7.5660    2.1753 H       1  LIG1        0.0342
     56 H          -1.8190    7.7984    0.4122 H       1  LIG1        0.0342
     57 H          -0.2233    7.8994    1.2504 H       1  LIG1        0.0342
     58 H          -0.8756    3.4049    0.6194 H       1  LIG1        0.0663
     59 H          -3.3673    2.2181    2.3658 H       1  LIG1        0.0660
     60 H          -2.5482    0.9548    3.2957 H       1  LIG1        0.0660
     61 H          -3.2415    0.5959    1.6675 H       1  LIG1        0.0660
@<TRIPOS>BOND
     1     1     2    2
     2     2     3   ar
     3     3     4   ar
     4     4     5    1
     5     5     6    1
     6     6     7    1
     7     6     8    2
     8     4     9   ar
     9     9    10    1
    10    10    11    1
    11    11    12    1
    12    11    13    2
    13     9    14   ar
    14    14    15    1
    15    15    16    1
    16    14    17   ar
    17    17    18   ar
    18     3    18   ar
    19    18    19   ar
    20    19    20   ar
    21    20    21    1
    22    21    22   ar
    23    22    23   ar
    24    23    24    1
    25    24    25    1
    26    23    26   ar
    27    26    27    1
    28    27    28    1
    29    26    29   ar
    30    29    30    1
    31    30    31    1
    32    31    32    1
    33    31    33    2
    34    29    34   ar
    35    21    34   ar
    36    20    35   ar
    37     2    35   ar
    38    35    36    1
    39    36    37    1
    40     7    38    1
    41     7    39    1
    42     7    40    1
    43    12    41    1
    44    12    42    1
    45    12    43    1
    46    16    44    1
    47    16    45    1
    48    16    46    1
    49    17    47    1
    50    22    48    1
    51    25    49    1
    52    25    50    1
    53    25    51    1
    54    28    52    1
    55    28    53    1
    56    28    54    1
    57    32    55    1
    58    32    56    1
    59    32    57    1
    60    34    58    1
    61    37    59    1
    62    37    60    1
    63    37    61    1
