REMARK  Name = NuBBE_2119
REMARK  10 active torsions:
REMARK  status: ('A' for Active; 'I' for Inactive)
REMARK    1  A    between atoms: C_1  and  C_2
REMARK    2  A    between atoms: C_2  and  C_3
REMARK    3  A    between atoms: C_3  and  C_4
REMARK    4  A    between atoms: C_4  and  C_5
REMARK    5  A    between atoms: C_5  and  C_6
REMARK    6  A    between atoms: C_6  and  C_7
REMARK    7  A    between atoms: C_7  and  C_8
REMARK    8  A    between atoms: C_8  and  C_9
REMARK    9  A    between atoms: C_9  and  C_10
REMARK   10  A    between atoms: C_10  and  C_11
REMARK                            x       y       z     vdW  Elec       q    Type
REMARK                         _______ _______ _______ _____ _____    ______ ____
ROOT
ATOM      1  C   LIG A   1       0.263   0.578   0.698  0.00  0.00    -0.000 C 
ENDROOT
BRANCH   1   2
ATOM      2  C   LIG A   1      -1.263   0.628   0.947  0.00  0.00    -0.000 C 
BRANCH   2   3
ATOM      3  C   LIG A   1      -1.664   0.871   2.413  0.00  0.00    -0.000 C 
BRANCH   3   4
ATOM      4  C   LIG A   1      -3.189   0.977   2.620  0.00  0.00    -0.000 C 
BRANCH   4   6
ATOM      5  C   LIG A   1      -3.568  -1.475   3.135  0.00  0.00    +0.004 C 
ATOM      6  C   LIG A   1      -3.996  -0.283   2.289  0.00  0.00    -0.003 C 
ENDBRANCH   4   6
ENDBRANCH   3   4
ENDBRANCH   2   3
ENDBRANCH   1   2
BRANCH   1   7
ATOM      7  C   LIG A   1       0.592   0.273  -0.787  0.00  0.00    -0.000 C 
BRANCH   7   8
ATOM      8  C   LIG A   1       2.103   0.187  -1.107  0.00  0.00    -0.000 C 
BRANCH   8   9
ATOM      9  C   LIG A   1       2.395  -0.110  -2.600  0.00  0.00    -0.000 C 
BRANCH   9  10
ATOM     10  C   LIG A   1       3.895  -0.340  -2.877  0.00  0.00    -0.003 C 
ATOM     11  C   LIG A   1       4.228  -0.618  -4.343  0.00  0.00    +0.004 C 
ENDBRANCH   9  10
ENDBRANCH   8   9
ENDBRANCH   7   8
ENDBRANCH   1   7
TORSDOF 8
