@<TRIPOS>MOLECULE
NuBBE_2335
 39 40 0 0 0
SMALL
GASTEIGER

@<TRIPOS>ATOM
      1 C          -3.1751   -0.7941    0.8455 C.3     1  LIG1       -0.0619
      2 C          -1.6525   -0.9670    0.8452 C.3     1  LIG1       -0.0373
      3 H          -1.4440   -2.0462    0.8755 H       1  LIG1        0.0304
      4 C          -0.9945   -0.3767   -0.4347 C.3     1  LIG1       -0.0165
      5 H          -1.3218    0.6661   -0.5493 H       1  LIG1        0.0348
      6 C          -1.4754   -1.1550   -1.6826 C.3     1  LIG1       -0.0423
      7 C          -0.5845   -0.9104   -2.8950 C.3     1  LIG1       -0.0277
      8 C          -1.0722   -0.3583    2.1317 C.3     1  LIG1       -0.0494
      9 C           0.4491   -0.4703    2.1569 C.3     1  LIG1       -0.0460
     10 C           1.1075    0.2374    0.9610 C.3     1  LIG1       -0.0170
     11 H           2.1798   -0.0009    1.0128 H       1  LIG1        0.0348
     12 C           0.9850    1.7946    0.9961 C.3     1  LIG1       -0.0402
     13 C           1.7102    2.4491   -0.1897 C.3     1  LIG1       -0.0621
     14 C           1.5422    2.3906    2.2950 C.3     1  LIG1       -0.0621
     15 C           0.5281   -0.3522   -0.3205 C.2     1  LIG1       -0.0626
     16 C           1.3384   -0.8122   -1.2931 C.2     1  LIG1       -0.0593
     17 C           0.8460   -1.2593   -2.5792 C.2     1  LIG1       -0.0544
     18 C           1.6345   -1.9164   -3.4422 C.2     1  LIG1       -0.0955
     19 H          -3.4532    0.2609    0.7512 H       1  LIG1        0.0233
     20 H          -3.6088   -1.1755    1.7764 H       1  LIG1        0.0233
     21 H          -3.6414   -1.3454    0.0237 H       1  LIG1        0.0233
     22 H          -2.5015   -0.8601   -1.9321 H       1  LIG1        0.0274
     23 H          -1.4995   -2.2326   -1.4708 H       1  LIG1        0.0274
     24 H          -0.6426    0.1458   -3.1881 H       1  LIG1        0.0313
     25 H          -0.9573   -1.4989   -3.7418 H       1  LIG1        0.0313
     26 H          -1.4803   -0.8854    3.0030 H       1  LIG1        0.0268
     27 H          -1.3780    0.6897    2.2311 H       1  LIG1        0.0268
     28 H           0.7245   -1.5340    2.1396 H       1  LIG1        0.0271
     29 H           0.8337   -0.0847    3.1064 H       1  LIG1        0.0271
     30 H          -0.0703    2.0860    0.9288 H       1  LIG1        0.0301
     31 H           2.7661    2.1592   -0.2170 H       1  LIG1        0.0233
     32 H           1.6626    3.5415   -0.1203 H       1  LIG1        0.0233
     33 H           1.2519    2.1717   -1.1439 H       1  LIG1        0.0233
     34 H           2.5715    2.0616    2.4727 H       1  LIG1        0.0233
     35 H           0.9341    2.1069    3.1588 H       1  LIG1        0.0233
     36 H           1.5404    3.4855    2.2549 H       1  LIG1        0.0233
     37 H           2.4165   -0.8182   -1.1461 H       1  LIG1        0.0620
     38 H           2.6673   -2.1555   -3.2090 H       1  LIG1        0.0537
     39 H           1.2638   -2.2374   -4.4106 H       1  LIG1        0.0537
@<TRIPOS>BOND
     1     2     4    1
     2     4     6    1
     3     6     7    1
     4     2     8    1
     5     8     9    1
     6     9    10    1
     7    12    13    1
     8    12    14    1
     9    10    15    1
    10     4    15    1
    11    15    16    2
    12    16    17    1
    13     7    17    1
    14     1     2    1
    15     2     3    1
    16     4     5    1
    17    17    18    2
    18    10    12    1
    19    10    11    1
    20     1    19    1
    21     1    20    1
    22     1    21    1
    23     6    22    1
    24     6    23    1
    25     7    24    1
    26     7    25    1
    27     8    26    1
    28     8    27    1
    29     9    28    1
    30     9    29    1
    31    12    30    1
    32    13    31    1
    33    13    32    1
    34    13    33    1
    35    14    34    1
    36    14    35    1
    37    14    36    1
    38    16    37    1
    39    18    38    1
    40    18    39    1
