REMARK  Name = NuBBE_1957
REMARK  5 active torsions:
REMARK  status: ('A' for Active; 'I' for Inactive)
REMARK    1  A    between atoms: C_1  and  N_2
REMARK    2  A    between atoms: C_10  and  C_12
REMARK    3  A    between atoms: C_12  and  C_14
REMARK    4  A    between atoms: C_18  and  O_19
REMARK    5  A    between atoms: O_19  and  C_20
REMARK                            x       y       z     vdW  Elec       q    Type
REMARK                         _______ _______ _______ _____ _____    ______ ____
ROOT
ATOM      1  C   LIG A   1      -2.252   0.062   0.082  0.00  0.00    +0.152 C 
ATOM      2  N   LIG A   1      -0.821   0.289   0.277  0.00  0.00    -0.311 N 
ATOM      3  C   LIG A   1      -0.314   1.624   0.346  0.00  0.00    +0.097 A 
ATOM      4  C   LIG A   1       1.091   1.809   0.498  0.00  0.00    +0.049 A 
ATOM      5  C   LIG A   1       1.996   0.634   0.614  0.00  0.00    +0.196 A 
ATOM      6  O   LIG A   1       3.210   0.744   0.747  0.00  0.00    -0.287 OA
ATOM      7  C   LIG A   1       1.364  -0.673   0.565  0.00  0.00    +0.063 A 
ATOM      8  C   LIG A   1       0.053  -0.773   0.400  0.00  0.00    +0.203 A 
ATOM      9  O   LIG A   1      -0.403  -2.086   0.342  0.00  0.00    -0.469 OA
ATOM     10  C   LIG A   1       0.771  -2.900   0.608  0.00  0.00    +0.205 C 
ATOM     11  C   LIG A   1       2.007  -1.986   0.665  0.00  0.00    +0.093 C 
ATOM     12  C   LIG A   1       1.682   3.080   0.554  0.00  0.00    +0.014 A 
ATOM     13  C   LIG A   1       0.889   4.213   0.479  0.00  0.00    +0.004 A 
ATOM     14  C   LIG A   1      -0.490   4.077   0.349  0.00  0.00    +0.048 A 
ATOM     15  C   LIG A   1      -1.097   2.808   0.268  0.00  0.00    +0.144 A 
ENDROOT
BRANCH  10  16
ATOM     16  C   LIG A   1       0.850  -4.002  -0.433  0.00  0.00    -0.040 C 
ATOM     17  C   LIG A   1       0.864  -5.301  -0.087  0.00  0.00    +0.011 C 
ATOM     18  C   LIG A   1       0.890  -3.586  -1.880  0.00  0.00    +0.042 C 
ENDBRANCH  10  16
BRANCH  15  19
ATOM     19  O   LIG A   1      -2.465   2.698   0.186  0.00  0.00    -0.493 OA
ATOM     20  C   LIG A   1      -3.149   3.732  -0.514  0.00  0.00    +0.277 C 
ENDBRANCH  15  19
TORSDOF 2
