@<TRIPOS>MOLECULE
NuBBE_1959
 50 53 0 0 0
SMALL
GASTEIGER

@<TRIPOS>ATOM
      1 O          -3.4826    0.8903   -0.9226 O.2     1  LIG1       -0.2946
      2 C          -2.6507    0.8964   -0.0185 C.2     1  LIG1        0.1625
      3 C          -2.1758   -0.4021    0.6107 C.3     1  LIG1        0.0173
      4 C          -0.9836   -0.2201    1.5782 C.3     1  LIG1        0.0142
      5 C          -1.3568    0.9352    2.5456 C.3     1  LIG1        0.0679
      6 O          -2.6909    0.8466    3.0153 O.3     1  LIG1       -0.3908
      7 C          -0.7824   -1.5457    2.3651 C.3     1  LIG1       -0.0260
      8 C           0.3461   -1.5490    3.3674 C.2     1  LIG1       -0.0905
      9 C           1.3938   -2.3812    3.3222 C.2     1  LIG1       -0.1026
     10 C           0.3274    0.3083    0.8542 C.3     1  LIG1       -0.0039
     11 H           1.2007   -0.0658    1.4027 H       1  LIG1        0.0358
     12 C           0.5891   -0.0929   -0.6055 C.ar    1  LIG1       -0.0362
     13 C           0.1210    0.6634   -1.6948 C.ar    1  LIG1       -0.0124
     14 C           0.4510    0.2846   -2.9819 C.ar    1  LIG1        0.1702
     15 C           1.2360   -0.8082   -3.2489 C.ar    1  LIG1        0.2075
     16 O           1.4366   -0.9552   -4.5890 O.3     1  LIG1       -0.4489
     17 C           0.6273    0.1009   -5.1255 C.3     1  LIG1        0.2334
     18 O           0.0633    0.9461   -4.1083 O.3     1  LIG1       -0.4525
     19 C           1.7295   -1.5955   -2.2255 C.ar    1  LIG1        0.1656
     20 O           2.5279   -2.6999   -2.3657 O.3     1  LIG1       -0.4913
     21 C           2.8642   -3.0683   -3.7050 C.3     1  LIG1        0.0790
     22 C           1.3920   -1.2300   -0.9007 C.ar    1  LIG1       -0.0126
     23 C           0.2957    1.8562    1.0903 C.3     1  LIG1       -0.0285
     24 C           1.3973    2.2796    2.0761 C.3     1  LIG1       -0.0614
     25 C          -1.1079    2.1467    1.6587 C.3     1  LIG1        0.0216
     26 C          -2.1751    2.2383    0.5612 C.3     1  LIG1        0.1184
     27 O          -3.3181    2.9138    1.0931 O.3     1  LIG1       -0.3839
     28 H          -1.9355   -1.1143   -0.1855 H       1  LIG1        0.0349
     29 H          -3.0400   -0.8115    1.1509 H       1  LIG1        0.0349
     30 H          -0.7112    0.9731    3.4264 H       1  LIG1        0.0603
     31 H          -3.0962    1.7374    2.9786 H       1  LIG1        0.2098
     32 H          -0.6530   -2.3736    1.6572 H       1  LIG1        0.0314
     33 H          -1.6996   -1.7704    2.9280 H       1  LIG1        0.0314
     34 H           0.2853   -0.8476    4.1976 H       1  LIG1        0.0566
     35 H           1.5005   -3.1268    2.5409 H       1  LIG1        0.0532
     36 H           2.1688   -2.3383    4.0825 H       1  LIG1        0.0532
     37 H          -0.4784    1.5562   -1.5848 H       1  LIG1        0.0658
     38 H          -0.1853   -0.3490   -5.7080 H       1  LIG1        0.1166
     39 H           1.2456    0.7080   -5.7960 H       1  LIG1        0.1166
     40 H           3.4758   -3.9742   -3.6759 H       1  LIG1        0.0660
     41 H           3.4647   -2.2896   -4.1904 H       1  LIG1        0.0660
     42 H           1.9674   -3.3078   -4.2884 H       1  LIG1        0.0660
     43 H           1.7920   -1.8334   -0.0859 H       1  LIG1        0.0658
     44 H           0.4684    2.4421    0.1830 H       1  LIG1        0.0309
     45 H           1.3259    1.7573    3.0355 H       1  LIG1        0.0233
     46 H           1.3417    3.3546    2.2768 H       1  LIG1        0.0233
     47 H           2.3861    2.0660    1.6570 H       1  LIG1        0.0233
     48 H          -1.1269    3.0678    2.2540 H       1  LIG1        0.0358
     49 H          -1.7999    2.8512   -0.2654 H       1  LIG1        0.0676
     50 H          -3.9712    2.9301    0.3629 H       1  LIG1        0.2104
@<TRIPOS>BOND
     1     1     2    2
     2     2     3    1
     3     3     4    1
     4     4     5    1
     5     5     6    1
     6     4     7    1
     7     7     8    1
     8     8     9    2
     9     4    10    1
    10    12    13   ar
    11    13    14   ar
    12    14    15   ar
    13    15    16    1
    14    16    17    1
    15    17    18    1
    16    14    18    1
    17    15    19   ar
    18    19    20    1
    19    20    21    1
    20    19    22   ar
    21    12    22   ar
    22    10    23    1
    23    23    24    1
    24    23    25    1
    25     5    25    1
    26    25    26    1
    27     2    26    1
    28    26    27    1
    29    10    12    1
    30    10    11    1
    31     3    28    1
    32     3    29    1
    33     5    30    1
    34     6    31    1
    35     7    32    1
    36     7    33    1
    37     8    34    1
    38     9    35    1
    39     9    36    1
    40    13    37    1
    41    17    38    1
    42    17    39    1
    43    21    40    1
    44    21    41    1
    45    21    42    1
    46    22    43    1
    47    23    44    1
    48    24    45    1
    49    24    46    1
    50    24    47    1
    51    25    48    1
    52    26    49    1
    53    27    50    1
