@<TRIPOS>MOLECULE
NuBBE_1789
 51 51 0 0 0
SMALL
GASTEIGER

@<TRIPOS>ATOM
      1 C          -0.4484   -4.0557   -1.4523 C.3     1  LIG1       -0.0117
      2 C          -1.7076   -4.5606   -2.1917 C.3     1  LIG1        0.0790
      3 H          -2.3357   -3.7112   -2.4676 H       1  LIG1        0.0616
      4 C          -2.5618   -5.5918   -1.4378 C.3     1  LIG1        0.0701
      5 O          -1.8943   -6.8577   -1.4299 O.3     1  LIG1       -0.3925
      6 O          -1.2735   -5.1603   -3.4290 O.3     1  LIG1       -0.3895
      7 C          -0.6284   -3.2293   -0.1583 C.3     1  LIG1        0.0622
      8 H          -1.1605   -3.8265    0.5998 H       1  LIG1        0.0415
      9 C           0.7078   -2.7540    0.3998 C.3     1  LIG1       -0.0027
     10 C           0.3337   -1.4968    1.1743 C.3     1  LIG1        0.1038
     11 H          -0.0537   -1.7594    2.1672 H       1  LIG1        0.0734
     12 O          -0.7313   -0.9348    0.4141 O.3     1  LIG1       -0.4611
     13 C          -1.3708   -1.9232   -0.2956 C.2     1  LIG1        0.3107
     14 O          -2.4213   -1.7472   -0.8668 O.2     1  LIG1       -0.2505
     15 C           1.4594   -0.4589    1.3128 C.3     1  LIG1       -0.0156
     16 C           1.0082    0.8427    2.0071 C.3     1  LIG1       -0.0497
     17 C           2.1380    1.8761    2.1516 C.3     1  LIG1       -0.0529
     18 C           2.7761    2.4015    0.8540 C.3     1  LIG1       -0.0531
     19 C           1.8915    3.2328   -0.0922 C.3     1  LIG1       -0.0530
     20 C           1.3654    4.5269    0.5408 C.3     1  LIG1       -0.0528
     21 C           0.5021    5.4081   -0.3789 C.3     1  LIG1       -0.0496
     22 C          -0.7744    4.7498   -0.9099 C.3     1  LIG1       -0.0350
     23 C          -1.7013    4.3235    0.1917 C.2     1  LIG1       -0.0911
     24 C          -2.0762    3.0540    0.3885 C.2     1  LIG1       -0.1026
     25 H           0.1878   -4.9214   -1.2216 H       1  LIG1        0.0299
     26 H           0.1310   -3.4611   -2.1714 H       1  LIG1        0.0299
     27 H          -3.5138   -5.7365   -1.9622 H       1  LIG1        0.0583
     28 H          -2.7647   -5.2852   -0.4103 H       1  LIG1        0.0583
     29 H          -2.3464   -7.4138   -0.7692 H       1  LIG1        0.2095
     30 H          -1.3355   -6.1296   -3.2998 H       1  LIG1        0.2099
     31 H           1.3973   -2.5111   -0.4185 H       1  LIG1        0.0309
     32 H           1.1909   -3.5096    1.0267 H       1  LIG1        0.0309
     33 H           2.3009   -0.8923    1.8674 H       1  LIG1        0.0301
     34 H           1.8159   -0.1976    0.3119 H       1  LIG1        0.0301
     35 H           0.6424    0.5979    3.0147 H       1  LIG1        0.0266
     36 H           0.1634    1.2944    1.4778 H       1  LIG1        0.0266
     37 H           2.9367    1.4135    2.7462 H       1  LIG1        0.0265
     38 H           1.7777    2.7205    2.7514 H       1  LIG1        0.0265
     39 H           3.1901    1.5585    0.2893 H       1  LIG1        0.0265
     40 H           3.6403    3.0159    1.1374 H       1  LIG1        0.0265
     41 H           1.0722    2.6114   -0.4654 H       1  LIG1        0.0265
     42 H           2.5019    3.5006   -0.9660 H       1  LIG1        0.0265
     43 H           2.2215    5.1312    0.8663 H       1  LIG1        0.0265
     44 H           0.7908    4.2907    1.4408 H       1  LIG1        0.0265
     45 H           1.1010    5.7600   -1.2282 H       1  LIG1        0.0268
     46 H           0.2206    6.3079    0.1858 H       1  LIG1        0.0268
     47 H          -0.5174    3.9042   -1.5576 H       1  LIG1        0.0307
     48 H          -1.3094    5.4677   -1.5447 H       1  LIG1        0.0307
     49 H          -2.0753    5.0987    0.8578 H       1  LIG1        0.0566
     50 H          -1.7206    2.2516   -0.2521 H       1  LIG1        0.0532
     51 H          -2.7421    2.7854    1.2017 H       1  LIG1        0.0532
@<TRIPOS>BOND
     1     2     4    1
     2     4     5    1
     3     2     6    1
     4     1     7    1
     5     7     8    1
     6     7     9    1
     7     9    10    1
     8    10    12    1
     9    12    13    1
    10     7    13    1
    11    13    14    2
    12    15    16    1
    13    16    17    1
    14    17    18    1
    15    18    19    1
    16    19    20    1
    17    20    21    1
    18    21    22    1
    19    22    23    1
    20    23    24    2
    21    10    15    1
    22    10    11    1
    23     2     3    1
    24     2     1    1
    25     1    25    1
    26     1    26    1
    27     4    27    1
    28     4    28    1
    29     5    29    1
    30     6    30    1
    31     9    31    1
    32     9    32    1
    33    15    33    1
    34    15    34    1
    35    16    35    1
    36    16    36    1
    37    17    37    1
    38    17    38    1
    39    18    39    1
    40    18    40    1
    41    19    41    1
    42    19    42    1
    43    20    43    1
    44    20    44    1
    45    21    45    1
    46    21    46    1
    47    22    47    1
    48    22    48    1
    49    23    49    1
    50    24    50    1
    51    24    51    1
