REMARK  Name = NuBBE_999
REMARK  10 active torsions:
REMARK  status: ('A' for Active; 'I' for Inactive)
REMARK    1  A    between atoms: C_1  and  C_2
REMARK    2  A    between atoms: C_6  and  C_8
REMARK    3  A    between atoms: C_8  and  C_9
REMARK    4  A    between atoms: C_16  and  O_18
REMARK    5  A    between atoms: O_18  and  C_19
REMARK    6  A    between atoms: C_19  and  C_20
REMARK    7  A    between atoms: C_22  and  O_24
REMARK    8  A    between atoms: O_24  and  C_25
REMARK    9  A    between atoms: C_25  and  C_26
REMARK   10  A    between atoms: C_29  and  C_30
REMARK                            x       y       z     vdW  Elec       q    Type
REMARK                         _______ _______ _______ _____ _____    ______ ____
ROOT
ATOM      1  C   LIG A   1      -2.294   3.049  -1.127  0.00  0.00    +0.012 C 
ATOM      2  C   LIG A   1      -0.826   2.908  -1.601  0.00  0.00    -0.019 C 
ATOM      3  C   LIG A   1       0.043   2.547  -0.360  0.00  0.00    +0.006 C 
ATOM      4  C   LIG A   1       0.659   3.852   0.154  0.00  0.00    +0.079 C 
ATOM      5  C   LIG A   1       0.392   4.857  -0.919  0.00  0.00    +0.137 C 
ATOM      6  C   LIG A   1      -0.246   4.255  -2.152  0.00  0.00    +0.061 C 
ATOM      7  O   LIG A   1       0.738   6.026  -0.802  0.00  0.00    -0.297 OA
ATOM      8  C   LIG A   1       1.070   1.405  -0.583  0.00  0.00    -0.003 C 
ATOM      9  C   LIG A   1       1.882   1.159   0.708  0.00  0.00    +0.004 C 
ATOM     10  C   LIG A   1       2.485  -0.224   0.865  0.00  0.00    +0.004 C 
ATOM     11  C   LIG A   1       1.622  -1.392   0.374  0.00  0.00    -0.001 C 
ATOM     12  C   LIG A   1       1.616  -2.522   1.391  0.00  0.00    +0.052 C 
ATOM     13  C   LIG A   1       1.002  -3.813   0.838  0.00  0.00    +0.217 C 
ATOM     14  C   LIG A   1      -0.383  -3.579   0.168  0.00  0.00    +0.217 C 
ATOM     15  C   LIG A   1      -0.386  -2.338  -0.761  0.00  0.00    +0.055 C 
ATOM     16  C   LIG A   1       0.199  -1.033  -0.117  0.00  0.00    -0.023 C 
ATOM     17  C   LIG A   1      -0.763  -0.587   1.013  0.00  0.00    +0.012 C 
ATOM     18  C   LIG A   1       0.409   0.113  -1.171  0.00  0.00    -0.001 C 
ATOM     19  C   LIG A   1      -0.823   0.405  -2.046  0.00  0.00    +0.005 C 
ATOM     20  C   LIG A   1      -0.753   1.797  -2.674  0.00  0.00    +0.008 C 
ENDROOT
BRANCH   6  21
ATOM     21  C   LIG A   1      -1.262   5.184  -2.836  0.00  0.00    +0.008 C 
ATOM     22  C   LIG A   1      -0.672   6.486  -3.372  0.00  0.00    +0.004 C 
ENDBRANCH   6  21
BRANCH  13  23
ATOM     23  O   LIG A   1       0.835  -4.745   1.932  0.00  0.00    -0.458 OA
BRANCH  23  24
ATOM     24  C   LIG A   1       1.951  -5.143   2.611  0.00  0.00    +0.304 C 
ATOM     25  C   LIG A   1       1.556  -5.812   3.889  0.00  0.00    +0.136 C 
ATOM     26  O   LIG A   1       3.098  -4.899   2.298  0.00  0.00    -0.251 OA
ENDBRANCH  23  24
ENDBRANCH  13  23
BRANCH  14  27
ATOM     27  O   LIG A   1      -1.383  -3.396   1.199  0.00  0.00    -0.458 OA
BRANCH  27  28
ATOM     28  C   LIG A   1      -1.966  -4.521   1.692  0.00  0.00    +0.304 C 
ATOM     29  C   LIG A   1      -2.509  -4.250   3.063  0.00  0.00    +0.136 C 
ATOM     30  O   LIG A   1      -2.013  -5.612   1.135  0.00  0.00    -0.251 OA
ENDBRANCH  27  28
ENDBRANCH  14  27
TORSDOF 5
