REMARK  Name = NuBBE_2327
REMARK  18 active torsions:
REMARK  status: ('A' for Active; 'I' for Inactive)
REMARK    1  A    between atoms: C_1  and  C_2
REMARK    2  A    between atoms: C_2  and  C_3
REMARK    3  A    between atoms: C_2  and  C_4
REMARK    4  A    between atoms: C_4  and  C_5
REMARK    5  A    between atoms: C_4  and  C_6
REMARK    6  A    between atoms: C_6  and  C_7
REMARK    7  A    between atoms: C_7  and  C_8
REMARK    8  A    between atoms: C_8  and  C_9
REMARK    9  A    between atoms: C_8  and  C_10
REMARK   10  A    between atoms: C_13  and  C_14
REMARK   11  A    between atoms: C_19  and  C_20
REMARK   12  A    between atoms: C_19  and  C_21
REMARK   13  A    between atoms: C_22  and  O_24
REMARK   14  A    between atoms: O_24  and  C_25
REMARK   15  A    between atoms: C_25  and  C_26
REMARK   16  A    between atoms: C_26  and  C_27
REMARK   17  A    between atoms: C_28  and  C_29
REMARK   18  A    between atoms: C_38  and  C_39
REMARK                            x       y       z     vdW  Elec       q    Type
REMARK                         _______ _______ _______ _____ _____    ______ ____
ROOT
ATOM      1  C   LIG A   1      -1.777  -2.016   1.156  0.00  0.00    -0.002 C 
ATOM      2  C   LIG A   1      -1.090  -3.353   0.840  0.00  0.00    +0.005 C 
ATOM      3  C   LIG A   1      -0.378  -3.197  -0.498  0.00  0.00    +0.008 C 
ATOM      4  C   LIG A   1      -0.987  -1.965  -1.236  0.00  0.00    -0.023 C 
ATOM      5  C   LIG A   1      -1.465  -2.475  -2.627  0.00  0.00    +0.012 C 
ATOM      6  C   LIG A   1       0.168  -0.899  -1.411  0.00  0.00    +0.002 C 
ATOM      7  C   LIG A   1       1.090  -1.167  -2.614  0.00  0.00    +0.005 C 
ATOM      8  C   LIG A   1       2.181  -0.112  -2.751  0.00  0.00    +0.005 C 
ATOM      9  C   LIG A   1       1.550   1.253  -3.076  0.00  0.00    +0.005 C 
ATOM     10  C   LIG A   1       2.559   2.386  -3.483  0.00  0.00    +0.005 C 
ATOM     11  C   LIG A   1       2.097   3.038  -4.815  0.00  0.00    +0.015 C 
ATOM     12  C   LIG A   1       3.965   1.817  -3.795  0.00  0.00    +0.015 C 
ATOM     13  C   LIG A   1       2.637   3.464  -2.355  0.00  0.00    +0.183 C 
ATOM     14  C   LIG A   1       1.260   4.063  -1.967  0.00  0.00    +0.046 C 
ATOM     15  C   LIG A   1       0.084   3.117  -2.204  0.00  0.00    +0.011 C 
ATOM     16  C   LIG A   1       0.565   1.702  -1.992  0.00  0.00    -0.019 C 
ATOM     17  C   LIG A   1      -0.281   0.565  -1.396  0.00  0.00    -0.019 C 
ATOM     18  C   LIG A   1       0.646   1.387  -0.519  0.00  0.00    +0.015 C 
ATOM     19  C   LIG A   1      -1.764   0.765  -1.408  0.00  0.00    +0.008 C 
ATOM     20  C   LIG A   1      -2.356   0.053  -0.219  0.00  0.00    +0.008 C 
ATOM     21  C   LIG A   1      -2.184  -1.487  -0.275  0.00  0.00    -0.023 C 
ATOM     22  C   LIG A   1      -3.536  -2.079  -0.744  0.00  0.00    +0.012 C 
ENDROOT
BRANCH   1  23
ATOM     23  C   LIG A   1      -2.893  -2.166   2.270  0.00  0.00    -0.010 C 
ATOM     24  C   LIG A   1      -3.707  -0.887   2.499  0.00  0.00    +0.008 C 
BRANCH  23  25
ATOM     25  C   LIG A   1      -2.294  -2.614   3.645  0.00  0.00    +0.004 C 
BRANCH  25  26
ATOM     26  C   LIG A   1      -3.333  -2.979   4.743  0.00  0.00    +0.004 C 
BRANCH  26  27
ATOM     27  C   LIG A   1      -2.723  -3.431   6.111  0.00  0.00    -0.011 C 
ATOM     28  C   LIG A   1      -1.720  -4.570   5.907  0.00  0.00    +0.007 C 
BRANCH  27  30
ATOM     29  C   LIG A   1      -4.658  -5.033   6.749  0.00  0.00    +0.007 C 
ATOM     30  C   LIG A   1      -3.825  -3.814   7.161  0.00  0.00    -0.014 C 
ATOM     31  C   LIG A   1      -3.255  -4.084   8.568  0.00  0.00    +0.007 C 
ENDBRANCH  27  30
ENDBRANCH  26  27
ENDBRANCH  25  26
ENDBRANCH  23  25
ENDBRANCH   1  23
BRANCH  13  32
ATOM     32  O   LIG A   1       3.435   4.573  -2.772  0.00  0.00    -0.458 OA
BRANCH  32  33
ATOM     33  C   LIG A   1       4.769   4.529  -2.585  0.00  0.00    +0.335 C 
ATOM     34  O   LIG A   1       5.377   3.655  -1.978  0.00  0.00    -0.245 OA
BRANCH  33  35
ATOM     35  C   LIG A   1       5.395   5.672  -3.311  0.00  0.00    +0.029 C 
ATOM     36  C   LIG A   1       4.527   6.760  -3.848  0.00  0.00    +0.051 C 
ATOM     37  C   LIG A   1       6.740   5.630  -3.447  0.00  0.00    -0.020 C 
ATOM     38  C   LIG A   1       7.587   6.656  -4.122  0.00  0.00    +0.035 C 
ENDBRANCH  33  35
ENDBRANCH  32  33
ENDBRANCH  13  32
TORSDOF 8
