REMARK  Name = NuBBE_2079
REMARK  2 active torsions:
REMARK  status: ('A' for Active; 'I' for Inactive)
REMARK    1  A    between atoms: C_3  and  C_5
REMARK    2  A    between atoms: C_23  and  O_25
REMARK                            x       y       z     vdW  Elec       q    Type
REMARK                         _______ _______ _______ _____ _____    ______ ____
ROOT
ATOM      1  O   LIG A   1       0.685  -2.125   2.544  0.00  0.00    -0.251 OA
ATOM      2  C   LIG A   1       1.272  -1.260   1.881  0.00  0.00    +0.311 C 
ATOM      3  C   LIG A   1       0.931   0.285   1.866  0.00  0.00    +0.102 C 
ATOM      4  C   LIG A   1       1.377   1.731   1.507  0.00  0.00    +0.020 C 
ATOM      5  O   LIG A   1       1.749  -1.651   0.690  0.00  0.00    -0.461 OA
ATOM      6  C   LIG A   1       0.830  -0.971  -0.094  0.00  0.00    +0.181 C 
ATOM      7  C   LIG A   1      -0.053  -0.034   0.733  0.00  0.00    +0.053 C 
ATOM      8  C   LIG A   1      -1.584   0.071   0.574  0.00  0.00    +0.015 C 
ATOM      9  C   LIG A   1      -1.508  -0.323   2.349  0.00  0.00    +0.022 C 
ATOM     10  C   LIG A   1      -2.556  -0.339   3.503  0.00  0.00    +0.121 C 
ATOM     11  C   LIG A   1      -3.512  -1.220   2.941  0.00  0.00    +0.307 C 
ATOM     12  O   LIG A   1      -3.856  -0.824   1.704  0.00  0.00    -0.464 OA
ATOM     13  C   LIG A   1      -2.832  -1.034   0.575  0.00  0.00    +0.239 C 
ATOM     14  O   LIG A   1      -3.853  -2.357   3.479  0.00  0.00    -0.251 OA
ATOM     15  C   LIG A   1      -0.908   0.411  -1.265  0.00  0.00    +0.005 C 
ATOM     16  C   LIG A   1      -0.143   1.849  -1.794  0.00  0.00    +0.004 C 
ATOM     17  C   LIG A   1       1.433   2.086  -2.139  0.00  0.00    +0.003 C 
ATOM     18  C   LIG A   1       2.260   1.061  -2.903  0.00  0.00    +0.031 C 
ATOM     19  C   LIG A   1       1.857  -0.329  -2.530  0.00  0.00    +0.118 C 
ATOM     20  C   LIG A   1       0.197  -0.598  -2.195  0.00  0.00    +0.025 C 
ATOM     21  C   LIG A   1       0.277  -1.756  -1.281  0.00  0.00    +0.051 C 
ENDROOT
BRANCH  19  22
ATOM     22  O   LIG A   1       2.389  -1.247  -3.501  0.00  0.00    -0.392 OA
ATOM     23  H   LIG A   1       3.369  -1.202  -3.433  0.00  0.00    +0.210 HD
ENDBRANCH  19  22
TORSDOF 1
