REMARK  Name = NuBBE_53
REMARK  14 active torsions:
REMARK  status: ('A' for Active; 'I' for Inactive)
REMARK    1  A    between atoms: C_1  and  C_2
REMARK    2  A    between atoms: C_5  and  O_7
REMARK    3  A    between atoms: C_8  and  C_9
REMARK    4  A    between atoms: C_11  and  C_12
REMARK    5  A    between atoms: C_15  and  O_17
REMARK    6  A    between atoms: O_17  and  C_18
REMARK    7  A    between atoms: C_18  and  C_19
REMARK    8  A    between atoms: C_19  and  C_20
REMARK    9  A    between atoms: C_20  and  C_21
REMARK   10  A    between atoms: C_26  and  C_27
REMARK   11  A    between atoms: C_26  and  C_28
REMARK   12  A    between atoms: C_28  and  C_29
REMARK   13  A    between atoms: C_30  and  C_31
REMARK   14  A    between atoms: C_30  and  C_33
REMARK                            x       y       z     vdW  Elec       q    Type
REMARK                         _______ _______ _______ _____ _____    ______ ____
ROOT
ATOM      1  C   LIG A   1      -1.219  -1.604   2.168  0.00  0.00    +0.008 C 
ATOM      2  C   LIG A   1       0.036  -2.217   1.526  0.00  0.00    -0.005 C 
ATOM      3  C   LIG A   1       1.208  -2.119   2.525  0.00  0.00    +0.036 C 
ATOM      4  C   LIG A   1       1.803  -0.713   2.691  0.00  0.00    +0.133 C 
ATOM      5  C   LIG A   1       2.259  -0.104   1.342  0.00  0.00    +0.083 C 
ATOM      6  C   LIG A   1       2.753   1.347   1.467  0.00  0.00    +0.007 C 
ATOM      7  C   LIG A   1       2.515   2.291   0.546  0.00  0.00    +0.024 C 
ATOM      8  C   LIG A   1       1.752   2.062  -0.725  0.00  0.00    +0.200 C 
ATOM      9  C   LIG A   1       1.416   0.578  -0.994  0.00  0.00    +0.054 C 
ATOM     10  C   LIG A   1       1.057  -0.187   0.304  0.00  0.00    +0.019 C 
ATOM     11  C   LIG A   1       0.389  -1.632   0.105  0.00  0.00    -0.022 C 
ATOM     12  C   LIG A   1       1.360  -2.607  -0.615  0.00  0.00    +0.012 C 
ENDROOT
BRANCH   4  13
ATOM     13  O   LIG A   1       0.852   0.150   3.318  0.00  0.00    -0.391 OA
ATOM     14  H   LIG A   1       0.738  -0.156   4.236  0.00  0.00    +0.210 HD
ENDBRANCH   4  13
BRANCH   5  15
ATOM     15  C   LIG A   1       3.529  -0.847   0.902  0.00  0.00    +0.237 C 
ATOM     16  O   LIG A   1       4.163  -0.611  -0.125  0.00  0.00    -0.300 OA
ENDBRANCH   5  15
BRANCH   6  17
ATOM     17  C   LIG A   1       3.589   1.788   2.616  0.00  0.00    +0.255 C 
ATOM     18  O   LIG A   1       3.981   1.032   3.496  0.00  0.00    -0.296 OA
ENDBRANCH   6  17
BRANCH   8  19
ATOM     19  O   LIG A   1       0.515   2.800  -0.628  0.00  0.00    -0.457 OA
BRANCH  19  20
ATOM     20  C   LIG A   1       0.576   4.103  -1.013  0.00  0.00    +0.308 C 
ATOM     21  O   LIG A   1       1.589   4.693  -1.366  0.00  0.00    -0.251 OA
BRANCH  20  22
ATOM     22  C   LIG A   1      -0.800   4.725  -1.035  0.00  0.00    +0.120 C 
BRANCH  22  23
ATOM     23  C   LIG A   1      -1.127   5.198  -2.449  0.00  0.00    +0.008 C 
ATOM     24  C   LIG A   1      -1.122   4.050  -3.454  0.00  0.00    +0.004 C 
ENDBRANCH  22  23
ENDBRANCH  20  22
ENDBRANCH  19  20
ENDBRANCH   8  19
BRANCH  11  25
ATOM     25  C   LIG A   1      -0.925  -1.528  -0.796  0.00  0.00    +0.034 C 
BRANCH  25  26
ATOM     26  C   LIG A   1      -1.690  -2.815  -1.103  0.00  0.00    -0.023 C 
ATOM     27  C   LIG A   1      -2.957  -3.185  -0.849  0.00  0.00    -0.055 C 
ATOM     28  C   LIG A   1      -3.467  -4.549  -1.265  0.00  0.00    +0.043 C 
BRANCH  27  29
ATOM     29  C   LIG A   1      -3.965  -2.396  -0.157  0.00  0.00    -0.005 C 
ATOM     30  C   LIG A   1      -4.414  -1.204  -0.563  0.00  0.00    +0.008 C 
ENDBRANCH  27  29
ENDBRANCH  25  26
ENDBRANCH  11  25
TORSDOF 10
