@<TRIPOS>MOLECULE
NuBBE_1137
 56 60 0 0 0
SMALL
GASTEIGER

@<TRIPOS>ATOM
      1 C          -1.7971   -0.3035   -0.7308 C.3     1  LIG1       -0.0520
      2 C          -0.2920   -0.2503   -0.4226 C.3     1  LIG1        0.0124
      3 C          -0.0454   -0.2352    1.0813 C.2     1  LIG1       -0.0732
      4 C          -0.4889    0.7060    1.9311 C.2     1  LIG1       -0.0559
      5 C          -0.2397    0.7104    3.3848 C.ar    1  LIG1       -0.0042
      6 C          -1.1519    1.2862    4.2719 C.ar    1  LIG1        0.0376
      7 N          -2.3738    1.9438    3.9358 N.pl3   1  LIG1       -0.3429
      8 H          -2.8803    1.4117    3.2320 H       1  LIG1        0.1461
      9 C          -3.0558    2.0534    5.2364 C.3     1  LIG1        0.0132
     10 C          -1.9790    2.0911    6.3319 C.3     1  LIG1       -0.0104
     11 C          -0.8762    1.3644    5.6432 C.ar    1  LIG1       -0.0245
     12 C           0.2906    0.8557    6.1840 C.ar    1  LIG1       -0.0567
     13 C           1.2039    0.2582    5.3185 C.ar    1  LIG1       -0.0608
     14 C           0.9469    0.1948    3.9368 C.ar    1  LIG1       -0.0528
     15 C           0.4096   -1.4119   -1.1090 C.ar    1  LIG1       -0.0320
     16 C           0.3091   -2.7654   -0.7837 C.ar    1  LIG1       -0.0335
     17 C           1.0224   -3.6604   -1.5937 C.ar    1  LIG1        0.0468
     18 C           1.8072   -3.2530   -2.6771 C.ar    1  LIG1       -0.0001
     19 C           2.3695   -4.4281   -3.2501 C.ar    1  LIG1       -0.0367
     20 C           1.9158   -5.5080   -2.5281 C.ar    1  LIG1        0.0027
     21 N           1.1052   -5.0341   -1.5313 N.ar    1  LIG1       -0.3606
     22 H           0.6257   -5.6042   -0.8489 H       1  LIG1        0.1653
     23 C           1.8846   -1.8823   -2.9946 C.ar    1  LIG1       -0.0486
     24 C           1.1662   -0.9849   -2.2037 C.ar    1  LIG1       -0.0358
     25 C           1.0366    0.4973   -2.4348 C.3     1  LIG1        0.0038
     26 H           2.0395    0.9265   -2.5279 H       1  LIG1        0.0392
     27 C           0.1834    0.8112   -3.6403 C.2     1  LIG1       -0.0778
     28 C           0.2983    1.8611   -4.4784 C.2     1  LIG1       -0.0790
     29 C           1.3216    2.9559   -4.3565 C.3     1  LIG1       -0.0440
     30 C          -0.6519    2.0223   -5.6365 C.3     1  LIG1       -0.0440
     31 C           0.3966    0.9671   -1.1087 C.3     1  LIG1       -0.0298
     32 H          -2.2649   -1.1853   -0.2757 H       1  LIG1        0.0241
     33 H          -1.9930   -0.3556   -1.8075 H       1  LIG1        0.0241
     34 H          -2.3187    0.5805   -0.3471 H       1  LIG1        0.0241
     35 H           0.5432   -1.0633    1.4727 H       1  LIG1        0.0581
     36 H          -1.0818    1.5419    1.5635 H       1  LIG1        0.0621
     37 H          -3.7036    1.1774    5.3751 H       1  LIG1        0.0464
     38 H          -3.6919    2.9438    5.2701 H       1  LIG1        0.0464
     39 H          -2.3161    1.5936    7.2453 H       1  LIG1        0.0329
     40 H          -1.6736    3.1192    6.5527 H       1  LIG1        0.0329
     41 H           0.4984    0.9297    7.2461 H       1  LIG1        0.0621
     42 H           2.1355   -0.1450    5.7084 H       1  LIG1        0.0618
     43 H           1.7069   -0.2449    3.2952 H       1  LIG1        0.0624
     44 H          -0.2994   -3.1090    0.0452 H       1  LIG1        0.0641
     45 H           3.0281   -4.4742   -4.1073 H       1  LIG1        0.0638
     46 H           2.0964   -6.5685   -2.6395 H       1  LIG1        0.0807
     47 H           2.4645   -1.5388   -3.8450 H       1  LIG1        0.0627
     48 H          -0.6083    0.0874   -3.8384 H       1  LIG1        0.0578
     49 H           2.1602    2.6937   -3.7080 H       1  LIG1        0.0274
     50 H           0.8530    3.8614   -3.9578 H       1  LIG1        0.0274
     51 H           1.7443    3.1936   -5.3389 H       1  LIG1        0.0274
     52 H          -1.4017    1.2250   -5.6738 H       1  LIG1        0.0274
     53 H          -0.1024    2.0050   -6.5836 H       1  LIG1        0.0274
     54 H          -1.1844    2.9757   -5.5593 H       1  LIG1        0.0274
     55 H          -0.2966    1.8061   -1.2525 H       1  LIG1        0.0285
     56 H           1.2048    1.3546   -0.4708 H       1  LIG1        0.0285
@<TRIPOS>BOND
     1     1     2    1
     2     2     3    1
     3     3     4    2
     4     4     5    1
     5     5     6   ar
     6     6     7    1
     7     7     8    1
     8     7     9    1
     9     9    10    1
    10     6    11   ar
    11    10    11    1
    12    11    12   ar
    13    12    13   ar
    14    13    14   ar
    15     5    14   ar
    16     2    15    1
    17    15    16   ar
    18    16    17   ar
    19    17    18   ar
    20    18    19   ar
    21    19    20   ar
    22    20    21   ar
    23    17    21   ar
    24    21    22    1
    25    18    23   ar
    26    23    24   ar
    27    15    24   ar
    28    24    25    1
    29    27    28    2
    30    28    29    1
    31    28    30    1
    32    25    31    1
    33     2    31    1
    34    25    27    1
    35    25    26    1
    36     1    32    1
    37     1    33    1
    38     1    34    1
    39     3    35    1
    40     4    36    1
    41     9    37    1
    42     9    38    1
    43    10    39    1
    44    10    40    1
    45    12    41    1
    46    13    42    1
    47    14    43    1
    48    16    44    1
    49    19    45    1
    50    20    46    1
    51    23    47    1
    52    27    48    1
    53    29    49    1
    54    29    50    1
    55    29    51    1
    56    30    52    1
    57    30    53    1
    58    30    54    1
    59    31    55    1
    60    31    56    1
