REMARK  Name = NuBBE_381
REMARK  8 active torsions:
REMARK  status: ('A' for Active; 'I' for Inactive)
REMARK    1  A    between atoms: C_3  and  O_4
REMARK    2  A    between atoms: C_5  and  C_6
REMARK    3  A    between atoms: C_11  and  C_35
REMARK    4  A    between atoms: C_12  and  C_13
REMARK    5  A    between atoms: C_16  and  C_17
REMARK    6  A    between atoms: C_22  and  C_34
REMARK    7  A    between atoms: C_26  and  C_28
REMARK    8  A    between atoms: C_31  and  O_33
REMARK                            x       y       z     vdW  Elec       q    Type
REMARK                         _______ _______ _______ _____ _____    ______ ____
ROOT
ATOM      1  O   LIG A   1      -3.322  -4.086  -4.388  0.00  0.00    -0.284 OA
ATOM      2  C   LIG A   1      -2.550  -4.036  -3.464  0.00  0.00    +0.221 C 
ATOM      3  C   LIG A   1      -1.973  -5.301  -2.904  0.00  0.00    +0.167 C 
ATOM      4  C   LIG A   1      -1.050  -5.266  -1.933  0.00  0.00    +0.002 C 
ATOM      5  C   LIG A   1      -0.513  -6.539  -1.311  0.00  0.00    +0.048 C 
ATOM      6  C   LIG A   1      -0.533  -3.946  -1.516  0.00  0.00    -0.014 C 
ATOM      7  C   LIG A   1       0.616  -3.878  -0.834  0.00  0.00    +0.008 C 
ATOM      8  C   LIG A   1       1.154  -2.651  -0.345  0.00  0.00    +0.001 C 
ATOM      9  C   LIG A   1       0.428  -1.504  -0.322  0.00  0.00    -0.053 C 
ATOM     10  C   LIG A   1       0.690  -0.554   0.854  0.00  0.00    -0.004 C 
ATOM     11  C   LIG A   1      -0.254   0.697   1.236  0.00  0.00    -0.019 C 
ATOM     12  C   LIG A   1      -0.186   0.822   2.811  0.00  0.00    +0.012 C 
ATOM     13  C   LIG A   1      -1.682   0.320   0.726  0.00  0.00    +0.009 C 
ATOM     14  C   LIG A   1      -1.833  -0.394  -0.666  0.00  0.00    +0.016 C 
ATOM     15  C   LIG A   1      -0.705  -1.298  -1.284  0.00  0.00    +0.015 C 
ATOM     16  C   LIG A   1      -0.049  -0.560  -2.490  0.00  0.00    +0.021 C 
ATOM     17  C   LIG A   1      -1.219  -2.675  -1.873  0.00  0.00    -0.026 C 
ATOM     18  C   LIG A   1      -2.164  -2.745  -2.825  0.00  0.00    +0.059 C 
ATOM     19  C   LIG A   1       2.152  -0.056   0.600  0.00  0.00    +0.012 C 
ATOM     20  C   LIG A   1       2.284   1.331  -0.101  0.00  0.00    +0.011 C 
ATOM     21  C   LIG A   1       1.638   2.492   0.676  0.00  0.00    +0.004 C 
ATOM     22  C   LIG A   1       0.108   2.166   0.716  0.00  0.00    +0.005 C 
ATOM     23  C   LIG A   1      -0.668   3.346   1.443  0.00  0.00    +0.015 C 
ATOM     24  C   LIG A   1      -0.478   4.716   0.780  0.00  0.00    +0.055 C 
ATOM     25  C   LIG A   1      -1.171   5.840   1.561  0.00  0.00    +0.015 C 
ATOM     26  C   LIG A   1       1.018   4.950   0.678  0.00  0.00    +0.165 C 
ATOM     27  O   LIG A   1       1.593   5.926   1.161  0.00  0.00    -0.294 OA
ATOM     28  C   LIG A   1       1.798   3.860  -0.071  0.00  0.00    +0.187 C 
ATOM     29  C   LIG A   1       2.359   2.616   2.047  0.00  0.00    +0.014 C 
ATOM     30  C   LIG A   1       0.356  -1.642   2.009  0.00  0.00    +0.016 C 
ENDROOT
BRANCH   3  31
ATOM     31  O   LIG A   1      -2.425  -6.488  -3.456  0.00  0.00    -0.503 OA
ATOM     32  H   LIG A   1      -2.993  -6.216  -4.205  0.00  0.00    +0.292 HD
ENDBRANCH   3  31
BRANCH  28  33
ATOM     33  O   LIG A   1       3.165   4.242  -0.196  0.00  0.00    -0.384 OA
ATOM     34  H   LIG A   1       3.302   4.976   0.441  0.00  0.00    +0.210 HD
ENDBRANCH  28  33
TORSDOF 2
