@<TRIPOS>MOLECULE
NuBBE_558
 68 72 0 0 0
SMALL
GASTEIGER

@<TRIPOS>ATOM
      1 O          -8.4320   -1.6637   -0.3142 O.3     1  LIG1       -0.5065
      2 C          -7.0919   -1.4405   -0.3679 C.ar    1  LIG1        0.1239
      3 C          -6.4427   -1.1524   -1.5661 C.ar    1  LIG1        0.0231
      4 C          -5.0629   -0.9312   -1.5670 C.ar    1  LIG1        0.1465
      5 C          -4.3592   -1.0140   -0.3728 C.ar    1  LIG1        0.1092
      6 C          -5.0194   -1.3207    0.8249 C.ar    1  LIG1        0.1348
      7 O          -4.3761   -1.4426    2.0256 O.3     1  LIG1       -0.5058
      8 C          -6.3886   -1.5163    0.8346 C.ar    1  LIG1        0.0223
      9 C          -2.9302   -0.7696   -0.4005 C.ar    1  LIG1        0.2382
     10 C          -2.3013   -0.2859   -1.6721 C.ar    1  LIG1        0.2138
     11 O          -0.9734    0.1260   -1.7458 O.3     1  LIG1       -0.4532
     12 C          -0.2168    0.3109   -0.5404 C.3     1  LIG1        0.2311
     13 H          -0.7426    1.0310    0.1099 H       1  LIG1        0.1084
     14 O           0.0505   -0.9308    0.1084 O.3     1  LIG1       -0.3327
     15 C           0.5168   -0.7137    1.4435 C.3     1  LIG1        0.0994
     16 H          -0.2298   -0.1057    1.9773 H       1  LIG1        0.0632
     17 C           1.9022   -0.0481    1.4034 C.3     1  LIG1        0.1575
     18 H           2.6242   -0.8301    1.1275 H       1  LIG1        0.0787
     19 C           2.0252    1.0770    0.3433 C.3     1  LIG1        0.1261
     20 H           1.7606    2.0406    0.7877 H       1  LIG1        0.0659
     21 C           1.1739    0.8665   -0.9167 C.3     1  LIG1        0.1465
     22 H           1.0987    1.7966   -1.4897 H       1  LIG1        0.0683
     23 O           1.8791   -0.0651   -1.7760 O.3     1  LIG1       -0.3829
     24 O           3.4088    1.1938   -0.0486 O.3     1  LIG1       -0.3852
     25 O           2.3773    0.4424    2.6855 O.3     1  LIG1       -0.4529
     26 C           1.6613    1.4114    3.2978 C.2     1  LIG1        0.3324
     27 C           2.4669    2.2633    4.1895 C.2     1  LIG1        0.0231
     28 C           3.7791    2.2765    4.4617 C.2     1  LIG1       -0.0477
     29 C           4.8399    1.3828    3.9947 C.ar    1  LIG1       -0.0214
     30 C           5.2897    0.3532    4.8286 C.ar    1  LIG1       -0.0130
     31 C           6.3944   -0.4085    4.4566 C.ar    1  LIG1        0.1174
     32 O           6.8506   -1.3421    5.3409 O.3     1  LIG1       -0.5068
     33 C           7.0302   -0.2006    3.2360 C.ar    1  LIG1       -0.0201
     34 C           6.5663    0.8058    2.3900 C.ar    1  LIG1       -0.0578
     35 C           5.4863    1.6075    2.7747 C.ar    1  LIG1       -0.0544
     36 O           0.4945    1.6909    3.0705 O.2     1  LIG1       -0.2456
     37 C           0.5665   -2.0596    2.1526 C.3     1  LIG1       -0.0350
     38 C          -3.1034   -0.2977   -2.7664 C.ar    1  LIG1        0.1809
     39 O          -4.4534   -0.6547   -2.7551 O.2     1  LIG1       -0.4507
     40 C          -2.6486    0.0737   -4.1421 C.ar    1  LIG1        0.0213
     41 C          -1.3525   -0.2102   -4.6041 C.ar    1  LIG1       -0.0475
     42 C          -0.9482    0.1227   -5.9015 C.ar    1  LIG1       -0.0195
     43 C          -1.8554    0.7158   -6.7676 C.ar    1  LIG1        0.1169
     44 C          -3.1482    0.9959   -6.3535 C.ar    1  LIG1       -0.0195
     45 C          -3.5462    0.6661   -5.0515 C.ar    1  LIG1       -0.0475
     46 O          -1.5178    1.0141   -8.0529 O.3     1  LIG1       -0.5068
     47 O          -2.3339   -0.9617    0.6592 O.2     1  LIG1       -0.2830
     48 H          -8.7866   -1.6971   -1.2147 H       1  LIG1        0.2921
     49 H          -6.9940   -1.0927   -2.5040 H       1  LIG1        0.0691
     50 H          -3.4046   -1.3733    1.8566 H       1  LIG1        0.2922
     51 H          -6.9011   -1.7380    1.7631 H       1  LIG1        0.0691
     52 H           1.1942   -0.4550   -2.3517 H       1  LIG1        0.2102
     53 H           3.5381    0.4686   -0.6982 H       1  LIG1        0.2101
     54 H           1.8545    3.0385    4.6463 H       1  LIG1        0.0689
     55 H           4.1484    3.0649    5.1170 H       1  LIG1        0.0626
     56 H           4.8068    0.1587    5.7818 H       1  LIG1        0.0660
     57 H           7.7359   -1.6243    5.0566 H       1  LIG1        0.2921
     58 H           7.8768   -0.8075    2.9315 H       1  LIG1        0.0654
     59 H           7.0503    0.9777    1.4320 H       1  LIG1        0.0619
     60 H           5.1619    2.4103    2.1158 H       1  LIG1        0.0623
     61 H           0.8679   -2.8553    1.4634 H       1  LIG1        0.0256
     62 H          -0.4306   -2.3286    2.5240 H       1  LIG1        0.0256
     63 H           1.2457   -2.0476    3.0098 H       1  LIG1        0.0256
     64 H          -0.6348   -0.7157   -3.9651 H       1  LIG1        0.0626
     65 H           0.0702   -0.0905   -6.2110 H       1  LIG1        0.0654
     66 H          -3.8509    1.4524   -7.0445 H       1  LIG1        0.0654
     67 H          -4.5762    0.8720   -4.7665 H       1  LIG1        0.0626
     68 H          -0.7403    0.4831   -8.2942 H       1  LIG1        0.2921
@<TRIPOS>BOND
     1     1     2    1
     2     2     3   ar
     3     3     4   ar
     4     4     5   ar
     5     5     6   ar
     6     6     7    1
     7     6     8   ar
     8     2     8   ar
     9     5     9   ar
    10     9    10   ar
    11    10    11    1
    12    11    12    1
    13    12    13    1
    14    12    14    1
    15    14    15    1
    16    15    17    1
    17    17    18    1
    18    17    19    1
    19    19    21    1
    20    12    21    1
    21    17    25    1
    22    25    26    1
    23    26    27    1
    24    27    28    2
    25    28    29    1
    26    29    30   ar
    27    30    31   ar
    28    31    32    1
    29    31    33   ar
    30    33    34   ar
    31    34    35   ar
    32    29    35   ar
    33    26    36    2
    34    10    38   ar
    35    38    39   ar
    36     4    39   ar
    37    38    40    1
    38    40    41   ar
    39    41    42   ar
    40    42    43   ar
    41    43    44   ar
    42    44    45   ar
    43    40    45   ar
    44    43    46    1
    45     9    47    2
    46    15    37    1
    47    15    16    1
    48    19    24    1
    49    19    20    1
    50    21    23    1
    51    21    22    1
    52     1    48    1
    53     3    49    1
    54     7    50    1
    55     8    51    1
    56    23    52    1
    57    24    53    1
    58    27    54    1
    59    28    55    1
    60    30    56    1
    61    32    57    1
    62    33    58    1
    63    34    59    1
    64    35    60    1
    65    37    61    1
    66    37    62    1
    67    37    63    1
    68    41    64    1
    69    42    65    1
    70    44    66    1
    71    45    67    1
    72    46    68    1
