REMARK  Name = NuBBE_57
REMARK  19 active torsions:
REMARK  status: ('A' for Active; 'I' for Inactive)
REMARK    1  A    between atoms: C_1  and  C_2
REMARK    2  A    between atoms: C_2  and  O_3
REMARK    3  A    between atoms: O_3  and  C_4
REMARK    4  A    between atoms: C_8  and  O_10
REMARK    5  A    between atoms: O_10  and  C_11
REMARK    6  A    between atoms: C_11  and  C_12
REMARK    7  A    between atoms: C_15  and  O_17
REMARK    8  A    between atoms: O_17  and  C_18
REMARK    9  A    between atoms: C_18  and  C_19
REMARK   10  A    between atoms: C_22  and  O_24
REMARK   11  A    between atoms: O_24  and  C_25
REMARK   12  A    between atoms: C_25  and  C_26
REMARK   13  A    between atoms: C_29  and  O_30
REMARK   14  A    between atoms: C_35  and  C_37
REMARK   15  A    between atoms: C_38  and  C_39
REMARK   16  A    between atoms: C_38  and  C_40
REMARK   17  A    between atoms: C_40  and  C_41
REMARK   18  A    between atoms: C_42  and  C_43
REMARK   19  A    between atoms: C_42  and  C_44
REMARK                            x       y       z     vdW  Elec       q    Type
REMARK                         _______ _______ _______ _____ _____    ______ ____
ROOT
ATOM      1  C   LIG A   1       1.172   1.321   2.054  0.00  0.00    +0.200 C 
ATOM      2  C   LIG A   1       1.221  -0.169   2.134  0.00  0.00    +0.023 C 
ATOM      3  C   LIG A   1       1.603  -0.722   0.972  0.00  0.00    +0.013 C 
ATOM      4  C   LIG A   1       2.971  -0.554   0.279  0.00  0.00    +0.343 C 
ATOM      5  O   LIG A   1       2.705  -0.805  -1.105  0.00  0.00    -0.297 OA
ATOM      6  C   LIG A   1       1.528  -1.616  -1.082  0.00  0.00    +0.328 C 
ATOM      7  C   LIG A   1       0.550  -0.815  -0.157  0.00  0.00    +0.100 C 
ATOM      8  C   LIG A   1      -0.730  -1.668   0.078  0.00  0.00    +0.194 C 
ATOM      9  C   LIG A   1      -1.935  -0.842   0.524  0.00  0.00    +0.049 C 
ATOM     10  C   LIG A   1      -2.383   0.310  -0.409  0.00  0.00    -0.004 C 
ATOM     11  C   LIG A   1      -3.390   1.142   0.404  0.00  0.00    +0.008 C 
ATOM     12  C   LIG A   1      -1.194   1.085  -1.132  0.00  0.00    -0.022 C 
ATOM     13  C   LIG A   1      -1.107   0.541  -2.596  0.00  0.00    +0.012 C 
ATOM     14  C   LIG A   1       0.204   0.762  -0.424  0.00  0.00    +0.019 C 
ATOM     15  C   LIG A   1       0.225   1.641   0.898  0.00  0.00    +0.054 C 
ENDROOT
BRANCH   1  16
ATOM     16  O   LIG A   1       0.658   1.920   3.250  0.00  0.00    -0.457 OA
BRANCH  16  18
ATOM     17  C   LIG A   1       1.034   2.758   5.402  0.00  0.00    +0.136 C 
ATOM     18  C   LIG A   1       1.452   1.782   4.349  0.00  0.00    +0.304 C 
ATOM     19  O   LIG A   1       2.397   1.019   4.463  0.00  0.00    -0.251 OA
ENDBRANCH  16  18
ENDBRANCH   1  16
BRANCH   4  20
ATOM     20  O   LIG A   1       3.499   0.751   0.468  0.00  0.00    -0.431 OA
BRANCH  20  21
ATOM     21  C   LIG A   1       4.728   0.769   1.046  0.00  0.00    +0.306 C 
ATOM     22  C   LIG A   1       4.946   2.051   1.797  0.00  0.00    +0.136 C 
ATOM     23  O   LIG A   1       5.546  -0.136   1.010  0.00  0.00    -0.251 OA
ENDBRANCH  20  21
ENDBRANCH   4  20
BRANCH   6  24
ATOM     24  O   LIG A   1       1.811  -2.893  -0.405  0.00  0.00    -0.434 OA
BRANCH  24  25
ATOM     25  C   LIG A   1       2.768  -3.714  -0.889  0.00  0.00    +0.306 C 
ATOM     26  C   LIG A   1       3.431  -4.498   0.216  0.00  0.00    +0.136 C 
ATOM     27  O   LIG A   1       3.098  -3.771  -2.073  0.00  0.00    -0.251 OA
ENDBRANCH  24  25
ENDBRANCH   6  24
BRANCH   8  28
ATOM     28  O   LIG A   1      -1.145  -2.365  -1.135  0.00  0.00    -0.457 OA
BRANCH  28  29
ATOM     29  C   LIG A   1      -1.219  -3.732  -1.090  0.00  0.00    +0.340 C 
ATOM     30  O   LIG A   1      -0.870  -4.429  -0.173  0.00  0.00    -0.245 OA
BRANCH  29  31
ATOM     31  C   LIG A   1      -1.860  -4.280  -2.334  0.00  0.00    +0.059 A 
ATOM     32  C   LIG A   1      -2.044  -5.670  -2.437  0.00  0.00    +0.018 A 
ATOM     33  C   LIG A   1      -2.738  -6.221  -3.525  0.00  0.00    +0.046 A 
ATOM     34  C   LIG A   1      -3.244  -5.377  -4.506  0.00  0.00    +0.117 A 
ATOM     35  C   LIG A   1      -3.038  -4.003  -4.436  0.00  0.00    +0.046 A 
ATOM     36  C   LIG A   1      -2.342  -3.455  -3.354  0.00  0.00    +0.018 A 
BRANCH  34  37
ATOM     37  O   LIG A   1      -3.967  -5.853  -5.559  0.00  0.00    -0.507 OA
ATOM     38  H   LIG A   1      -4.094  -6.810  -5.450  0.00  0.00    +0.292 HD
ENDBRANCH  34  37
ENDBRANCH  29  31
ENDBRANCH  28  29
ENDBRANCH   8  28
BRANCH  12  39
ATOM     39  C   LIG A   1      -1.447   2.686  -1.327  0.00  0.00    +0.034 C 
BRANCH  39  40
ATOM     40  C   LIG A   1      -1.708   3.622  -0.149  0.00  0.00    -0.023 C 
ATOM     41  C   LIG A   1      -1.062   4.717   0.304  0.00  0.00    -0.055 C 
ATOM     42  C   LIG A   1       0.137   5.352  -0.333  0.00  0.00    +0.043 C 
BRANCH  41  43
ATOM     43  C   LIG A   1      -1.550   5.318   1.544  0.00  0.00    -0.005 C 
ATOM     44  C   LIG A   1      -0.828   5.437   2.666  0.00  0.00    +0.008 C 
ENDBRANCH  41  43
ENDBRANCH  39  40
ENDBRANCH  12  39
TORSDOF 13
