@<TRIPOS>MOLECULE
NuBBE_586
 50 52 0 0 0
SMALL
GASTEIGER

@<TRIPOS>ATOM
      1 O           0.7421    1.1394    3.7058 O.3     1  LIG1       -0.3891
      2 C           0.0493    0.6756    2.5443 C.3     1  LIG1        0.0862
      3 H          -0.9739    0.4312    2.8504 H       1  LIG1        0.0621
      4 C           0.7412   -0.5772    2.0226 C.3     1  LIG1        0.0024
      5 C           0.1199   -1.0002    0.6903 C.3     1  LIG1        0.0654
      6 H          -0.9186   -1.3077    0.8664 H       1  LIG1        0.0600
      7 O           0.1307    0.0767   -0.2663 O.3     1  LIG1       -0.3663
      8 C          -0.5524    1.2667    0.1449 C.3     1  LIG1        0.1057
      9 H          -0.3174    2.0180   -0.6193 H       1  LIG1        0.0667
     10 C          -2.0465    1.0879    0.1246 C.2     1  LIG1       -0.0525
     11 C          -2.7243    0.2541   -0.6854 C.2     1  LIG1       -0.0560
     12 C          -4.1856    0.0978   -0.6451 C.ar    1  LIG1       -0.0252
     13 C          -4.8838   -0.2685   -1.8032 C.ar    1  LIG1       -0.0546
     14 C          -6.2686   -0.4640   -1.7640 C.ar    1  LIG1       -0.0612
     15 C          -6.9652   -0.3040   -0.5672 C.ar    1  LIG1       -0.0617
     16 C          -6.2812    0.0532    0.5904 C.ar    1  LIG1       -0.0612
     17 C          -4.9005    0.2445    0.5519 C.ar    1  LIG1       -0.0546
     18 C           0.0346    1.7761    1.4771 C.3     1  LIG1        0.1107
     19 H          -0.5081    2.6526    1.8473 H       1  LIG1        0.0648
     20 O           1.3990    2.2114    1.2683 O.3     1  LIG1       -0.3863
     21 C           0.8434   -2.1920    0.0416 C.3     1  LIG1       -0.0081
     22 C           2.2875   -1.9023   -0.2719 C.2     1  LIG1       -0.0821
     23 C           2.7346   -1.4329   -1.4504 C.2     1  LIG1       -0.0475
     24 C           4.1790   -1.1105   -1.7883 C.3     1  LIG1        0.1250
     25 H           4.4883   -1.8422   -2.5428 H       1  LIG1        0.0782
     26 O           5.0383   -1.3132   -0.6508 O.3     1  LIG1       -0.4538
     27 C           5.1470   -0.3522    0.3076 C.2     1  LIG1        0.3322
     28 C           4.7047    1.0092   -0.0559 C.2     1  LIG1        0.0187
     29 C           4.3871    1.3295   -1.3140 C.2     1  LIG1       -0.0735
     30 C           4.3868    0.2887   -2.3876 C.3     1  LIG1        0.0067
     31 O           5.6022   -0.5780    1.4131 O.2     1  LIG1       -0.2456
     32 H           1.4912    1.6757    3.3743 H       1  LIG1        0.2099
     33 H           0.6648   -1.3843    2.7619 H       1  LIG1        0.0316
     34 H           1.8132   -0.3704    1.9174 H       1  LIG1        0.0316
     35 H          -2.5935    1.7283    0.8118 H       1  LIG1        0.0599
     36 H          -2.1946   -0.3491   -1.4216 H       1  LIG1        0.0621
     37 H          -4.3619   -0.3992   -2.7488 H       1  LIG1        0.0623
     38 H          -6.8049   -0.7429   -2.6676 H       1  LIG1        0.0618
     39 H          -8.0399   -0.4609   -0.5339 H       1  LIG1        0.0618
     40 H          -6.8154    0.1782    1.5282 H       1  LIG1        0.0618
     41 H          -4.3907    0.5004    1.4766 H       1  LIG1        0.0623
     42 H           1.7829    1.5974    0.6110 H       1  LIG1        0.2100
     43 H           0.3187   -2.4703   -0.8812 H       1  LIG1        0.0332
     44 H           0.7993   -3.0637    0.7060 H       1  LIG1        0.0332
     45 H           2.9835   -2.0859    0.5438 H       1  LIG1        0.0571
     46 H           2.0136   -1.2618   -2.2496 H       1  LIG1        0.0605
     47 H           4.7253    1.7419    0.7420 H       1  LIG1        0.0686
     48 H           4.1394    2.3540   -1.5767 H       1  LIG1        0.0575
     49 H           5.3601    0.3301   -2.8926 H       1  LIG1        0.0346
     50 H           3.6194    0.5153   -3.1354 H       1  LIG1        0.0346
@<TRIPOS>BOND
     1     2     4    1
     2     4     5    1
     3     5     6    1
     4     5     7    1
     5     7     8    1
     6    10    11    2
     7    11    12    1
     8    12    13   ar
     9    13    14   ar
    10    14    15   ar
    11    15    16   ar
    12    16    17   ar
    13    12    17   ar
    14     8    18    1
    15    18    19    1
    16     2    18    1
    17    18    20    1
    18     5    21    1
    19    21    22    1
    20    22    23    2
    21    23    24    1
    22    24    25    1
    23    24    26    1
    24    26    27    1
    25    27    28    1
    26    28    29    2
    27    29    30    1
    28    24    30    1
    29    27    31    2
    30     2     3    1
    31     2     1    1
    32     8    10    1
    33     8     9    1
    34     1    32    1
    35     4    33    1
    36     4    34    1
    37    10    35    1
    38    11    36    1
    39    13    37    1
    40    14    38    1
    41    15    39    1
    42    16    40    1
    43    17    41    1
    44    20    42    1
    45    21    43    1
    46    21    44    1
    47    22    45    1
    48    23    46    1
    49    28    47    1
    50    29    48    1
    51    30    49    1
    52    30    50    1
