REMARK  Name = NuBBE_953
REMARK  12 active torsions:
REMARK  status: ('A' for Active; 'I' for Inactive)
REMARK    1  A    between atoms: C_7  and  O_8
REMARK    2  A    between atoms: C_9  and  C_10
REMARK    3  A    between atoms: C_10  and  C_11
REMARK    4  A    between atoms: C_12  and  C_13
REMARK    5  A    between atoms: C_12  and  C_14
REMARK    6  A    between atoms: C_15  and  O_16
REMARK    7  A    between atoms: N_17  and  C_18
REMARK    8  A    between atoms: C_20  and  O_21
REMARK    9  A    between atoms: C_24  and  C_25
REMARK   10  A    between atoms: C_25  and  C_26
REMARK   11  A    between atoms: C_27  and  C_28
REMARK   12  A    between atoms: C_27  and  C_29
REMARK                            x       y       z     vdW  Elec       q    Type
REMARK                         _______ _______ _______ _____ _____    ______ ____
ROOT
ATOM      1  O   LIG A   1      -1.100   0.411  -2.237  0.00  0.00    -0.286 OA
ATOM      2  C   LIG A   1      -0.078   0.508  -1.573  0.00  0.00    +0.201 A 
ATOM      3  C   LIG A   1       0.646  -0.727  -1.208  0.00  0.00    +0.088 A 
ATOM      4  C   LIG A   1       1.988  -0.605  -0.830  0.00  0.00    +0.060 A 
ATOM      5  C   LIG A   1       2.647  -1.774  -0.428  0.00  0.00    +0.072 A 
ATOM      6  C   LIG A   1       1.991  -3.011  -0.431  0.00  0.00    +0.126 A 
ATOM      7  C   LIG A   1       0.654  -3.138  -0.824  0.00  0.00    +0.040 A 
ATOM      8  C   LIG A   1      -0.009  -1.974  -1.232  0.00  0.00    +0.137 A 
ATOM      9  N   LIG A   1       2.599   0.665  -0.840  0.00  0.00    -0.340 N 
ATOM     10  C   LIG A   1       4.062   0.738  -0.845  0.00  0.00    +0.149 C 
ATOM     11  C   LIG A   1       1.845   1.867  -0.794  0.00  0.00    +0.095 A 
ATOM     12  C   LIG A   1       2.365   3.116  -0.398  0.00  0.00    +0.141 A 
ATOM     13  C   LIG A   1       1.558   4.252  -0.323  0.00  0.00    +0.048 A 
ATOM     14  C   LIG A   1       0.198   4.169  -0.607  0.00  0.00    +0.008 A 
ATOM     15  C   LIG A   1      -0.393   2.953  -0.979  0.00  0.00    -0.031 A 
ATOM     16  C   LIG A   1       0.456   1.820  -1.103  0.00  0.00    +0.053 A 
ENDROOT
BRANCH   6  17
ATOM     17  O   LIG A   1       2.687  -4.126  -0.052  0.00  0.00    -0.506 OA
ATOM     18  H   LIG A   1       3.559  -3.868   0.286  0.00  0.00    +0.292 HD
ENDBRANCH   6  17
BRANCH   8  19
ATOM     19  O   LIG A   1      -1.313  -2.088  -1.652  0.00  0.00    -0.506 OA
ATOM     20  H   LIG A   1      -1.572  -1.228  -2.055  0.00  0.00    +0.292 HD
ENDBRANCH   8  19
BRANCH  12  21
ATOM     21  O   LIG A   1       3.677   3.256  -0.022  0.00  0.00    -0.505 OA
ATOM     22  H   LIG A   1       3.849   4.184   0.203  0.00  0.00    +0.292 HD
ENDBRANCH  12  21
BRANCH   7  23
ATOM     23  C   LIG A   1      -0.065  -4.468  -0.760  0.00  0.00    +0.069 C 
BRANCH  23  24
ATOM     24  C   LIG A   1      -0.796  -4.678   0.545  0.00  0.00    -0.023 C 
ATOM     25  C   LIG A   1      -0.390  -5.377   1.625  0.00  0.00    -0.079 C 
ATOM     26  C   LIG A   1       0.934  -6.076   1.753  0.00  0.00    +0.038 C 
ATOM     27  C   LIG A   1      -1.262  -5.494   2.847  0.00  0.00    +0.038 C 
ENDBRANCH  23  24
ENDBRANCH   7  23
BRANCH  15  28
ATOM     28  C   LIG A   1      -1.901   2.846  -1.169  0.00  0.00    +0.063 C 
BRANCH  28  29
ATOM     29  C   LIG A   1      -2.708   4.094  -0.899  0.00  0.00    -0.024 C 
ATOM     30  C   LIG A   1      -3.287   4.490   0.254  0.00  0.00    -0.079 C 
ATOM     31  C   LIG A   1      -3.200   3.754   1.563  0.00  0.00    +0.038 C 
ATOM     32  C   LIG A   1      -4.080   5.770   0.300  0.00  0.00    +0.038 C 
ENDBRANCH  28  29
ENDBRANCH  15  28
TORSDOF 7
