@<TRIPOS>MOLECULE
NuBBE_2175
 51 53 0 0 0
SMALL
GASTEIGER

@<TRIPOS>ATOM
      1 O          -3.4120   -0.3841    0.2511 O.2     1  LIG1       -0.2864
      2 C          -2.1871   -0.4047    0.2019 C.ar    1  LIG1        0.2001
      3 C          -1.4825   -1.6890    0.0830 C.ar    1  LIG1        0.0648
      4 C          -2.1886   -2.8919   -0.0061 C.ar    1  LIG1       -0.0439
      5 C          -1.4850   -4.0943   -0.1119 C.ar    1  LIG1       -0.0190
      6 C          -0.0864   -4.0907   -0.1188 C.ar    1  LIG1        0.1245
      7 O           0.5345   -5.3068   -0.1830 O.3     1  LIG1       -0.4878
      8 C           1.7953   -5.3969    0.4989 C.3     1  LIG1        0.1080
      9 C           2.8686   -5.7526   -0.4889 C.2     1  LIG1       -0.0484
     10 C           4.1643   -5.3781   -0.4659 C.2     1  LIG1       -0.0765
     11 C           4.7887   -4.4811    0.5680 C.3     1  LIG1       -0.0439
     12 C           5.1357   -5.8988   -1.4945 C.3     1  LIG1       -0.0439
     13 C           0.6029   -2.8804   -0.0919 C.ar    1  LIG1        0.0231
     14 C          -0.0948   -1.6878    0.0404 C.ar    1  LIG1        0.1419
     15 O           0.6589   -0.5519    0.1344 O.2     1  LIG1       -0.4620
     16 C          -0.0074    0.6401    0.2302 C.ar    1  LIG1        0.1038
     17 C          -1.3390    0.8252    0.2458 C.ar    1  LIG1        0.0644
     18 C          -1.9065    2.1871    0.3098 C.ar    1  LIG1       -0.0076
     19 C          -1.2552    3.2630   -0.3084 C.ar    1  LIG1       -0.0076
     20 C          -1.7585    4.5590   -0.1984 C.ar    1  LIG1        0.1736
     21 O          -1.0673    5.6695   -0.7371 O.3     1  LIG1       -0.4223
     22 C           0.3316    5.7233   -0.6943 C.2     1  LIG1        0.3093
     23 C           0.7634    7.0682   -1.2067 C.3     1  LIG1        0.0336
     24 O           1.0983    4.8600   -0.3085 O.2     1  LIG1       -0.2507
     25 C          -2.9897    4.8025    0.4247 C.ar    1  LIG1        0.1623
     26 O          -3.4402    6.0958    0.4216 O.3     1  LIG1       -0.4914
     27 C          -4.6937    6.3307    1.0535 C.3     1  LIG1        0.0790
     28 C          -3.6640    3.7274    1.0036 C.ar    1  LIG1       -0.0157
     29 C          -3.1129    2.4430    0.9706 C.ar    1  LIG1       -0.0501
     30 H          -3.2768   -2.8927    0.0119 H       1  LIG1        0.0627
     31 H          -2.0319   -5.0321   -0.1768 H       1  LIG1        0.0654
     32 H           1.7050   -6.2138    1.2217 H       1  LIG1        0.0742
     33 H           2.0341   -4.5064    1.0867 H       1  LIG1        0.0742
     34 H           2.5330   -6.4189   -1.2832 H       1  LIG1        0.0605
     35 H           4.0800   -4.1143    1.3131 H       1  LIG1        0.0274
     36 H           5.2379   -3.6060    0.0866 H       1  LIG1        0.0274
     37 H           5.5747   -5.0207    1.1066 H       1  LIG1        0.0274
     38 H           4.6624   -6.5816   -2.2077 H       1  LIG1        0.0274
     39 H           5.9433   -6.4499   -0.9996 H       1  LIG1        0.0274
     40 H           5.5768   -5.0726   -2.0608 H       1  LIG1        0.0274
     41 H           1.6841   -2.8395   -0.1731 H       1  LIG1        0.0691
     42 H           0.7280    1.4359    0.2832 H       1  LIG1        0.1037
     43 H          -0.3436    3.0923   -0.8740 H       1  LIG1        0.0662
     44 H           0.4863    7.1773   -2.2546 H       1  LIG1        0.0342
     45 H           1.8568    7.1393   -1.1225 H       1  LIG1        0.0342
     46 H           0.3224    7.8542   -0.5947 H       1  LIG1        0.0342
     47 H          -4.8991    7.4036    1.0084 H       1  LIG1        0.0660
     48 H          -4.6617    6.0442    2.1102 H       1  LIG1        0.0660
     49 H          -5.5032    5.8115    0.5281 H       1  LIG1        0.0660
     50 H          -4.6212    3.8425    1.5010 H       1  LIG1        0.0655
     51 H          -3.6588    1.6424    1.4663 H       1  LIG1        0.0625
@<TRIPOS>BOND
     1     1     2    2
     2     2     3   ar
     3     3     4   ar
     4     4     5   ar
     5     5     6   ar
     6     6     7    1
     7     7     8    1
     8     8     9    1
     9     9    10    2
    10    10    11    1
    11    10    12    1
    12     6    13   ar
    13    13    14   ar
    14     3    14   ar
    15    14    15   ar
    16    15    16   ar
    17    16    17   ar
    18     2    17   ar
    19    17    18    1
    20    18    19   ar
    21    19    20   ar
    22    20    21    1
    23    21    22    1
    24    22    23    1
    25    22    24    2
    26    20    25   ar
    27    25    26    1
    28    26    27    1
    29    25    28   ar
    30    28    29   ar
    31    18    29   ar
    32     4    30    1
    33     5    31    1
    34     8    32    1
    35     8    33    1
    36     9    34    1
    37    11    35    1
    38    11    36    1
    39    11    37    1
    40    12    38    1
    41    12    39    1
    42    12    40    1
    43    13    41    1
    44    16    42    1
    45    19    43    1
    46    23    44    1
    47    23    45    1
    48    23    46    1
    49    27    47    1
    50    27    48    1
    51    27    49    1
    52    28    50    1
    53    29    51    1
