REMARK  Name = NuBBE_38
REMARK  16 active torsions:
REMARK  status: ('A' for Active; 'I' for Inactive)
REMARK    1  A    between atoms: C_1  and  O_2
REMARK    2  A    between atoms: O_2  and  C_3
REMARK    3  A    between atoms: C_5  and  O_6
REMARK    4  A    between atoms: C_10  and  C_45
REMARK    5  A    between atoms: C_13  and  C_14
REMARK    6  A    between atoms: C_17  and  C_25
REMARK    7  A    between atoms: C_19  and  O_24
REMARK    8  A    between atoms: C_21  and  O_23
REMARK    9  A    between atoms: C_25  and  O_26
REMARK   10  A    between atoms: C_27  and  O_29
REMARK   11  A    between atoms: O_29  and  C_30
REMARK   12  A    between atoms: C_33  and  C_41
REMARK   13  A    between atoms: C_35  and  O_40
REMARK   14  A    between atoms: C_37  and  O_39
REMARK   15  A    between atoms: C_42  and  O_44
REMARK   16  A    between atoms: C_48  and  O_51
REMARK                            x       y       z     vdW  Elec       q    Type
REMARK                         _______ _______ _______ _____ _____    ______ ____
ROOT
ATOM      1  C   LIG A   1      -1.306   0.762  -0.911  0.00  0.00    +0.187 C 
ATOM      2  O   LIG A   1      -1.935   0.937  -2.206  0.00  0.00    -0.361 OA
ATOM      3  C   LIG A   1      -2.342  -0.286  -2.842  0.00  0.00    +0.175 C 
ATOM      4  C   LIG A   1      -3.397  -0.984  -1.966  0.00  0.00    +0.176 C 
ATOM      5  C   LIG A   1      -2.785  -1.330  -0.592  0.00  0.00    +0.177 C 
ATOM      6  C   LIG A   1      -1.380  -0.716  -0.390  0.00  0.00    +0.186 C 
ENDROOT
BRANCH   1  16
ATOM      7  C   LIG A   1      -2.962   2.451   0.192  0.00  0.00    +0.133 A 
ATOM      8  C   LIG A   1      -3.272   3.379   1.200  0.00  0.00    +0.092 A 
ATOM      9  C   LIG A   1      -2.371   3.666   2.220  0.00  0.00    +0.135 A 
ATOM     10  C   LIG A   1      -1.124   3.060   2.221  0.00  0.00    +0.106 A 
ATOM     11  C   LIG A   1      -0.181   3.326   3.331  0.00  0.00    +0.197 A 
ATOM     12  C   LIG A   1       1.209   2.951   3.074  0.00  0.00    +0.098 A 
ATOM     13  C   LIG A   1       1.515   2.197   2.020  0.00  0.00    +0.139 A 
ATOM     14  O   LIG A   1       0.568   1.732   1.089  0.00  0.00    -0.454 OA
ATOM     15  C   LIG A   1      -0.745   2.201   1.169  0.00  0.00    +0.152 A 
ATOM     16  C   LIG A   1      -1.687   1.827   0.150  0.00  0.00    +0.068 A 
ATOM     17  O   LIG A   1      -0.471   3.800   4.398  0.00  0.00    -0.287 OA
BRANCH  13  18
ATOM     18  C   LIG A   1       2.944   1.834   1.788  0.00  0.00    +0.018 A 
ATOM     19  C   LIG A   1       3.443   1.638   0.494  0.00  0.00    +0.015 A 
ATOM     20  C   LIG A   1       4.797   1.333   0.274  0.00  0.00    +0.046 A 
ATOM     21  C   LIG A   1       5.671   1.242   1.351  0.00  0.00    +0.117 A 
ATOM     22  C   LIG A   1       5.209   1.417   2.644  0.00  0.00    +0.046 A 
ATOM     23  C   LIG A   1       3.855   1.700   2.860  0.00  0.00    +0.015 A 
BRANCH  21  24
ATOM     24  O   LIG A   1       6.998   0.982   1.181  0.00  0.00    -0.507 OA
ATOM     25  H   LIG A   1       7.194   0.977   0.230  0.00  0.00    +0.292 HD
ENDBRANCH  21  24
ENDBRANCH  13  18
BRANCH   7  27
ATOM     26  C   LIG A   1      -5.241   2.447  -0.498  0.00  0.00    +0.277 C 
ATOM     27  O   LIG A   1      -3.871   2.174  -0.802  0.00  0.00    -0.494 OA
ENDBRANCH   7  27
BRANCH   9  28
ATOM     28  O   LIG A   1      -2.720   4.581   3.168  0.00  0.00    -0.506 OA
ATOM     29  H   LIG A   1      -3.644   4.858   3.070  0.00  0.00    +0.292 HD
ENDBRANCH   9  28
ENDBRANCH   1  16
BRANCH   5  30
ATOM     30  O   LIG A   1      -3.659  -0.922   0.470  0.00  0.00    -0.387 OA
ATOM     31  H   LIG A   1      -4.547  -1.259   0.246  0.00  0.00    +0.210 HD
ENDBRANCH   5  30
BRANCH   4  32
ATOM     32  O   LIG A   1      -3.922  -2.190  -2.538  0.00  0.00    -0.387 OA
ATOM     33  H   LIG A   1      -4.049  -2.026  -3.498  0.00  0.00    +0.210 HD
ENDBRANCH   4  32
BRANCH   3  34
ATOM     34  C   LIG A   1      -2.826  -0.013  -4.269  0.00  0.00    +0.190 C 
BRANCH  34  35
ATOM     35  O   LIG A   1      -3.208  -1.230  -4.918  0.00  0.00    -0.392 OA
ATOM     36  H   LIG A   1      -2.387  -1.727  -5.102  0.00  0.00    +0.209 HD
ENDBRANCH  34  35
ENDBRANCH   3  34
BRANCH   6  37
ATOM     37  O   LIG A   1      -0.468  -1.615  -1.099  0.00  0.00    -0.340 OA
BRANCH  37  38
ATOM     38  C   LIG A   1       0.933  -1.349  -0.986  0.00  0.00    +0.282 C 
ATOM     39  O   LIG A   1       1.671  -2.265  -1.800  0.00  0.00    -0.343 OA
ATOM     40  C   LIG A   1       2.016  -3.548  -1.271  0.00  0.00    +0.149 C 
ATOM     41  C   LIG A   1       1.868  -3.806   0.252  0.00  0.00    +0.174 C 
ATOM     42  C   LIG A   1       1.064  -2.756   1.004  0.00  0.00    +0.179 C 
ATOM     43  C   LIG A   1       3.481  -3.788  -1.666  0.00  0.00    +0.040 C 
ATOM     44  C   LIG A   1       1.405  -1.388   0.462  0.00  0.00    +0.201 C 
BRANCH  42  45
ATOM     45  O   LIG A   1       1.381  -2.783   2.404  0.00  0.00    -0.386 OA
ATOM     46  H   LIG A   1       1.173  -3.688   2.703  0.00  0.00    +0.210 HD
ENDBRANCH  42  45
BRANCH  41  47
ATOM     47  O   LIG A   1       1.257  -5.088   0.488  0.00  0.00    -0.387 OA
ATOM     48  H   LIG A   1       0.458  -5.140  -0.069  0.00  0.00    +0.210 HD
ENDBRANCH  41  47
BRANCH  44  49
ATOM     49  O   LIG A   1       2.810  -1.165   0.558  0.00  0.00    -0.384 OA
ATOM     50  H   LIG A   1       3.019  -1.201   1.512  0.00  0.00    +0.210 HD
ENDBRANCH  44  49
ENDBRANCH  37  38
ENDBRANCH   6  37
TORSDOF 14
