@<TRIPOS>MOLECULE
NuBBE_1243
 52 55 0 0 0
SMALL
GASTEIGER

@<TRIPOS>ATOM
      1 O          -0.0562    2.6156   -1.1704 O.3     1  LIG1       -0.5054
      2 C           0.0056    1.3887   -0.5558 C.ar    1  LIG1        0.1404
      3 C          -0.0753    0.2357   -1.3586 C.ar    1  LIG1        0.0673
      4 C          -0.0174   -1.0131   -0.7095 C.ar    1  LIG1        0.1296
      5 O          -0.0997   -2.1592   -1.4543 O.3     1  LIG1       -0.5062
      6 C           0.1206   -1.1184    0.6773 C.ar    1  LIG1        0.0235
      7 C           0.1977    0.0362    1.4506 C.ar    1  LIG1        0.1463
      8 C           0.1403    1.2847    0.8394 C.ar    1  LIG1        0.1058
      9 C           0.2192    2.4728    1.6997 C.ar    1  LIG1        0.1966
     10 O           0.1754    3.6035    1.2334 O.2     1  LIG1       -0.2869
     11 C           0.3459    2.2479    3.1461 C.ar    1  LIG1        0.0288
     12 C           0.3788    0.9916    3.6177 C.ar    1  LIG1        0.1393
     13 O           0.3247   -0.1337    2.8082 O.2     1  LIG1       -0.4544
     14 C           0.4961    0.7066    5.0666 C.ar    1  LIG1        0.0211
     15 C           1.1469   -0.4589    5.5122 C.ar    1  LIG1       -0.0059
     16 C           1.2493   -0.7200    6.8769 C.ar    1  LIG1        0.1589
     17 O           1.8788   -1.8359    7.3569 O.3     1  LIG1       -0.5033
     18 C           0.7081    0.1616    7.8071 C.ar    1  LIG1        0.1583
     19 C           0.0542    1.3091    7.3954 C.ar    1  LIG1       -0.0159
     20 C          -0.0566    1.5761    6.0288 C.ar    1  LIG1       -0.0474
     21 O           0.8148   -0.0989    9.1421 O.3     1  LIG1       -0.5033
     22 C          -0.2161    0.3423   -2.8729 C.3     1  LIG1        0.1193
     23 H          -0.3181    1.3955   -3.1608 H       1  LIG1        0.0676
     24 O          -1.4531   -0.3082   -3.2317 O.3     1  LIG1       -0.3609
     25 C          -1.7160   -0.3071   -4.6418 C.3     1  LIG1        0.1108
     26 H          -1.7590    0.7293   -5.0014 H       1  LIG1        0.0646
     27 C          -3.1029   -0.9267   -4.8536 C.3     1  LIG1        0.0729
     28 O          -3.1548   -2.2546   -4.3361 O.3     1  LIG1       -0.3924
     29 C          -0.6131   -1.0811   -5.3752 C.3     1  LIG1        0.1117
     30 H          -0.5570   -2.1164   -5.0172 H       1  LIG1        0.0647
     31 C           0.7260   -0.3920   -5.1126 C.3     1  LIG1        0.1121
     32 H           0.7440    0.5917   -5.5986 H       1  LIG1        0.0647
     33 C           1.0092   -0.2485   -3.6156 C.3     1  LIG1        0.1139
     34 H           1.2924   -1.2296   -3.2226 H       1  LIG1        0.0649
     35 O           2.1670    0.5919   -3.4661 O.3     1  LIG1       -0.3862
     36 O           1.7968   -1.1325   -5.7258 O.3     1  LIG1       -0.3865
     37 O          -0.8148   -1.1399   -6.7936 O.3     1  LIG1       -0.3865
     38 H           0.0394    3.3174   -0.4866 H       1  LIG1        0.2922
     39 H          -0.0406   -2.9332   -0.8703 H       1  LIG1        0.2922
     40 H           0.1643   -2.0877    1.1645 H       1  LIG1        0.0691
     41 H           0.4095    3.1353    3.7619 H       1  LIG1        0.0693
     42 H           1.5770   -1.1501    4.7932 H       1  LIG1        0.0662
     43 H           2.2105   -2.3505    6.6013 H       1  LIG1        0.2923
     44 H          -0.3696    1.9903    8.1270 H       1  LIG1        0.0655
     45 H          -0.5926    2.4748    5.7317 H       1  LIG1        0.0626
     46 H           1.3040   -0.9441    9.1898 H       1  LIG1        0.2923
     47 H          -3.3740   -0.9517   -5.9134 H       1  LIG1        0.0584
     48 H          -3.8609   -0.3444   -4.3188 H       1  LIG1        0.0584
     49 H          -2.7886   -2.1961   -3.4321 H       1  LIG1        0.2095
     50 H           2.8368    0.2115   -4.0683 H       1  LIG1        0.2100
     51 H           1.4147   -1.5434   -6.5279 H       1  LIG1        0.2100
     52 H          -0.9116   -0.2343   -7.1360 H       1  LIG1        0.2100
@<TRIPOS>BOND
     1     1     2    1
     2     2     3   ar
     3     3     4   ar
     4     4     5    1
     5     4     6   ar
     6     6     7   ar
     7     7     8   ar
     8     2     8   ar
     9     8     9   ar
    10     9    10    2
    11     9    11   ar
    12    11    12   ar
    13    12    13   ar
    14     7    13   ar
    15    12    14    1
    16    14    15   ar
    17    15    16   ar
    18    16    17    1
    19    16    18   ar
    20    18    19   ar
    21    19    20   ar
    22    14    20   ar
    23    18    21    1
    24    22    24    1
    25    24    25    1
    26    25    26    1
    27    25    27    1
    28    27    28    1
    29    25    29    1
    30    29    31    1
    31    31    32    1
    32    31    33    1
    33    22    33    1
    34    31    36    1
    35    33    35    1
    36    33    34    1
    37    22    23    1
    38    22     3    1
    39    29    37    1
    40    29    30    1
    41     1    38    1
    42     5    39    1
    43     6    40    1
    44    11    41    1
    45    15    42    1
    46    17    43    1
    47    19    44    1
    48    20    45    1
    49    21    46    1
    50    27    47    1
    51    27    48    1
    52    28    49    1
    53    35    50    1
    54    36    51    1
    55    37    52    1
