@<TRIPOS>MOLECULE
NuBBE_346
 28 28 0 0 0
SMALL
GASTEIGER

@<TRIPOS>ATOM
      1 O          -0.3680    3.9274    1.4509 O.2     1  LIG1       -0.2797
      2 C          -0.3495    2.7149    1.6130 C.2     1  LIG1        0.2693
      3 C          -0.8612    2.1394    2.9217 C.2     1  LIG1        0.3797
      4 O          -2.1875    1.9133    2.8116 O.3     1  LIG1       -0.4622
      5 C          -2.7905    1.4199    4.0083 C.3     1  LIG1        0.0821
      6 O          -0.1343    1.9011    3.8672 O.2     1  LIG1       -0.2413
      7 C           0.1453    1.7877    0.5610 C.ar    1  LIG1        0.0289
      8 C           0.5439    2.3218   -0.6721 C.ar    1  LIG1       -0.0500
      9 C           0.9881    1.4804   -1.6986 C.ar    1  LIG1       -0.0500
     10 C           1.0400    0.0940   -1.5017 C.ar    1  LIG1        0.0289
     11 C           1.4905   -0.7764   -2.6214 C.2     1  LIG1        0.2693
     12 C           1.5460   -2.2801   -2.3942 C.2     1  LIG1        0.3797
     13 O           0.5619   -2.8765   -3.0986 O.3     1  LIG1       -0.4622
     14 C           0.4917   -4.2886   -2.9029 C.3     1  LIG1        0.0821
     15 O           2.3237   -2.7972   -1.6127 O.2     1  LIG1       -0.2413
     16 O           1.7995   -0.3217   -3.7160 O.2     1  LIG1       -0.2797
     17 C           0.6546   -0.4363   -0.2638 C.ar    1  LIG1       -0.0500
     18 C           0.2115    0.4054    0.7639 C.ar    1  LIG1       -0.0500
     19 H          -3.8281    1.1587    3.7819 H       1  LIG1        0.0661
     20 H          -2.7878    2.1989    4.7767 H       1  LIG1        0.0661
     21 H          -2.2800    0.5203    4.3668 H       1  LIG1        0.0661
     22 H           0.5065    3.3975   -0.8438 H       1  LIG1        0.0625
     23 H           1.2882    1.9155   -2.6516 H       1  LIG1        0.0625
     24 H          -0.3441   -4.6730   -3.4940 H       1  LIG1        0.0661
     25 H           0.3051   -4.5222   -1.8498 H       1  LIG1        0.0661
     26 H           1.4126   -4.7695   -3.2479 H       1  LIG1        0.0661
     27 H           0.6920   -1.5052   -0.0647 H       1  LIG1        0.0625
     28 H          -0.0702   -0.0497    1.7107 H       1  LIG1        0.0625
@<TRIPOS>BOND
     1     1     2    2
     2     2     3    1
     3     3     4    1
     4     4     5    1
     5     3     6    2
     6     2     7    1
     7     7     8   ar
     8     8     9   ar
     9     9    10   ar
    10    10    11    1
    11    11    12    1
    12    12    13    1
    13    13    14    1
    14    12    15    2
    15    11    16    2
    16    10    17   ar
    17    17    18   ar
    18     7    18   ar
    19     5    19    1
    20     5    20    1
    21     5    21    1
    22     8    22    1
    23     9    23    1
    24    14    24    1
    25    14    25    1
    26    14    26    1
    27    17    27    1
    28    18    28    1
