REMARK  Name = NuBBE_251
REMARK  6 active torsions:
REMARK  status: ('A' for Active; 'I' for Inactive)
REMARK    1  A    between atoms: O_1  and  C_2
REMARK    2  A    between atoms: C_4  and  O_5
REMARK    3  A    between atoms: C_6  and  C_7
REMARK    4  A    between atoms: C_10  and  C_11
REMARK    5  A    between atoms: C_12  and  C_13
REMARK    6  A    between atoms: C_14  and  C_15
REMARK                            x       y       z     vdW  Elec       q    Type
REMARK                         _______ _______ _______ _____ _____    ______ ____
ROOT
ATOM      1  C   LIG A   1      -2.328   1.974   0.284  0.00  0.00    +0.121 A 
ATOM      2  C   LIG A   1      -1.764   3.238   0.240  0.00  0.00    +0.091 A 
ATOM      3  C   LIG A   1      -0.373   3.352   0.219  0.00  0.00    +0.131 A 
ATOM      4  C   LIG A   1       0.460   2.212   0.246  0.00  0.00    +0.063 A 
ATOM      5  C   LIG A   1      -0.120   0.923   0.285  0.00  0.00    -0.008 A 
ATOM      6  C   LIG A   1      -1.527   0.837   0.312  0.00  0.00    +0.054 A 
ENDROOT
BRANCH   1   7
ATOM      7  O   LIG A   1      -3.678   1.789   0.303  0.00  0.00    -0.507 OA
ATOM      8  H   LIG A   1      -4.126   2.650   0.284  0.00  0.00    +0.292 HD
ENDBRANCH   1   7
BRANCH   3   9
ATOM      9  O   LIG A   1       0.182   4.605   0.168  0.00  0.00    -0.506 OA
ATOM     10  H   LIG A   1      -0.520   5.277   0.121  0.00  0.00    +0.292 HD
ENDBRANCH   3   9
BRANCH   4  11
ATOM     11  C   LIG A   1       1.932   2.458   0.203  0.00  0.00    +0.263 C 
ATOM     12  O   LIG A   1       2.791   1.588   0.220  0.00  0.00    -0.296 OA
ENDBRANCH   4  11
BRANCH   5  13
ATOM     13  C   LIG A   1       0.661  -0.332   0.348  0.00  0.00    +0.009 C 
ATOM     14  C   LIG A   1       0.250  -1.504  -0.164  0.00  0.00    +0.000 C 
BRANCH  14  15
ATOM     15  C   LIG A   1       1.037  -2.714  -0.108  0.00  0.00    -0.004 C 
ATOM     16  C   LIG A   1       0.609  -3.865  -0.647  0.00  0.00    -0.030 C 
ATOM     17  C   LIG A   1       1.386  -5.139  -0.617  0.00  0.00    +0.035 C 
ENDBRANCH  14  15
ENDBRANCH   5  13
TORSDOF 5
