@<TRIPOS>MOLECULE
NuBBE_1576
 53 56 0 0 0
SMALL
GASTEIGER

@<TRIPOS>ATOM
      1 C          -2.4289   -0.5726    1.2461 C.3     1  LIG1       -0.0589
      2 C          -0.9997    0.0413    1.1139 C.3     1  LIG1       -0.0227
      3 C          -0.7448    0.5065   -0.3548 C.3     1  LIG1       -0.0221
      4 H           0.2960    0.8393   -0.3987 H       1  LIG1        0.0314
      5 C          -0.8864   -0.6650   -1.4029 C.3     1  LIG1        0.0082
      6 H          -1.9645   -0.7468   -1.6228 H       1  LIG1        0.0341
      7 C          -0.2402   -0.2647   -2.7773 C.3     1  LIG1        0.0899
      8 H          -0.5143   -0.9986   -3.5462 H       1  LIG1        0.0467
      9 C           1.2877   -0.2650   -2.6888 C.2     1  LIG1        0.3127
     10 O           1.9300   -1.2964   -2.5122 O.2     1  LIG1       -0.2503
     11 O           1.9155    0.9277   -2.7498 O.3     1  LIG1       -0.4802
     12 C          -0.8126    1.0597   -3.1952 C.ar    1  LIG1        0.0076
     13 C          -1.3771    1.9290   -2.2875 C.ar    1  LIG1        0.1091
     14 C          -1.5772    1.7415   -0.8271 C.3     1  LIG1        0.0095
     15 O          -1.8027    3.0612   -2.8910 O.2     1  LIG1       -0.4675
     16 C          -1.5287    2.9098   -4.2164 C.ar    1  LIG1        0.0924
     17 C          -0.9236    1.6936   -4.4561 C.ar    1  LIG1       -0.0197
     18 C          -0.5215   -2.0541   -0.8462 C.3     1  LIG1        0.0855
     19 H          -1.4408   -2.5576   -0.5318 H       1  LIG1        0.0622
     20 C           0.4300   -2.0430    0.3564 C.3     1  LIG1        0.0851
     21 H           1.4348   -1.8865   -0.0306 H       1  LIG1        0.0622
     22 C           0.0988   -1.0392    1.5042 C.3     1  LIG1       -0.0017
     23 H          -0.3706   -1.6251    2.3102 H       1  LIG1        0.0337
     24 C           1.4434   -0.4820    2.1708 C.3     1  LIG1       -0.0291
     25 C           2.1226   -1.6190    2.9764 C.3     1  LIG1       -0.0595
     26 C           2.5123    0.0428    1.1778 C.3     1  LIG1       -0.0595
     27 C           1.1337    0.6549    3.1674 C.3     1  LIG1       -0.0475
     28 C           0.3208    1.7667    2.5290 C.3     1  LIG1       -0.0521
     29 C          -1.0321    1.2185    2.1318 C.3     1  LIG1       -0.0470
     30 O           0.4596   -3.3702    0.9079 O.3     1  LIG1       -0.3889
     31 O          -0.0218   -2.9333   -1.8617 O.3     1  LIG1       -0.3889
     32 H          -2.6410   -1.3860    0.5561 H       1  LIG1        0.0235
     33 H          -3.2012    0.1872    1.0807 H       1  LIG1        0.0235
     34 H          -2.5883   -0.9737    2.2545 H       1  LIG1        0.0235
     35 H           1.3415    1.7075   -2.8848 H       1  LIG1        0.2951
     36 H          -2.6439    1.5923   -0.6329 H       1  LIG1        0.0346
     37 H          -1.2532    2.6458   -0.3019 H       1  LIG1        0.0346
     38 H          -1.8247    3.7362   -4.8485 H       1  LIG1        0.1029
     39 H          -0.6089    1.3218   -5.4224 H       1  LIG1        0.0652
     40 H           1.4362   -2.0495    3.7139 H       1  LIG1        0.0235
     41 H           2.9983   -1.2473    3.5217 H       1  LIG1        0.0235
     42 H           2.4681   -2.4277    2.3247 H       1  LIG1        0.0235
     43 H           2.1233    0.7871    0.4836 H       1  LIG1        0.0235
     44 H           2.9747   -0.7563    0.5914 H       1  LIG1        0.0235
     45 H           3.3376    0.5222    1.7196 H       1  LIG1        0.0235
     46 H           2.0625    1.0776    3.5717 H       1  LIG1        0.0271
     47 H           0.5849    0.2549    4.0307 H       1  LIG1        0.0271
     48 H           0.1816    2.5726    3.2593 H       1  LIG1        0.0266
     49 H           0.8334    2.2095    1.6698 H       1  LIG1        0.0266
     50 H          -1.6640    2.0374    1.7716 H       1  LIG1        0.0271
     51 H          -1.5218    0.8791    3.0567 H       1  LIG1        0.0271
     52 H           0.4980   -3.9807    0.1456 H       1  LIG1        0.2099
     53 H           0.9093   -2.6832   -2.0557 H       1  LIG1        0.2099
@<TRIPOS>BOND
     1     2     3    1
     2     3     5    1
     3     5     7    1
     4     9    10    2
     5     9    11    1
     6     7    12    1
     7    12    13   ar
     8    13    14    1
     9     3    14    1
    10    13    15   ar
    11    15    16   ar
    12    16    17   ar
    13    12    17   ar
    14     5    18    1
    15    18    20    1
    16    20    22    1
    17     2    22    1
    18    22    24    1
    19    24    27    1
    20    27    28    1
    21    28    29    1
    22     2    29    1
    23     1     2    1
    24     3     4    1
    25     5     6    1
    26    20    21    1
    27    20    30    1
    28    22    23    1
    29    24    25    1
    30    24    26    1
    31     7     9    1
    32     7     8    1
    33    18    31    1
    34    18    19    1
    35     1    32    1
    36     1    33    1
    37     1    34    1
    38    11    35    1
    39    14    36    1
    40    14    37    1
    41    16    38    1
    42    17    39    1
    43    25    40    1
    44    25    41    1
    45    25    42    1
    46    26    43    1
    47    26    44    1
    48    26    45    1
    49    27    46    1
    50    27    47    1
    51    28    48    1
    52    28    49    1
    53    29    50    1
    54    29    51    1
    55    30    52    1
    56    31    53    1
