@<TRIPOS>MOLECULE
NuBBE_1191
 60 64 0 0 0
SMALL
GASTEIGER

@<TRIPOS>ATOM
      1 O           3.7147   -2.0357   -3.2144 O.3     1  LIG1       -0.3841
      2 C           3.2878   -0.6806   -3.3514 C.3     1  LIG1        0.1097
      3 C           4.2802    0.0580   -4.2399 C.2     1  LIG1       -0.0484
      4 C           4.4913   -0.4589   -5.6399 C.3     1  LIG1       -0.0415
      5 C           4.9521    1.1256   -3.8045 C.2     1  LIG1       -0.0972
      6 C           1.8240   -0.6811   -3.8280 C.3     1  LIG1        0.1194
      7 O           1.3290    0.6349   -4.0446 O.3     1  LIG1       -0.4854
      8 C           0.7126    1.3252   -3.0437 C.ar    1  LIG1        0.1624
      9 C           0.4978    0.7969   -1.7640 C.ar    1  LIG1       -0.0106
     10 C          -0.2302    1.4887   -0.7844 C.ar    1  LIG1       -0.0149
     11 C          -0.3842    0.8539    0.5826 C.3     1  LIG1        0.0891
     12 H           0.5430    0.3096    0.8044 H       1  LIG1        0.0650
     13 C          -1.6062   -0.0624    0.7292 C.3     1  LIG1        0.0205
     14 H          -2.3942    0.1812    0.0082 H       1  LIG1        0.0356
     15 C          -2.0328    0.1719    2.1568 C.3     1  LIG1        0.0205
     16 H          -3.1058    0.0105    2.3091 H       1  LIG1        0.0356
     17 C          -1.6527    1.6144    2.3867 C.3     1  LIG1        0.0544
     18 O          -0.4860    1.8681    1.5999 O.3     1  LIG1       -0.3712
     19 C          -1.1910   -0.8334    2.9558 C.3     1  LIG1        0.0891
     20 H          -0.2933   -0.3751    3.3893 H       1  LIG1        0.0650
     21 O          -0.7165   -1.8231    2.0143 O.3     1  LIG1       -0.3712
     22 C          -1.2692   -1.5342    0.7245 C.3     1  LIG1        0.0544
     23 C          -1.9848   -1.4996    4.0655 C.ar    1  LIG1       -0.0149
     24 C          -2.0437   -0.9101    5.3416 C.ar    1  LIG1       -0.0105
     25 C          -2.8009   -1.5323    6.3155 C.ar    1  LIG1        0.1666
     26 C          -3.4893   -2.6961    6.0690 C.ar    1  LIG1        0.1662
     27 O          -4.1756   -3.1379    7.1560 O.3     1  LIG1       -0.4526
     28 C          -3.8561   -2.1081    8.1133 C.3     1  LIG1        0.2332
     29 O          -2.9669   -1.0961    7.5938 O.3     1  LIG1       -0.4526
     30 C          -3.4582   -3.3066    4.8370 C.ar    1  LIG1       -0.0158
     31 C          -2.7018   -2.6986    3.8309 C.ar    1  LIG1       -0.0524
     32 C          -0.7638    2.7375   -1.1164 C.ar    1  LIG1       -0.0524
     33 C          -0.5309    3.2926   -2.3814 C.ar    1  LIG1       -0.0160
     34 C           0.2284    2.6088   -3.3415 C.ar    1  LIG1        0.1615
     35 O           0.3453    3.2600   -4.5461 O.3     1  LIG1       -0.4915
     36 C           1.5883    3.1270   -5.2340 C.3     1  LIG1        0.0790
     37 H           4.5844   -2.0069   -2.7801 H       1  LIG1        0.2104
     38 H           3.3138   -0.2373   -2.3491 H       1  LIG1        0.0674
     39 H           5.0659   -1.3900   -5.6221 H       1  LIG1        0.0275
     40 H           5.0461    0.2617   -6.2540 H       1  LIG1        0.0275
     41 H           3.5406   -0.6403   -6.1468 H       1  LIG1        0.0275
     42 H           4.8202    1.5229   -2.7986 H       1  LIG1        0.0535
     43 H           5.6675    1.6537   -4.4374 H       1  LIG1        0.0535
     44 H           1.1938   -1.2590   -3.1429 H       1  LIG1        0.0726
     45 H           1.7268   -1.2264   -4.7738 H       1  LIG1        0.0726
     46 H           0.8946   -0.1727   -1.4867 H       1  LIG1        0.0659
     47 H          -1.4465    1.8569    3.4322 H       1  LIG1        0.0564
     48 H          -2.4391    2.2842    2.0224 H       1  LIG1        0.0564
     49 H          -2.1722   -2.1446    0.6075 H       1  LIG1        0.0564
     50 H          -0.5562   -1.8263   -0.0509 H       1  LIG1        0.0564
     51 H          -1.5117    0.0069    5.5730 H       1  LIG1        0.0659
     52 H          -3.3884   -2.5749    8.9877 H       1  LIG1        0.1166
     53 H          -4.7880   -1.6251    8.4299 H       1  LIG1        0.1166
     54 H          -4.0000   -4.2269    4.6523 H       1  LIG1        0.0655
     55 H          -2.6641   -3.1721    2.8521 H       1  LIG1        0.0622
     56 H          -1.3438    3.3011   -0.3886 H       1  LIG1        0.0622
     57 H          -0.9400    4.2734   -2.6166 H       1  LIG1        0.0655
     58 H           1.8112    2.1069   -5.5470 H       1  LIG1        0.0660
     59 H           2.4114    3.5445   -4.6451 H       1  LIG1        0.0660
     60 H           1.5133    3.6952   -6.1668 H       1  LIG1        0.0660
@<TRIPOS>BOND
     1     1     2    1
     2     2     3    1
     3     3     4    1
     4     3     5    2
     5     2     6    1
     6     6     7    1
     7     7     8    1
     8     8     9   ar
     9     9    10   ar
    10    11    13    1
    11    13    14    1
    12    13    15    1
    13    15    16    1
    14    15    17    1
    15    17    18    1
    16    11    18    1
    17    15    19    1
    18    19    20    1
    19    19    21    1
    20    21    22    1
    21    13    22    1
    22    19    23    1
    23    23    24   ar
    24    24    25   ar
    25    25    26   ar
    26    26    27    1
    27    27    28    1
    28    28    29    1
    29    25    29    1
    30    26    30   ar
    31    30    31   ar
    32    23    31   ar
    33    10    32   ar
    34    32    33   ar
    35    33    34   ar
    36     8    34   ar
    37    34    35    1
    38    35    36    1
    39    11    12    1
    40    11    10    1
    41     1    37    1
    42     2    38    1
    43     4    39    1
    44     4    40    1
    45     4    41    1
    46     5    42    1
    47     5    43    1
    48     6    44    1
    49     6    45    1
    50     9    46    1
    51    17    47    1
    52    17    48    1
    53    22    49    1
    54    22    50    1
    55    24    51    1
    56    28    52    1
    57    28    53    1
    58    30    54    1
    59    31    55    1
    60    32    56    1
    61    33    57    1
    62    36    58    1
    63    36    59    1
    64    36    60    1
