REMARK  Name = NuBBE_1589
REMARK  5 active torsions:
REMARK  status: ('A' for Active; 'I' for Inactive)
REMARK    1  A    between atoms: C_6  and  C_7
REMARK    2  A    between atoms: C_18  and  O_19
REMARK    3  A    between atoms: O_19  and  C_20
REMARK    4  A    between atoms: C_24  and  C_25
REMARK    5  A    between atoms: C_24  and  C_26
REMARK                            x       y       z     vdW  Elec       q    Type
REMARK                         _______ _______ _______ _____ _____    ______ ____
ROOT
ATOM      1  O   LIG A   1      -1.594  -0.026   2.533  0.00  0.00    -0.287 OA
ATOM      2  C   LIG A   1      -0.875  -0.284   1.578  0.00  0.00    +0.197 A 
ATOM      3  C   LIG A   1      -0.401   0.707   0.584  0.00  0.00    +0.106 A 
ATOM      4  C   LIG A   1       0.375   0.237  -0.475  0.00  0.00    +0.146 A 
ATOM      5  O   LIG A   1       0.727  -1.083  -0.631  0.00  0.00    -0.454 OA
ATOM      6  C   LIG A   1       0.320  -1.999   0.325  0.00  0.00    +0.139 A 
ATOM      7  C   LIG A   1      -0.441  -1.677   1.379  0.00  0.00    +0.098 A 
ATOM      8  C   LIG A   1       0.848   1.113  -1.456  0.00  0.00    +0.093 A 
ATOM      9  C   LIG A   1       0.554   2.477  -1.384  0.00  0.00    +0.134 A 
ATOM     10  C   LIG A   1      -0.226   2.963  -0.311  0.00  0.00    +0.059 A 
ATOM     11  C   LIG A   1      -0.704   2.075   0.669  0.00  0.00    +0.147 A 
ATOM     12  O   LIG A   1      -1.435   2.498   1.743  0.00  0.00    -0.481 OA
ATOM     13  C   LIG A   1      -1.963   3.833   1.788  0.00  0.00    +0.123 C 
ATOM     14  C   LIG A   1      -3.474   3.732   1.549  0.00  0.00    +0.060 C 
ATOM     15  C   LIG A   1      -1.698   4.339   3.210  0.00  0.00    +0.060 C 
ATOM     16  C   LIG A   1      -1.351   4.785   0.794  0.00  0.00    +0.020 C 
ATOM     17  C   LIG A   1      -0.535   4.387  -0.185  0.00  0.00    +0.015 C 
ENDROOT
BRANCH   6  18
ATOM     18  C   LIG A   1       0.772  -3.389   0.079  0.00  0.00    +0.021 A 
ATOM     19  C   LIG A   1       1.058  -4.273   1.150  0.00  0.00    +0.015 A 
ATOM     20  C   LIG A   1       1.489  -5.586   0.922  0.00  0.00    +0.050 A 
ATOM     21  C   LIG A   1       1.639  -5.992  -0.383  0.00  0.00    +0.166 A 
ATOM     22  O   LIG A   1       2.051  -7.221  -0.791  0.00  0.00    -0.453 OA
ATOM     23  C   LIG A   1       2.017  -7.056  -2.224  0.00  0.00    +0.466 C 
ATOM     24  O   LIG A   1       1.593  -5.740  -2.639  0.00  0.00    -0.453 OA
ATOM     25  C   LIG A   1       1.379  -5.147  -1.434  0.00  0.00    +0.167 A 
ATOM     26  C   LIG A   1       0.949  -3.849  -1.238  0.00  0.00    +0.061 A 
ENDBRANCH   6  18
BRANCH   9  27
ATOM     27  O   LIG A   1       0.979   3.405  -2.302  0.00  0.00    -0.494 OA
ATOM     28  C   LIG A   1       1.770   2.951  -3.393  0.00  0.00    +0.277 C 
ENDBRANCH   9  27
TORSDOF 2
