REMARK  Name = NuBBE_2302
REMARK  5 active torsions:
REMARK  status: ('A' for Active; 'I' for Inactive)
REMARK    1  A    between atoms: C_1  and  O_29
REMARK    2  A    between atoms: C_15  and  C_17
REMARK    3  A    between atoms: C_21  and  O_27
REMARK    4  A    between atoms: O_27  and  C_28
REMARK    5  A    between atoms: O_29  and  C_30
REMARK                            x       y       z     vdW  Elec       q    Type
REMARK                         _______ _______ _______ _____ _____    ______ ____
ROOT
ATOM      1  C   LIG A   1      -3.741  -0.979   0.449  0.00  0.00    +0.142 A 
ATOM      2  C   LIG A   1      -4.309  -0.003   1.269  0.00  0.00    +0.047 A 
ATOM      3  C   LIG A   1      -3.619   1.183   1.553  0.00  0.00    +0.004 A 
ATOM      4  C   LIG A   1      -2.346   1.409   1.023  0.00  0.00    +0.006 A 
ATOM      5  C   LIG A   1      -1.787   0.447   0.188  0.00  0.00    -0.013 A 
ATOM      6  C   LIG A   1      -0.411   0.441  -0.504  0.00  0.00    +0.037 C 
ATOM      7  C   LIG A   1       0.714   0.986   0.373  0.00  0.00    +0.078 C 
ATOM      8  C   LIG A   1       1.958   0.095   0.584  0.00  0.00    +0.013 C 
ATOM      9  C   LIG A   1       1.408  -1.162   1.298  0.00  0.00    +0.013 C 
ATOM     10  C   LIG A   1       0.182  -1.800   0.583  0.00  0.00    +0.028 C 
ATOM     11  C   LIG A   1      -0.289  -1.092  -0.767  0.00  0.00    +0.053 C 
ATOM     12  N   LIG A   1      -1.742  -1.499  -1.046  0.00  0.00    -0.261 N 
ATOM     13  C   LIG A   1      -2.506  -0.715  -0.135  0.00  0.00    +0.083 A 
ATOM     14  C   LIG A   1      -2.229  -1.708  -2.349  0.00  0.00    +0.217 C 
ATOM     15  O   LIG A   1      -1.508  -1.793  -3.342  0.00  0.00    -0.276 OA
ATOM     16  C   LIG A   1      -3.717  -1.856  -2.566  0.00  0.00    +0.110 C 
ATOM     17  C   LIG A   1       0.703  -1.515  -1.870  0.00  0.00    +0.027 C 
ATOM     18  C   LIG A   1       2.167  -1.559  -1.479  0.00  0.00    +0.003 C 
ATOM     19  C   LIG A   1       2.686  -0.338  -0.736  0.00  0.00    +0.011 C 
ATOM     20  C   LIG A   1       2.970   0.944   1.505  0.00  0.00    +0.127 C 
ATOM     21  C   LIG A   1       2.420   2.351   1.861  0.00  0.00    +0.047 C 
ATOM     22  C   LIG A   1       1.860   3.107   0.638  0.00  0.00    +0.087 C 
ATOM     23  N   LIG A   1       1.172   2.208  -0.267  0.00  0.00    -0.298 NA
ATOM     24  C   LIG A   1       0.118   2.724  -1.115  0.00  0.00    +0.086 C 
ATOM     25  C   LIG A   1      -0.457   1.425  -1.691  0.00  0.00    +0.030 C 
ENDROOT
BRANCH  20  26
ATOM     26  O   LIG A   1       4.251   1.067   0.860  0.00  0.00    -0.379 OA
ATOM     27  C   LIG A   1       5.281   1.664   1.630  0.00  0.00    +0.194 C 
ENDBRANCH  20  26
BRANCH   1  28
ATOM     28  O   LIG A   1      -4.457  -2.130   0.295  0.00  0.00    -0.493 OA
ATOM     29  C   LIG A   1      -3.736  -3.301   0.682  0.00  0.00    +0.277 C 
ENDBRANCH   1  28
TORSDOF 2
