@<TRIPOS>MOLECULE
NuBBE_1760
 59 60 0 0 0
SMALL
GASTEIGER

@<TRIPOS>ATOM
      1 O          -1.3349    0.3192   -5.1324 O.2     1  LIG1       -0.2450
      2 C          -0.4436    0.6669   -4.3605 C.2     1  LIG1        0.3389
      3 O           0.2765    1.8053   -4.4167 O.3     1  LIG1       -0.4645
      4 C          -0.0078    2.6934   -5.4953 C.3     1  LIG1        0.0820
      5 C          -0.0100   -0.1008   -3.1604 C.ar    1  LIG1        0.0597
      6 C          -0.6375   -1.3262   -2.8546 C.ar    1  LIG1       -0.0408
      7 C          -0.3581   -2.0134   -1.6547 C.ar    1  LIG1       -0.0009
      8 C          -1.0486   -3.3085   -1.2916 C.3     1  LIG1       -0.0058
      9 C          -2.4535   -3.4113   -1.8352 C.2     1  LIG1       -0.0809
     10 C          -2.9506   -4.3372   -2.6796 C.2     1  LIG1       -0.0793
     11 C          -2.1825   -5.5065   -3.2299 C.3     1  LIG1       -0.0440
     12 C          -4.3731   -4.2474   -3.1704 C.3     1  LIG1       -0.0440
     13 C           0.5914   -1.4438   -0.8141 C.ar    1  LIG1        0.1278
     14 O           0.9301   -1.9120    0.4324 O.3     1  LIG1       -0.4851
     15 C           1.6672   -0.8094    1.0618 C.3     1  LIG1        0.1325
     16 C           2.1654    0.1286   -0.0479 C.3     1  LIG1        0.0157
     17 C           0.7739   -0.1378    2.1639 C.3     1  LIG1        0.1005
     18 C          -0.5424    0.4239    1.6034 C.3     1  LIG1       -0.0326
     19 O           0.4038   -1.1684    3.1003 O.3     1  LIG1       -0.3852
     20 C           1.5938    0.9275    2.9484 C.3     1  LIG1       -0.0173
     21 C           0.8522    1.5903    4.1202 C.3     1  LIG1       -0.0318
     22 C           1.6813    2.6039    4.8786 C.2     1  LIG1       -0.0852
     23 C           1.7190    3.9430    4.7101 C.2     1  LIG1       -0.0796
     24 C           1.0384    4.7017    3.6041 C.3     1  LIG1       -0.0440
     25 C           2.4840    4.8272    5.6638 C.3     1  LIG1       -0.0440
     26 C           1.2413   -0.2637   -1.1316 C.ar    1  LIG1       -0.0011
     27 C           0.9696    0.4146   -2.2997 C.ar    1  LIG1       -0.0410
     28 H           0.3517    3.6846   -5.2056 H       1  LIG1        0.0661
     29 H          -1.0801    2.7604   -5.6997 H       1  LIG1        0.0661
     30 H           0.5437    2.3670   -6.3802 H       1  LIG1        0.0661
     31 H          -1.3810   -1.7195   -3.5485 H       1  LIG1        0.0630
     32 H          -1.1226   -3.3921   -0.2001 H       1  LIG1        0.0357
     33 H          -0.4110   -4.1324   -1.6228 H       1  LIG1        0.0357
     34 H          -3.1138   -2.6085   -1.5031 H       1  LIG1        0.0575
     35 H          -1.1221   -5.4955   -2.9727 H       1  LIG1        0.0274
     36 H          -2.2423   -5.5179   -4.3231 H       1  LIG1        0.0274
     37 H          -2.6053   -6.4415   -2.8486 H       1  LIG1        0.0274
     38 H          -4.8736   -3.3325   -2.8358 H       1  LIG1        0.0274
     39 H          -4.9536   -5.1023   -2.8101 H       1  LIG1        0.0274
     40 H          -4.3960   -4.2486   -4.2658 H       1  LIG1        0.0274
     41 H           2.5321   -1.2680    1.5584 H       1  LIG1        0.0765
     42 H           3.1962   -0.1041   -0.3347 H       1  LIG1        0.0351
     43 H           2.0894    1.1908    0.1927 H       1  LIG1        0.0351
     44 H          -1.1272   -0.3577    1.1042 H       1  LIG1        0.0258
     45 H          -0.3754    1.2409    0.8961 H       1  LIG1        0.0258
     46 H          -1.1974    0.7855    2.4023 H       1  LIG1        0.0258
     47 H          -0.0336   -1.8702    2.5794 H       1  LIG1        0.2103
     48 H           1.9351    1.7150    2.2691 H       1  LIG1        0.0297
     49 H           2.4929    0.4380    3.3482 H       1  LIG1        0.0297
     50 H           0.5422    0.8193    4.8374 H       1  LIG1        0.0308
     51 H          -0.0681    2.0689    3.7736 H       1  LIG1        0.0308
     52 H           2.2403    2.1782    5.7128 H       1  LIG1        0.0571
     53 H           0.8064    4.0721    2.7415 H       1  LIG1        0.0274
     54 H           1.6951    5.5027    3.2421 H       1  LIG1        0.0274
     55 H           0.1162    5.1666    3.9664 H       1  LIG1        0.0274
     56 H           2.9819    4.2597    6.4562 H       1  LIG1        0.0274
     57 H           1.8033    5.5402    6.1432 H       1  LIG1        0.0274
     58 H           3.2508    5.3942    5.1257 H       1  LIG1        0.0274
     59 H           1.4805    1.3473   -2.5107 H       1  LIG1        0.0630
@<TRIPOS>BOND
     1     1     2    2
     2     2     3    1
     3     3     4    1
     4     2     5    1
     5     5     6   ar
     6     6     7   ar
     7     7     8    1
     8     8     9    1
     9     9    10    2
    10    10    11    1
    11    10    12    1
    12     7    13   ar
    13    13    14    1
    14    14    15    1
    15    15    16    1
    16    15    17    1
    17    17    18    1
    18    17    19    1
    19    17    20    1
    20    20    21    1
    21    21    22    1
    22    22    23    2
    23    23    24    1
    24    23    25    1
    25    13    26   ar
    26    16    26    1
    27    26    27   ar
    28     5    27   ar
    29     4    28    1
    30     4    29    1
    31     4    30    1
    32     6    31    1
    33     8    32    1
    34     8    33    1
    35     9    34    1
    36    11    35    1
    37    11    36    1
    38    11    37    1
    39    12    38    1
    40    12    39    1
    41    12    40    1
    42    15    41    1
    43    16    42    1
    44    16    43    1
    45    18    44    1
    46    18    45    1
    47    18    46    1
    48    19    47    1
    49    20    48    1
    50    20    49    1
    51    21    50    1
    52    21    51    1
    53    22    52    1
    54    24    53    1
    55    24    54    1
    56    24    55    1
    57    25    56    1
    58    25    57    1
    59    25    58    1
    60    27    59    1
