@<TRIPOS>MOLECULE
NuBBE_2174
 49 51 0 0 0
SMALL
GASTEIGER

@<TRIPOS>ATOM
      1 O          -2.0443    1.1409    0.4595 O.2     1  LIG1       -0.2864
      2 C          -0.8483    0.9168    0.3497 C.ar    1  LIG1        0.2001
      3 C          -0.3646   -0.4052   -0.1033 C.ar    1  LIG1        0.0648
      4 C          -1.2752   -1.4075   -0.4339 C.ar    1  LIG1       -0.0439
      5 C          -0.8127   -2.6517   -0.8688 C.ar    1  LIG1       -0.0190
      6 C           0.5550   -2.8933   -0.9993 C.ar    1  LIG1        0.1245
      7 O           1.1132   -4.0548   -1.4727 O.3     1  LIG1       -0.4878
      8 C           0.2379   -5.1760   -1.6045 C.3     1  LIG1        0.1080
      9 C           0.9102   -6.2042   -2.4614 C.2     1  LIG1       -0.0484
     10 C           1.1806   -7.4869   -2.1533 C.2     1  LIG1       -0.0765
     11 C           0.9213   -8.1216   -0.8160 C.3     1  LIG1       -0.0439
     12 C           1.7771   -8.4123   -3.1799 C.3     1  LIG1       -0.0439
     13 C           1.4653   -1.8782   -0.6592 C.ar    1  LIG1        0.0231
     14 C           1.0005   -0.6397   -0.2028 C.ar    1  LIG1        0.1419
     15 O           1.9331    0.3141    0.1363 O.2     1  LIG1       -0.4620
     16 C           1.4717    1.5459    0.5500 C.ar    1  LIG1        0.1038
     17 C           0.1909    1.9316    0.6657 C.ar    1  LIG1        0.0644
     18 C          -0.1738    3.2891    1.1159 C.ar    1  LIG1       -0.0076
     19 C          -0.3511    4.3388    0.2023 C.ar    1  LIG1       -0.0084
     20 C          -0.7235    5.6313    0.6265 C.ar    1  LIG1        0.1621
     21 O          -0.7855    6.5459   -0.3971 O.3     1  LIG1       -0.4914
     22 C          -1.7394    7.5973   -0.2896 C.3     1  LIG1        0.0790
     23 C          -0.8913    5.8903    1.9970 C.ar    1  LIG1        0.1615
     24 O          -1.2419    7.1515    2.3967 O.3     1  LIG1       -0.4915
     25 C          -0.7987    7.5731    3.6817 C.3     1  LIG1        0.0790
     26 C          -0.7216    4.8384    2.9070 C.ar    1  LIG1       -0.0157
     27 C          -0.3618    3.5550    2.4739 C.ar    1  LIG1       -0.0501
     28 H          -2.3462   -1.2277   -0.3630 H       1  LIG1        0.0627
     29 H          -1.5655   -3.3962   -1.1128 H       1  LIG1        0.0654
     30 H          -0.6848   -4.9149   -2.1333 H       1  LIG1        0.0742
     31 H          -0.0176   -5.5459   -0.6084 H       1  LIG1        0.0742
     32 H           1.1460   -5.8444   -3.4629 H       1  LIG1        0.0605
     33 H           0.6358   -7.4071   -0.0414 H       1  LIG1        0.0274
     34 H           1.8256   -8.6242   -0.4586 H       1  LIG1        0.0274
     35 H           0.1191   -8.8614   -0.9001 H       1  LIG1        0.0274
     36 H           1.8586   -7.9430   -4.1662 H       1  LIG1        0.0274
     37 H           1.1505   -9.3035   -3.2922 H       1  LIG1        0.0274
     38 H           2.7790   -8.7251   -2.8707 H       1  LIG1        0.0274
     39 H           2.5336   -2.0637   -0.7547 H       1  LIG1        0.0691
     40 H           2.3171    2.1876    0.7786 H       1  LIG1        0.1037
     41 H          -0.2148    4.1602   -0.8625 H       1  LIG1        0.0661
     42 H          -1.4978    8.3117    0.4998 H       1  LIG1        0.0660
     43 H          -2.7548    7.2029   -0.1810 H       1  LIG1        0.0660
     44 H          -1.7008    8.1695   -1.2229 H       1  LIG1        0.0660
     45 H          -1.0574    8.6315    3.7920 H       1  LIG1        0.0660
     46 H           0.2886    7.4823    3.7745 H       1  LIG1        0.0660
     47 H          -1.3124    7.0329    4.4819 H       1  LIG1        0.0660
     48 H          -0.8794    4.9838    3.9706 H       1  LIG1        0.0655
     49 H          -0.2453    2.7657    3.2132 H       1  LIG1        0.0625
@<TRIPOS>BOND
     1     1     2    2
     2     2     3   ar
     3     3     4   ar
     4     4     5   ar
     5     5     6   ar
     6     6     7    1
     7     7     8    1
     8     8     9    1
     9     9    10    2
    10    10    11    1
    11    10    12    1
    12     6    13   ar
    13    13    14   ar
    14     3    14   ar
    15    14    15   ar
    16    15    16   ar
    17    16    17   ar
    18     2    17   ar
    19    17    18    1
    20    18    19   ar
    21    19    20   ar
    22    20    21    1
    23    21    22    1
    24    20    23   ar
    25    23    24    1
    26    24    25    1
    27    23    26   ar
    28    26    27   ar
    29    18    27   ar
    30     4    28    1
    31     5    29    1
    32     8    30    1
    33     8    31    1
    34     9    32    1
    35    11    33    1
    36    11    34    1
    37    11    35    1
    38    12    36    1
    39    12    37    1
    40    12    38    1
    41    13    39    1
    42    16    40    1
    43    19    41    1
    44    22    42    1
    45    22    43    1
    46    22    44    1
    47    25    45    1
    48    25    46    1
    49    25    47    1
    50    26    48    1
    51    27    49    1
