@<TRIPOS>MOLECULE
NuBBE_828
 60 62 0 0 0
SMALL
GASTEIGER

@<TRIPOS>ATOM
      1 C           1.7572    3.4272   -1.4220 C.3     1  LIG1       -0.0437
      2 C           0.7032    2.9942   -0.4217 C.2     1  LIG1       -0.0728
      3 C           1.0233    2.0943    0.5425 C.2     1  LIG1       -0.0443
      4 C           0.2119    1.4971    1.6797 C.3     1  LIG1        0.1323
      5 H          -0.7022    2.0853    1.8188 H       1  LIG1        0.0787
      6 C          -0.1610   -0.0175    1.7710 C.3     1  LIG1        0.0719
      7 H          -1.1253   -0.0786    2.2894 H       1  LIG1        0.0428
      8 C          -0.2683   -0.9113    0.5079 C.3     1  LIG1        0.1548
      9 H          -0.2542   -1.9622    0.8186 H       1  LIG1        0.0783
     10 C          -1.5740   -0.7537   -0.3584 C.3     1  LIG1        0.1716
     11 H          -1.3035   -1.0407   -1.3850 H       1  LIG1        0.0826
     12 C          -2.0838    0.6781   -0.4585 C.2     1  LIG1        0.0764
     13 C          -2.9913    1.2496    0.5880 C.2     1  LIG1        0.3383
     14 O          -3.2985    0.3053    1.5087 O.3     1  LIG1       -0.4646
     15 C          -3.9918    0.7491    2.6780 C.3     1  LIG1        0.0820
     16 O          -3.3333    2.4193    0.6556 O.2     1  LIG1       -0.2452
     17 C          -1.5548    1.4387   -1.4433 C.2     1  LIG1       -0.0701
     18 C          -1.5638    2.9279   -1.6331 C.3     1  LIG1       -0.0302
     19 C          -0.6550    3.6550   -0.6231 C.3     1  LIG1       -0.0284
     20 O          -2.6284   -1.6603    0.0398 O.3     1  LIG1       -0.4527
     21 C          -2.5651   -2.9105   -0.4947 C.2     1  LIG1        0.3046
     22 C          -3.7889   -3.7175   -0.1743 C.3     1  LIG1        0.0333
     23 O          -1.6441   -3.3261   -1.1849 O.2     1  LIG1       -0.2511
     24 O           0.8628   -0.6618   -0.3630 O.3     1  LIG1       -0.4544
     25 C           1.7834   -1.6462   -0.5711 C.2     1  LIG1        0.3421
     26 C           2.5506   -1.3667   -1.8217 C.3     1  LIG1        0.1885
     27 C           1.7431   -1.0620   -3.0588 C.3     1  LIG1       -0.0228
     28 C           4.0283   -1.7063   -2.0262 C.3     1  LIG1        0.0965
     29 H           4.4175   -1.7901   -3.0355 H       1  LIG1        0.0628
     30 O           3.6061   -0.4028   -1.6142 O.3     1  LIG1       -0.3535
     31 C           4.9348   -2.3657   -1.0499 C.3     1  LIG1       -0.0354
     32 O           1.9130   -2.6649    0.0919 O.2     1  LIG1       -0.2475
     33 C           0.8012   -0.5194    2.8023 C.2     1  LIG1        0.0401
     34 C           1.0077   -1.7797    3.2279 C.2     1  LIG1       -0.0882
     35 O           0.9967    1.7609    2.8743 O.3     1  LIG1       -0.4532
     36 C           1.4675    0.6305    3.4527 C.2     1  LIG1        0.3357
     37 O           2.2383    0.5779    4.3665 O.2     1  LIG1       -0.2453
     38 H           1.4638    3.1523   -2.4411 H       1  LIG1        0.0274
     39 H           2.7271    2.9585   -1.2250 H       1  LIG1        0.0274
     40 H           1.9080    4.5122   -1.3881 H       1  LIG1        0.0274
     41 H           2.0657    1.7760    0.5633 H       1  LIG1        0.0608
     42 H          -3.3174    1.3394    3.3058 H       1  LIG1        0.0661
     43 H          -4.2873   -0.1420    3.2408 H       1  LIG1        0.0661
     44 H          -4.8913    1.3155    2.4237 H       1  LIG1        0.0661
     45 H          -0.8719    0.9549   -2.1425 H       1  LIG1        0.0578
     46 H          -2.5798    3.3343   -1.6206 H       1  LIG1        0.0311
     47 H          -1.1824    3.1249   -2.6458 H       1  LIG1        0.0311
     48 H          -1.1669    3.7610    0.3379 H       1  LIG1        0.0313
     49 H          -0.5101    4.6877   -0.9749 H       1  LIG1        0.0313
     50 H          -4.4554   -3.1813    0.5067 H       1  LIG1        0.0342
     51 H          -3.4906   -4.6554    0.3015 H       1  LIG1        0.0342
     52 H          -4.3328   -3.9241   -1.1006 H       1  LIG1        0.0342
     53 H           2.3659   -0.6616   -3.8642 H       1  LIG1        0.0264
     54 H           0.9803   -0.3086   -2.8404 H       1  LIG1        0.0264
     55 H           1.2358   -1.9606   -3.4236 H       1  LIG1        0.0264
     56 H           4.6034   -2.2476   -0.0163 H       1  LIG1        0.0256
     57 H           5.9338   -1.9213   -1.1347 H       1  LIG1        0.0256
     58 H           5.0365   -3.4343   -1.2681 H       1  LIG1        0.0256
     59 H           0.4902   -2.6331    2.8072 H       1  LIG1        0.0540
     60 H           1.7161   -1.9932    4.0248 H       1  LIG1        0.0540
@<TRIPOS>BOND
     1     1     2    1
     2     2     3    2
     3     3     4    1
     4     4     5    1
     5     4     6    1
     6     6     7    1
     7     6     8    1
     8     8    10    1
     9    10    12    1
    10    12    13    1
    11    13    14    1
    12    14    15    1
    13    13    16    2
    14    12    17    2
    15    17    18    1
    16    18    19    1
    17     2    19    1
    18    20    21    1
    19    21    22    1
    20    21    23    2
    21    24    25    1
    22    26    28    1
    23    28    30    1
    24    26    30    1
    25    25    32    2
    26     6    33    1
    27    33    34    2
    28     4    35    1
    29    35    36    1
    30    33    36    1
    31    36    37    2
    32    10    20    1
    33    10    11    1
    34     8    24    1
    35     8     9    1
    36    26    27    1
    37    26    25    1
    38    28    31    1
    39    28    29    1
    40     1    38    1
    41     1    39    1
    42     1    40    1
    43     3    41    1
    44    15    42    1
    45    15    43    1
    46    15    44    1
    47    17    45    1
    48    18    46    1
    49    18    47    1
    50    19    48    1
    51    19    49    1
    52    22    50    1
    53    22    51    1
    54    22    52    1
    55    27    53    1
    56    27    54    1
    57    27    55    1
    58    31    56    1
    59    31    57    1
    60    31    58    1
    61    34    59    1
    62    34    60    1
