REMARK  Name = NuBBE_1279
REMARK  11 active torsions:
REMARK  status: ('A' for Active; 'I' for Inactive)
REMARK    1  A    between atoms: O_1  and  C_2
REMARK    2  A    between atoms: C_6  and  C_7
REMARK    3  A    between atoms: C_6  and  C_10
REMARK    4  A    between atoms: C_11  and  C_30
REMARK    5  A    between atoms: C_15  and  O_27
REMARK    6  A    between atoms: C_17  and  C_20
REMARK    7  A    between atoms: C_21  and  O_26
REMARK    8  A    between atoms: O_27  and  C_28
REMARK    9  A    between atoms: C_30  and  C_31
REMARK   10  A    between atoms: C_32  and  C_33
REMARK   11  A    between atoms: C_32  and  C_34
REMARK                            x       y       z     vdW  Elec       q    Type
REMARK                         _______ _______ _______ _____ _____    ______ ____
ROOT
ATOM      1  C   LIG A   1      -2.531  -1.591   0.030  0.00  0.00    +0.142 A 
ATOM      2  C   LIG A   1      -1.722  -2.733   0.049  0.00  0.00    +0.059 A 
ATOM      3  C   LIG A   1      -0.336  -2.587   0.184  0.00  0.00    +0.139 A 
ATOM      4  O   LIG A   1       0.521  -3.658   0.175  0.00  0.00    -0.481 OA
ATOM      5  C   LIG A   1      -0.002  -5.004   0.131  0.00  0.00    +0.123 C 
ATOM      6  C   LIG A   1       0.421  -5.689   1.436  0.00  0.00    +0.060 C 
ATOM      7  C   LIG A   1      -1.495  -5.122  -0.022  0.00  0.00    +0.020 C 
ATOM      8  C   LIG A   1      -2.305  -4.064  -0.067  0.00  0.00    +0.015 C 
ATOM      9  C   LIG A   1       0.669  -5.698  -1.060  0.00  0.00    +0.060 C 
ATOM     10  C   LIG A   1       0.242  -1.302   0.334  0.00  0.00    +0.041 A 
ATOM     11  C   LIG A   1      -0.595  -0.164   0.338  0.00  0.00    +0.143 A 
ATOM     12  C   LIG A   1      -1.967  -0.310   0.164  0.00  0.00    +0.104 A 
ATOM     13  C   LIG A   1      -2.823   0.888   0.152  0.00  0.00    +0.203 C 
ATOM     14  C   LIG A   1      -2.193   2.249   0.429  0.00  0.00    +0.234 C 
ATOM     15  C   LIG A   1      -0.693   2.203   0.080  0.00  0.00    +0.243 C 
ATOM     16  O   LIG A   1      -0.017   1.047   0.604  0.00  0.00    -0.480 OA
ATOM     17  O   LIG A   1      -4.038   0.726  -0.032  0.00  0.00    -0.289 OA
ENDROOT
BRANCH  15  18
ATOM     18  C   LIG A   1       0.037   3.443   0.614  0.00  0.00    +0.037 A 
ATOM     19  C   LIG A   1       0.163   4.615  -0.148  0.00  0.00    +0.124 A 
ATOM     20  C   LIG A   1       0.921   5.701   0.295  0.00  0.00    +0.046 A 
ATOM     21  C   LIG A   1       1.527   5.663   1.548  0.00  0.00    +0.004 A 
ATOM     22  C   LIG A   1       1.367   4.539   2.353  0.00  0.00    +0.001 A 
ATOM     23  C   LIG A   1       0.633   3.440   1.891  0.00  0.00    +0.011 A 
BRANCH  19  24
ATOM     24  O   LIG A   1      -0.463   4.761  -1.355  0.00  0.00    -0.506 OA
ATOM     25  H   LIG A   1      -1.364   4.393  -1.259  0.00  0.00    +0.292 HD
ENDBRANCH  19  24
ENDBRANCH  15  18
BRANCH   1  26
ATOM     26  O   LIG A   1      -3.890  -1.777  -0.107  0.00  0.00    -0.505 OA
ATOM     27  H   LIG A   1      -4.328  -0.898  -0.128  0.00  0.00    +0.292 HD
ENDBRANCH   1  26
BRANCH  14  28
ATOM     28  O   LIG A   1      -2.792   3.327  -0.317  0.00  0.00    -0.368 OA
ATOM     29  C   LIG A   1      -4.186   3.504  -0.061  0.00  0.00    +0.195 C 
ENDBRANCH  14  28
BRANCH  10  30
ATOM     30  C   LIG A   1       1.751  -1.144   0.435  0.00  0.00    +0.069 C 
BRANCH  30  31
ATOM     31  C   LIG A   1       2.402  -0.980  -0.917  0.00  0.00    -0.023 C 
ATOM     32  C   LIG A   1       3.159   0.047  -1.356  0.00  0.00    -0.079 C 
ATOM     33  C   LIG A   1       3.529   1.260  -0.546  0.00  0.00    +0.038 C 
ATOM     34  C   LIG A   1       3.711   0.059  -2.759  0.00  0.00    +0.038 C 
ENDBRANCH  30  31
ENDBRANCH  10  30
TORSDOF 6
