REMARK  Name = NuBBE_260
REMARK  11 active torsions:
REMARK  status: ('A' for Active; 'I' for Inactive)
REMARK    1  A    between atoms: O_1  and  C_2
REMARK    2  A    between atoms: C_2  and  C_3
REMARK    3  A    between atoms: C_3  and  C_4
REMARK    4  A    between atoms: C_4  and  C_5
REMARK    5  A    between atoms: C_7  and  O_8
REMARK    6  A    between atoms: O_8  and  C_9
REMARK    7  A    between atoms: C_12  and  C_13
REMARK    8  A    between atoms: C_15  and  O_16
REMARK    9  A    between atoms: O_16  and  C_17
REMARK   10  A    between atoms: C_18  and  O_19
REMARK   11  A    between atoms: O_19  and  C_20
REMARK                            x       y       z     vdW  Elec       q    Type
REMARK                         _______ _______ _______ _____ _____    ______ ____
ROOT
ATOM      1  C   LIG A   1      -1.115   0.623   3.632  0.00  0.00    -0.043 A 
ATOM      2  C   LIG A   1      -1.262   1.857   2.976  0.00  0.00    +0.053 A 
ATOM      3  C   LIG A   1      -0.883   2.036   1.638  0.00  0.00    +0.163 A 
ATOM      4  C   LIG A   1      -0.350   0.913   0.992  0.00  0.00    +0.177 A 
ATOM      5  O   LIG A   1       0.069   0.848  -0.299  0.00  0.00    -0.451 OA
ATOM      6  C   LIG A   1       0.508  -0.418  -0.547  0.00  0.00    +0.137 A 
ATOM      7  C   LIG A   1       0.393  -1.175   0.601  0.00  0.00    +0.058 A 
ATOM      8  C   LIG A   1      -0.181  -0.328   1.597  0.00  0.00    +0.025 A 
ATOM      9  C   LIG A   1      -0.577  -0.480   2.940  0.00  0.00    +0.015 A 
ENDROOT
BRANCH   6  10
ATOM     10  C   LIG A   1       0.969  -0.639  -1.913  0.00  0.00    +0.021 A 
ATOM     11  C   LIG A   1       1.948  -1.586  -2.225  0.00  0.00    +0.061 A 
ATOM     12  C   LIG A   1       2.411  -1.755  -3.545  0.00  0.00    +0.162 A 
ATOM     13  C   LIG A   1       1.883  -0.957  -4.580  0.00  0.00    +0.162 A 
ATOM     14  C   LIG A   1       0.885  -0.028  -4.267  0.00  0.00    +0.050 A 
ATOM     15  C   LIG A   1       0.438   0.131  -2.955  0.00  0.00    +0.015 A 
BRANCH  12  16
ATOM     16  O   LIG A   1       3.375  -2.730  -3.637  0.00  0.00    -0.491 OA
ATOM     17  C   LIG A   1       3.922  -3.032  -4.910  0.00  0.00    +0.277 C 
ENDBRANCH  12  16
BRANCH  13  18
ATOM     18  O   LIG A   1       2.376  -1.111  -5.847  0.00  0.00    -0.491 OA
ATOM     19  C   LIG A   1       1.816  -0.332  -6.896  0.00  0.00    +0.277 C 
ENDBRANCH  13  18
ENDBRANCH   6  10
BRANCH   3  20
ATOM     20  O   LIG A   1      -1.088   3.305   1.121  0.00  0.00    -0.491 OA
ATOM     21  C   LIG A   1      -0.713   3.489  -0.240  0.00  0.00    +0.277 C 
ENDBRANCH   3  20
BRANCH   1  22
ATOM     22  C   LIG A   1      -1.547   0.483   5.076  0.00  0.00    +0.037 C 
BRANCH  22  23
ATOM     23  C   LIG A   1      -3.003   0.027   5.206  0.00  0.00    +0.032 C 
BRANCH  23  24
ATOM     24  C   LIG A   1      -3.424  -0.132   6.662  0.00  0.00    +0.156 C 
BRANCH  24  25
ATOM     25  O   LIG A   1      -3.329   1.114   7.336  0.00  0.00    -0.395 OA
ATOM     26  H   LIG A   1      -3.641   0.973   8.247  0.00  0.00    +0.209 HD
ENDBRANCH  24  25
ENDBRANCH  23  24
ENDBRANCH  22  23
ENDBRANCH   1  22
TORSDOF 8
