@<TRIPOS>MOLECULE
NuBBE_193
 52 54 0 0 0
SMALL
GASTEIGER

@<TRIPOS>ATOM
      1 O          -1.9483    4.5910    1.0199 O.3     1  LIG1       -0.3871
      2 C          -1.7998    3.8071   -0.1543 C.3     1  LIG1        0.0815
      3 H          -1.6462    4.4859   -0.9987 H       1  LIG1        0.0644
      4 C          -0.6798    2.7437   -0.0090 C.3     1  LIG1        0.0357
      5 C          -1.4296    1.4486    0.4156 C.3     1  LIG1        0.0546
      6 C          -0.7372    0.1823   -0.1386 C.3     1  LIG1        0.2106
      7 H          -1.3800   -0.6780    0.0695 H       1  LIG1        0.1062
      8 O          -0.5533    0.2410   -1.5616 O.2     1  LIG1       -0.4699
      9 C           0.0464    1.3952   -1.9860 C.2     1  LIG1        0.0982
     10 C           0.0677    2.5546   -1.3093 C.2     1  LIG1        0.0773
     11 C           0.8193    3.7110   -1.8498 C.2     1  LIG1        0.3382
     12 O           0.8830    3.6326   -3.1986 O.3     1  LIG1       -0.4646
     13 C           1.4161    4.7676   -3.8815 C.3     1  LIG1        0.0820
     14 O           1.2236    4.6374   -1.1544 O.2     1  LIG1       -0.2452
     15 O           0.5187    0.0007    0.5443 O.3     1  LIG1       -0.3093
     16 C           1.0385   -1.3319    0.3983 C.3     1  LIG1        0.1918
     17 H           1.1526   -1.5558   -0.6708 H       1  LIG1        0.0939
     18 O           0.0984   -2.2290    0.9959 O.3     1  LIG1       -0.3404
     19 C           0.5205   -3.5886    1.0094 C.3     1  LIG1        0.1130
     20 H           0.7666   -3.9196   -0.0088 H       1  LIG1        0.0647
     21 C           1.7483   -3.7317    1.9161 C.3     1  LIG1        0.1119
     22 H           1.5165   -3.4213    2.9425 H       1  LIG1        0.0647
     23 C           2.8649   -2.8562    1.3548 C.3     1  LIG1        0.1141
     24 H           3.2490   -3.2964    0.4257 H       1  LIG1        0.0648
     25 C           2.4210   -1.4106    1.1061 C.3     1  LIG1        0.1342
     26 H           2.3836   -0.8600    2.0534 H       1  LIG1        0.0671
     27 O           3.4557   -0.7776    0.3278 O.3     1  LIG1       -0.3841
     28 O           3.9853   -2.8619    2.2593 O.3     1  LIG1       -0.3864
     29 O           2.2476   -5.0733    1.9775 O.3     1  LIG1       -0.3865
     30 C          -0.6529   -4.4391    1.5096 C.3     1  LIG1        0.0730
     31 O          -0.3018   -5.8190    1.5701 O.3     1  LIG1       -0.3924
     32 H          -1.4394    1.3902    1.5134 H       1  LIG1        0.0414
     33 H           0.0308    3.0268    0.7787 H       1  LIG1        0.0388
     34 C          -3.0422    3.0007   -0.3404 C.2     1  LIG1       -0.0534
     35 C          -2.8562    1.7072   -0.0426 C.2     1  LIG1       -0.0363
     36 C          -3.9059    0.6505   -0.0537 C.3     1  LIG1        0.0659
     37 O          -3.5602   -0.3523   -0.9915 O.3     1  LIG1       -0.3907
     38 H          -2.3845    4.0467    1.6961 H       1  LIG1        0.2102
     39 H           0.4993    1.2387   -2.9563 H       1  LIG1        0.1029
     40 H           2.0781    4.4064   -4.6729 H       1  LIG1        0.0661
     41 H           1.9816    5.4429   -3.2339 H       1  LIG1        0.0661
     42 H           0.5845    5.3080   -4.3418 H       1  LIG1        0.0661
     43 H           4.2788   -0.9258    0.8371 H       1  LIG1        0.2101
     44 H           4.1095   -3.8031    2.5013 H       1  LIG1        0.2100
     45 H           1.4769   -5.6521    2.1691 H       1  LIG1        0.2100
     46 H          -1.5280   -4.3170    0.8608 H       1  LIG1        0.0584
     47 H          -0.9588   -4.1171    2.5111 H       1  LIG1        0.0584
     48 H          -0.4211   -6.1843    0.6734 H       1  LIG1        0.2095
     49 H          -3.9802    3.4451   -0.6480 H       1  LIG1        0.0598
     50 H          -4.8854    1.0514   -0.3346 H       1  LIG1        0.0604
     51 H          -4.0014    0.1912    0.9348 H       1  LIG1        0.0604
     52 H          -3.3707    0.0972   -1.8345 H       1  LIG1        0.2098
@<TRIPOS>BOND
     1     2     4    1
     2     4     5    1
     3     5     6    1
     4     6     7    1
     5     6     8    1
     6     8     9    1
     7     9    10    2
     8    10    11    1
     9    11    12    1
    10    12    13    1
    11    11    14    2
    12     6    15    1
    13    16    18    1
    14    18    19    1
    15    19    20    1
    16    19    21    1
    17    21    23    1
    18    23    24    1
    19    23    25    1
    20    16    25    1
    21    23    28    1
    22    19    30    1
    23    30    31    1
    24     5    32    1
    25    10     4    1
    26     4    33    1
    27     2    34    1
    28    34    35    2
    29     5    35    1
    30    35    36    1
    31    36    37    1
    32     2     3    1
    33     2     1    1
    34    16    17    1
    35    16    15    1
    36    21    29    1
    37    21    22    1
    38    25    27    1
    39    25    26    1
    40     1    38    1
    41     9    39    1
    42    13    40    1
    43    13    41    1
    44    13    42    1
    45    27    43    1
    46    28    44    1
    47    29    45    1
    48    30    46    1
    49    30    47    1
    50    31    48    1
    51    34    49    1
    52    36    50    1
    53    36    51    1
    54    37    52    1
