@<TRIPOS>MOLECULE
NuBBE_1225
 40 42 0 0 0
SMALL
GASTEIGER

@<TRIPOS>ATOM
      1 O          -3.7319    0.9958    0.4544 O.2     1  LIG1       -0.2830
      2 C          -2.5165    0.8667    0.3636 C.ar    1  LIG1        0.2381
      3 C          -1.8265   -0.4480    0.1706 C.ar    1  LIG1        0.2107
      4 O          -2.5223   -1.6295   -0.0406 O.3     1  LIG1       -0.4883
      5 C          -3.7595   -1.5094   -0.7345 C.3     1  LIG1        0.0791
      6 C          -0.4808   -0.4467    0.2420 C.ar    1  LIG1        0.1808
      7 O           0.3102    0.6680    0.4497 O.2     1  LIG1       -0.4507
      8 C          -0.2909    1.8984    0.4759 C.ar    1  LIG1        0.1465
      9 C          -1.6681    2.0650    0.4333 C.ar    1  LIG1        0.1092
     10 C          -2.2077    3.3547    0.4468 C.ar    1  LIG1        0.1348
     11 O          -3.5537    3.6015    0.4048 O.3     1  LIG1       -0.5058
     12 C          -1.3670    4.4655    0.4960 C.ar    1  LIG1        0.0225
     13 C           0.0199    4.2978    0.5497 C.ar    1  LIG1        0.1271
     14 O           0.7433    5.4578    0.6009 O.3     1  LIG1       -0.4949
     15 C           2.1578    5.3226    0.6843 C.3     1  LIG1        0.0788
     16 C           0.5550    3.0080    0.5436 C.ar    1  LIG1        0.0233
     17 C           0.3146   -1.6770    0.0945 C.ar    1  LIG1        0.0213
     18 C           0.6687   -2.4320    1.2180 C.ar    1  LIG1       -0.0475
     19 C           1.4524   -3.5817    1.0756 C.ar    1  LIG1       -0.0193
     20 H           1.7216   -4.1637    1.9536 H       1  LIG1        0.0654
     21 C           1.9058   -3.9807   -0.1828 C.ar    1  LIG1        0.1201
     22 C           1.5347   -3.2468   -1.3093 C.ar    1  LIG1       -0.0193
     23 C           0.7461   -2.0971   -1.1703 C.ar    1  LIG1       -0.0475
     24 O           2.6644   -5.1192   -0.2006 O.3     1  LIG1       -0.4951
     25 C           3.6363   -5.1910   -1.2392 C.3     1  LIG1        0.0788
     26 H          -4.0028   -2.4899   -1.1545 H       1  LIG1        0.0660
     27 H          -3.6985   -0.7974   -1.5650 H       1  LIG1        0.0660
     28 H          -4.5615   -1.2417   -0.0407 H       1  LIG1        0.0660
     29 H          -4.0247    2.7384    0.4394 H       1  LIG1        0.2922
     30 H          -1.7946    5.4656    0.4944 H       1  LIG1        0.0691
     31 H           2.5915    6.3249    0.7433 H       1  LIG1        0.0660
     32 H           2.5583    4.8371   -0.2122 H       1  LIG1        0.0660
     33 H           2.4484    4.7798    1.5902 H       1  LIG1        0.0660
     34 H           1.6248    2.8324    0.5822 H       1  LIG1        0.0691
     35 H           0.3400   -2.1332    2.2103 H       1  LIG1        0.0626
     36 H           1.8270   -3.5551   -2.3074 H       1  LIG1        0.0654
     37 H           0.4696   -1.5343   -2.0588 H       1  LIG1        0.0626
     38 H           4.2688   -6.0630   -1.0443 H       1  LIG1        0.0660
     39 H           4.2802   -4.3046   -1.2400 H       1  LIG1        0.0660
     40 H           3.1676   -5.3378   -2.2169 H       1  LIG1        0.0660
@<TRIPOS>BOND
     1     1     2    2
     2     2     3   ar
     3     3     4    1
     4     4     5    1
     5     3     6   ar
     6     6     7   ar
     7     7     8   ar
     8     8     9   ar
     9     2     9   ar
    10     9    10   ar
    11    10    11    1
    12    10    12   ar
    13    12    13   ar
    14    13    14    1
    15    14    15    1
    16    13    16   ar
    17     8    16   ar
    18     6    17    1
    19    17    18   ar
    20    18    19   ar
    21    19    20    1
    22    19    21   ar
    23    21    22   ar
    24    22    23   ar
    25    17    23   ar
    26    21    24    1
    27    24    25    1
    28     5    26    1
    29     5    27    1
    30     5    28    1
    31    11    29    1
    32    12    30    1
    33    15    31    1
    34    15    32    1
    35    15    33    1
    36    16    34    1
    37    18    35    1
    38    22    36    1
    39    23    37    1
    40    25    38    1
    41    25    39    1
    42    25    40    1
