REMARK  Name = NuBBE_1916
REMARK  12 active torsions:
REMARK  status: ('A' for Active; 'I' for Inactive)
REMARK    1  A    between atoms: C_1  and  C_2
REMARK    2  A    between atoms: C_1  and  C_10
REMARK    3  A    between atoms: C_2  and  C_3
REMARK    4  A    between atoms: C_3  and  C_4
REMARK    5  A    between atoms: C_4  and  C_5
REMARK    6  A    between atoms: C_5  and  C_6
REMARK    7  A    between atoms: C_6  and  C_7
REMARK    8  A    between atoms: C_7  and  C_8
REMARK    9  A    between atoms: C_8  and  C_9
REMARK   10  A    between atoms: C_10  and  C_11
REMARK   11  A    between atoms: C_11  and  C_12
REMARK   12  A    between atoms: C_12  and  C_14
REMARK                            x       y       z     vdW  Elec       q    Type
REMARK                         _______ _______ _______ _____ _____    ______ ____
ROOT
ATOM      1  C   LIG A   1       0.289   0.602  -1.526  0.00  0.00    +0.000 C 
ENDROOT
BRANCH   1   2
ATOM      2  C   LIG A   1       0.809  -0.006  -0.161  0.00  0.00    +0.000 C 
BRANCH   2   3
ATOM      3  C   LIG A   1       2.338  -0.234  -0.114  0.00  0.00    +0.007 C 
BRANCH   3   4
ATOM      4  C   LIG A   1       2.882  -0.841   1.199  0.00  0.00    +0.074 C 
BRANCH   4   5
ATOM      5  C   LIG A   1       4.409  -1.070   1.226  0.00  0.00    +0.130 C 
ATOM      6  O   LIG A   1       5.113  -0.523   2.029  0.00  0.00    -0.298 OA
ATOM      7  C   LIG A   1       4.989  -2.109   0.274  0.00  0.00    +0.086 C 
ENDBRANCH   4   5
ENDBRANCH   3   4
ENDBRANCH   2   3
ENDBRANCH   1   2
BRANCH   1   8
ATOM      8  C   LIG A   1      -1.215   0.843  -1.880  0.00  0.00    -0.000 C 
BRANCH   8   9
ATOM      9  C   LIG A   1      -2.216  -0.305  -1.828  0.00  0.00    -0.000 C 
BRANCH   9  10
ATOM     10  C   LIG A   1      -2.220  -1.228  -0.612  0.00  0.00    -0.000 C 
BRANCH  10  11
ATOM     11  C   LIG A   1      -2.701  -0.703   0.758  0.00  0.00    -0.000 C 
BRANCH  11  12
ATOM     12  C   LIG A   1      -1.992   0.402   1.573  0.00  0.00    -0.000 C 
BRANCH  12  13
ATOM     13  C   LIG A   1      -1.698   1.765   0.964  0.00  0.00    -0.003 C 
ATOM     14  C   LIG A   1      -2.900   2.432   0.313  0.00  0.00    +0.004 C 
ENDBRANCH  12  13
ENDBRANCH  11  12
ENDBRANCH  10  11
ENDBRANCH   9  10
ENDBRANCH   8   9
ENDBRANCH   1   8
TORSDOF 10
