@<TRIPOS>MOLECULE
NuBBE_1117
 30 32 0 0 0
SMALL
GASTEIGER

@<TRIPOS>ATOM
      1 C          -3.5851    1.3276    2.5000 C.2     1  LIG1       -0.0962
      2 C          -2.3831    0.7570    2.3058 C.2     1  LIG1       -0.0395
      3 C          -1.4298    0.5448    3.4509 C.3     1  LIG1       -0.0406
      4 C          -1.9389    0.2846    0.9353 C.3     1  LIG1        0.1249
      5 C          -0.8482    1.1645    0.2929 C.3     1  LIG1        0.0204
      6 O          -1.4465   -1.0812    1.0312 O.3     1  LIG1       -0.4837
      7 C          -0.4097   -1.1287    0.1380 C.ar    1  LIG1        0.1317
      8 C          -0.0298    0.1088   -0.3440 C.ar    1  LIG1        0.0412
      9 C           1.0197    0.2081   -1.2387 C.ar    1  LIG1        0.1493
     10 O           1.3742    1.4918   -1.6883 O.2     1  LIG1       -0.4216
     11 C           2.4146    1.6768   -2.5845 C.ar    1  LIG1        0.3372
     12 C           3.1462    0.4715   -3.0062 C.ar    1  LIG1        0.0237
     13 C           2.8207   -0.7548   -2.5843 C.ar    1  LIG1       -0.0408
     14 O           2.7297    2.7819   -3.0093 O.2     1  LIG1       -0.2452
     15 C           1.6964   -0.9396   -1.6709 C.ar    1  LIG1        0.0595
     16 C           1.2735   -2.1894   -1.1726 C.ar    1  LIG1        0.1310
     17 O           1.8432   -3.3772   -1.5451 O.3     1  LIG1       -0.5059
     18 C           0.2268   -2.2892   -0.2513 C.ar    1  LIG1        0.0227
     19 H          -3.9059    1.6560    3.4845 H       1  LIG1        0.0535
     20 H          -4.2860    1.4764    1.6838 H       1  LIG1        0.0535
     21 H          -1.8252    0.9452    4.3907 H       1  LIG1        0.0275
     22 H          -0.4746    1.0429    3.2604 H       1  LIG1        0.0275
     23 H          -1.2419   -0.5227    3.6036 H       1  LIG1        0.0275
     24 H          -2.8055    0.2431    0.2590 H       1  LIG1        0.0784
     25 H          -0.2528    1.7180    1.0255 H       1  LIG1        0.0355
     26 H          -1.2792    1.8646   -0.4291 H       1  LIG1        0.0355
     27 H           3.9797    0.6420   -3.6771 H       1  LIG1        0.0689
     28 H           3.4110   -1.6048   -2.9021 H       1  LIG1        0.0628
     29 H           2.2920   -3.2662   -2.3969 H       1  LIG1        0.2922
     30 H          -0.0853   -3.2517    0.1390 H       1  LIG1        0.0691
@<TRIPOS>BOND
     1     1     2    2
     2     2     3    1
     3     2     4    1
     4     4     5    1
     5     4     6    1
     6     6     7    1
     7     7     8   ar
     8     5     8    1
     9     8     9   ar
    10     9    10   ar
    11    10    11   ar
    12    11    12   ar
    13    12    13   ar
    14    11    14    2
    15     9    15   ar
    16    13    15   ar
    17    15    16   ar
    18    16    17    1
    19    16    18   ar
    20     7    18   ar
    21     1    19    1
    22     1    20    1
    23     3    21    1
    24     3    22    1
    25     3    23    1
    26     4    24    1
    27     5    25    1
    28     5    26    1
    29    12    27    1
    30    13    28    1
    31    17    29    1
    32    18    30    1
