@<TRIPOS>MOLECULE
NuBBE_349
 45 45 0 0 0
SMALL
GASTEIGER

@<TRIPOS>ATOM
      1 O           2.9059    3.5634   -0.1088 O.3     1  LIG1       -0.4771
      2 C           3.6717    2.4789    0.1533 C.2     1  LIG1        0.3368
      3 C           3.3454    1.2849   -0.6747 C.ar    1  LIG1        0.0593
      4 C           2.0618    1.0432   -1.1724 C.ar    1  LIG1       -0.0408
      5 C           1.7737   -0.1246   -1.9073 C.ar    1  LIG1       -0.0012
      6 C           0.3708   -0.3185   -2.4525 C.3     1  LIG1       -0.0058
      7 C          -0.6781   -0.3295   -1.3700 C.2     1  LIG1       -0.0806
      8 C          -1.6068    0.6069   -1.0838 C.2     1  LIG1       -0.0759
      9 C          -1.7918    1.9022   -1.8261 C.3     1  LIG1       -0.0438
     10 C          -2.5765    0.3774    0.0606 C.3     1  LIG1       -0.0286
     11 C          -2.0534    0.9269    1.3912 C.3     1  LIG1       -0.0308
     12 C          -3.0517    0.7016    2.4946 C.2     1  LIG1       -0.0850
     13 C          -3.1373   -0.3720    3.3043 C.2     1  LIG1       -0.0796
     14 C          -2.2326   -1.5722    3.2387 C.3     1  LIG1       -0.0440
     15 C          -4.2114   -0.4594    4.3562 C.3     1  LIG1       -0.0440
     16 C           2.7986   -1.0636   -2.1213 C.ar    1  LIG1        0.1236
     17 O           2.4731   -2.1887   -2.8325 O.3     1  LIG1       -0.4948
     18 C           3.2065   -3.3632   -2.4952 C.3     1  LIG1        0.0788
     19 C           4.0907   -0.8052   -1.6486 C.ar    1  LIG1       -0.0189
     20 C           4.3614    0.3579   -0.9210 C.ar    1  LIG1       -0.0443
     21 O           4.5721    2.4855    0.9678 O.2     1  LIG1       -0.2451
     22 H           2.2814    3.4748   -0.8464 H       1  LIG1        0.2954
     23 H           1.2477    1.7336   -0.9688 H       1  LIG1        0.0630
     24 H           0.2846   -1.2668   -2.9942 H       1  LIG1        0.0357
     25 H           0.1889    0.4585   -3.2018 H       1  LIG1        0.0357
     26 H          -0.6476   -1.2272   -0.7506 H       1  LIG1        0.0575
     27 H          -1.3182    1.9030   -2.8102 H       1  LIG1        0.0274
     28 H          -1.3770    2.7320   -1.2453 H       1  LIG1        0.0274
     29 H          -2.8560    2.1012   -1.9939 H       1  LIG1        0.0274
     30 H          -2.7769   -0.6982    0.1603 H       1  LIG1        0.0313
     31 H          -3.5473    0.8297   -0.1814 H       1  LIG1        0.0313
     32 H          -1.8663    2.0051    1.3102 H       1  LIG1        0.0310
     33 H          -1.0851    0.4783    1.6411 H       1  LIG1        0.0310
     34 H          -3.7738    1.5085    2.6183 H       1  LIG1        0.0572
     35 H          -1.4831   -1.5079    2.4462 H       1  LIG1        0.0274
     36 H          -2.8222   -2.4761    3.0520 H       1  LIG1        0.0274
     37 H          -1.7013   -1.6963    4.1879 H       1  LIG1        0.0274
     38 H          -4.8519    0.4286    4.3707 H       1  LIG1        0.0274
     39 H          -3.7636   -0.5641    5.3496 H       1  LIG1        0.0274
     40 H          -4.8525   -1.3273    4.1692 H       1  LIG1        0.0274
     41 H           2.7156   -4.2140   -2.9774 H       1  LIG1        0.0660
     42 H           3.2012   -3.5418   -1.4140 H       1  LIG1        0.0660
     43 H           4.2291   -3.3123   -2.8810 H       1  LIG1        0.0660
     44 H           4.9125   -1.4875   -1.8430 H       1  LIG1        0.0654
     45 H           5.3702    0.5343   -0.5498 H       1  LIG1        0.0627
@<TRIPOS>BOND
     1     1     2    1
     2     2     3    1
     3     3     4   ar
     4     4     5   ar
     5     5     6    1
     6     6     7    1
     7     7     8    2
     8     8     9    1
     9     8    10    1
    10    10    11    1
    11    11    12    1
    12    12    13    2
    13    13    14    1
    14    13    15    1
    15     5    16   ar
    16    16    17    1
    17    17    18    1
    18    16    19   ar
    19    19    20   ar
    20     3    20   ar
    21     2    21    2
    22     1    22    1
    23     4    23    1
    24     6    24    1
    25     6    25    1
    26     7    26    1
    27     9    27    1
    28     9    28    1
    29     9    29    1
    30    10    30    1
    31    10    31    1
    32    11    32    1
    33    11    33    1
    34    12    34    1
    35    14    35    1
    36    14    36    1
    37    14    37    1
    38    15    38    1
    39    15    39    1
    40    15    40    1
    41    18    41    1
    42    18    42    1
    43    18    43    1
    44    19    44    1
    45    20    45    1
