@<TRIPOS>MOLECULE
NuBBE_934
 25 26 0 0 0
SMALL
GASTEIGER

@<TRIPOS>ATOM
      1 C          -3.0586    0.7078   -0.1850 C.3     1  LIG1        0.0153
      2 N          -1.6089    0.6811   -0.0744 N.ar    1  LIG1       -0.3109
      3 C          -0.9111   -0.5646   -0.1172 C.ar    1  LIG1        0.0552
      4 C           0.4925   -0.5737   -0.0085 C.ar    1  LIG1        0.0404
      5 C           1.2238    0.6975    0.1490 C.ar    1  LIG1        0.1343
      6 C           0.5317    1.8438    0.1838 C.ar    1  LIG1        0.0453
      7 C          -0.9419    1.8868    0.0711 C.ar    1  LIG1        0.2550
      8 O          -1.4892    2.9878    0.1133 O.2     1  LIG1       -0.2676
      9 O           2.5942    0.5719    0.2485 O.3     1  LIG1       -0.4943
     10 C           3.3627    1.7584    0.4091 C.3     1  LIG1        0.0788
     11 C           1.1776   -1.8017   -0.0518 C.ar    1  LIG1       -0.0491
     12 C           0.4884   -3.0047   -0.1998 C.ar    1  LIG1       -0.0610
     13 C          -0.8962   -2.9961   -0.3067 C.ar    1  LIG1       -0.0598
     14 C          -1.5917   -1.7856   -0.2658 C.ar    1  LIG1       -0.0374
     15 H          -3.4975    0.1392    0.6411 H       1  LIG1        0.0457
     16 H          -3.3587    0.2790   -1.1464 H       1  LIG1        0.0457
     17 H          -3.4545    1.7262   -0.1360 H       1  LIG1        0.0457
     18 H           0.9922    2.8156    0.2962 H       1  LIG1        0.0709
     19 H           4.4163    1.4705    0.4723 H       1  LIG1        0.0660
     20 H           3.0979    2.2737    1.3381 H       1  LIG1        0.0660
     21 H           3.2455    2.4209   -0.4546 H       1  LIG1        0.0660
     22 H           2.2621   -1.8312    0.0302 H       1  LIG1        0.0625
     23 H           1.0347   -3.9438   -0.2311 H       1  LIG1        0.0618
     24 H          -1.4387   -3.9311   -0.4221 H       1  LIG1        0.0618
     25 H          -2.6728   -1.8279   -0.3532 H       1  LIG1        0.0638
@<TRIPOS>BOND
     1     1     2    1
     2     2     3   ar
     3     3     4   ar
     4     4     5   ar
     5     5     6   ar
     6     6     7   ar
     7     2     7   ar
     8     7     8    2
     9     5     9    1
    10     9    10    1
    11     4    11   ar
    12    11    12   ar
    13    12    13   ar
    14    13    14   ar
    15     3    14   ar
    16     1    15    1
    17     1    16    1
    18     1    17    1
    19     6    18    1
    20    10    19    1
    21    10    20    1
    22    10    21    1
    23    11    22    1
    24    12    23    1
    25    13    24    1
    26    14    25    1
