@<TRIPOS>MOLECULE
NuBBE_1209
 85 89 0 0 0
SMALL
GASTEIGER

@<TRIPOS>ATOM
      1 O          -5.1999    2.5247   -0.9088 O.3     1  LIG1       -0.3912
      2 C          -4.1486    2.8982   -0.0113 C.3     1  LIG1        0.0606
      3 H          -4.5364    3.7407    0.5749 H       1  LIG1        0.0599
      4 C          -3.8632    1.7430    0.9290 C.3     1  LIG1       -0.0258
      5 C          -2.8211    2.1507    1.9420 C.3     1  LIG1       -0.0442
      6 C          -1.4930    2.5932    1.3322 C.3     1  LIG1       -0.0193
      7 C          -0.5232    2.9825    2.4482 C.3     1  LIG1       -0.0401
      8 C          -0.1577    1.8239    1.5620 C.3     1  LIG1       -0.0194
      9 C          -0.2820    0.4360    2.1163 C.3     1  LIG1       -0.0460
     10 C           1.0430   -0.2100    2.4958 C.3     1  LIG1       -0.0463
     11 C           2.2201   -0.0939    1.5093 C.3     1  LIG1       -0.0233
     12 C           2.3334    1.3652    0.9278 C.3     1  LIG1       -0.0231
     13 C           3.2437    1.1681   -0.3184 C.3     1  LIG1       -0.0466
     14 C           3.3799   -0.3272   -0.5984 C.3     1  LIG1       -0.0489
     15 C           2.3169   -1.0528    0.2481 C.3     1  LIG1       -0.0325
     16 H           2.7503   -2.0006    0.6029 H       1  LIG1        0.0309
     17 C           1.1393   -1.5050   -0.6793 C.3     1  LIG1       -0.0402
     18 H           0.7530   -0.6543   -1.2491 H       1  LIG1        0.0301
     19 C           0.0194   -2.1335    0.1045 C.3     1  LIG1       -0.0621
     20 C           1.6774   -2.6098   -1.6940 C.3     1  LIG1       -0.0465
     21 C           0.7033   -3.3304   -2.6456 C.3     1  LIG1       -0.0314
     22 C          -0.4058   -4.2087   -2.0384 C.2     1  LIG1       -0.0716
     23 C          -0.1146   -5.4997   -1.2359 C.3     1  LIG1        0.0002
     24 C           1.1380   -6.2969   -1.6029 C.3     1  LIG1        0.0504
     25 O           1.0505   -6.7822   -2.9365 O.3     1  LIG1       -0.3944
     26 C          -0.1131   -5.2885    0.2836 C.3     1  LIG1       -0.0566
     27 C          -1.6669   -3.8662   -2.2612 C.2     1  LIG1       -0.0991
     28 C           3.0298    2.3454    1.9002 C.3     1  LIG1       -0.0588
     29 C           3.4796   -0.4692    2.3843 C.3     1  LIG1       -0.0588
     30 C           0.9301    1.9546    0.4921 C.3     1  LIG1       -0.0289
     31 C           0.9905    3.4105   -0.0159 C.3     1  LIG1       -0.0489
     32 C          -0.3266    3.7749   -0.6875 C.3     1  LIG1       -0.0488
     33 C          -1.6278    3.5918    0.1484 C.3     1  LIG1       -0.0273
     34 C          -2.8885    3.3501   -0.8019 C.3     1  LIG1       -0.0056
     35 C          -2.5918    2.3358   -1.9399 C.3     1  LIG1       -0.0572
     36 C          -3.2573    4.6940   -1.4869 C.3     1  LIG1       -0.0572
     37 H          -5.8371    1.9689   -0.4298 H       1  LIG1        0.2098
     38 H          -3.5637    0.8446    0.3783 H       1  LIG1        0.0290
     39 H          -4.7878    1.4745    1.4585 H       1  LIG1        0.0290
     40 H          -2.6989    1.3211    2.6437 H       1  LIG1        0.0272
     41 H          -3.2148    2.9827    2.5421 H       1  LIG1        0.0272
     42 H          -0.7931    2.7642    3.4802 H       1  LIG1        0.0276
     43 H          -0.0229    3.9398    2.3910 H       1  LIG1        0.0276
     44 H          -0.8550   -0.1184    1.3781 H       1  LIG1        0.0271
     45 H          -0.8915    0.4183    3.0269 H       1  LIG1        0.0271
     46 H           0.8887   -1.2578    2.7829 H       1  LIG1        0.0271
     47 H           1.3401    0.2838    3.4336 H       1  LIG1        0.0271
     48 H           4.2455    1.5875   -0.1724 H       1  LIG1        0.0271
     49 H           2.8294    1.6535   -1.2074 H       1  LIG1        0.0271
     50 H           4.3798   -0.6798   -0.3184 H       1  LIG1        0.0268
     51 H           3.3003   -0.4955   -1.6737 H       1  LIG1        0.0268
     52 H          -0.2035   -1.7825    1.0927 H       1  LIG1        0.0233
     53 H           0.3626   -3.1187    0.3270 H       1  LIG1        0.0233
     54 H          -0.9182   -2.1458   -0.4516 H       1  LIG1        0.0233
     55 H           2.2171   -3.3800   -1.1272 H       1  LIG1        0.0271
     56 H           2.4285   -2.1553   -2.3479 H       1  LIG1        0.0271
     57 H           1.2845   -3.9502   -3.3340 H       1  LIG1        0.0310
     58 H           0.2511   -2.5590   -3.2881 H       1  LIG1        0.0310
     59 H          -0.9693   -6.1595   -1.4391 H       1  LIG1        0.0365
     60 H           1.2241   -7.1650   -0.9395 H       1  LIG1        0.0563
     61 H           2.0535   -5.7048   -1.4920 H       1  LIG1        0.0563
     62 H           1.9579   -6.9500   -3.2359 H       1  LIG1        0.2094
     63 H           0.8598   -4.9109    0.6260 H       1  LIG1        0.0236
     64 H          -0.2683   -6.2251    0.8253 H       1  LIG1        0.0236
     65 H          -0.9211   -4.6180    0.5977 H       1  LIG1        0.0236
     66 H          -1.9543   -2.9635   -2.8321 H       1  LIG1        0.0534
     67 H          -2.5075   -4.4366   -1.8465 H       1  LIG1        0.0534
     68 H           4.0420    2.0176    2.1612 H       1  LIG1        0.0235
     69 H           2.4647    2.4602    2.8297 H       1  LIG1        0.0235
     70 H           3.1615    3.3351    1.4531 H       1  LIG1        0.0235
     71 H           3.5331    0.1183    3.3077 H       1  LIG1        0.0235
     72 H           4.4254   -0.3170    1.8552 H       1  LIG1        0.0235
     73 H           3.4417   -1.5228    2.6886 H       1  LIG1        0.0235
     74 H           0.5834    1.3428   -0.3503 H       1  LIG1        0.0312
     75 H           1.7944    3.5310   -0.7497 H       1  LIG1        0.0268
     76 H           1.2083    4.1302    0.7780 H       1  LIG1        0.0268
     77 H          -0.3478    3.1637   -1.5914 H       1  LIG1        0.0268
     78 H          -0.2752    4.8118   -1.0407 H       1  LIG1        0.0268
     79 H          -1.8068    4.5555    0.6491 H       1  LIG1        0.0312
     80 H          -2.0743    1.4481   -1.5639 H       1  LIG1        0.0236
     81 H          -1.9799    2.7858   -2.7310 H       1  LIG1        0.0236
     82 H          -3.4992    2.0005   -2.4528 H       1  LIG1        0.0236
     83 H          -2.4221    5.1001   -2.0656 H       1  LIG1        0.0236
     84 H          -3.5419    5.4471   -0.7424 H       1  LIG1        0.0236
     85 H          -4.1042    4.5752   -2.1726 H       1  LIG1        0.0236
@<TRIPOS>BOND
     1     1     2    1
     2     2     3    1
     3     2     4    1
     4     4     5    1
     5     5     6    1
     6     6     7    1
     7     7     8    1
     8     8     9    1
     9     9    10    1
    10    10    11    1
    11    11    12    1
    12    12    13    1
    13    13    14    1
    14    14    15    1
    15    17    20    1
    16    20    21    1
    17    21    22    1
    18    22    23    1
    19    23    24    1
    20    24    25    1
    21    23    26    1
    22    22    27    2
    23    12    28    1
    24    15    11    1
    25    11    29    1
    26     6     8    1
    27     8    30    1
    28    12    30    1
    29    30    31    1
    30    31    32    1
    31    32    33    1
    32     6    33    1
    33    33    34    1
    34    34    35    1
    35     2    34    1
    36    34    36    1
    37    15    17    1
    38    15    16    1
    39    17    19    1
    40    17    18    1
    41     1    37    1
    42     4    38    1
    43     4    39    1
    44     5    40    1
    45     5    41    1
    46     7    42    1
    47     7    43    1
    48     9    44    1
    49     9    45    1
    50    10    46    1
    51    10    47    1
    52    13    48    1
    53    13    49    1
    54    14    50    1
    55    14    51    1
    56    19    52    1
    57    19    53    1
    58    19    54    1
    59    20    55    1
    60    20    56    1
    61    21    57    1
    62    21    58    1
    63    23    59    1
    64    24    60    1
    65    24    61    1
    66    25    62    1
    67    26    63    1
    68    26    64    1
    69    26    65    1
    70    27    66    1
    71    27    67    1
    72    28    68    1
    73    28    69    1
    74    28    70    1
    75    29    71    1
    76    29    72    1
    77    29    73    1
    78    30    74    1
    79    31    75    1
    80    31    76    1
    81    32    77    1
    82    32    78    1
    83    33    79    1
    84    35    80    1
    85    35    81    1
    86    35    82    1
    87    36    83    1
    88    36    84    1
    89    36    85    1
