REMARK  Name = NuBBE_1963
REMARK  6 active torsions:
REMARK  status: ('A' for Active; 'I' for Inactive)
REMARK    1  A    between atoms: C_8  and  O_9
REMARK    2  A    between atoms: C_11  and  O_13
REMARK    3  A    between atoms: O_13  and  C_14
REMARK    4  A    between atoms: C_16  and  O_20
REMARK    5  A    between atoms: C_18  and  C_19
REMARK    6  A    between atoms: O_20  and  C_21
REMARK                            x       y       z     vdW  Elec       q    Type
REMARK                         _______ _______ _______ _____ _____    ______ ____
ROOT
ATOM      1  O   LIG A   1      -2.778   0.024   0.019  0.00  0.00    -0.286 OA
ATOM      2  C   LIG A   1      -1.549  -0.013   0.031  0.00  0.00    +0.204 A 
ATOM      3  C   LIG A   1      -0.771  -1.269   0.048  0.00  0.00    +0.068 A 
ATOM      4  C   LIG A   1       0.623  -1.146   0.071  0.00  0.00    +0.143 A 
ATOM      5  O   LIG A   1       1.304   0.047   0.085  0.00  0.00    -0.454 OA
ATOM      6  C   LIG A   1       0.583   1.209   0.043  0.00  0.00    +0.146 A 
ATOM      7  C   LIG A   1      -0.805   1.253   0.021  0.00  0.00    +0.106 A 
ATOM      8  C   LIG A   1      -1.457   2.486  -0.018  0.00  0.00    +0.135 A 
ATOM      9  C   LIG A   1      -0.726   3.670  -0.044  0.00  0.00    +0.092 A 
ATOM     10  C   LIG A   1       0.669   3.631  -0.036  0.00  0.00    +0.127 A 
ATOM     11  C   LIG A   1       1.321   2.396   0.016  0.00  0.00    +0.092 A 
ATOM     12  C   LIG A   1       1.438  -2.279   0.081  0.00  0.00    +0.092 A 
ATOM     13  C   LIG A   1       0.873  -3.549   0.064  0.00  0.00    +0.124 A 
ATOM     14  C   LIG A   1      -0.520  -3.675   0.045  0.00  0.00    +0.050 A 
ATOM     15  C   LIG A   1      -1.362  -2.547   0.036  0.00  0.00    -0.033 A 
ATOM     16  C   LIG A   1      -2.852  -2.757   0.013  0.00  0.00    +0.045 C 
ENDROOT
BRANCH   8  17
ATOM     17  O   LIG A   1      -2.821   2.612  -0.040  0.00  0.00    -0.506 OA
ATOM     18  H   LIG A   1      -3.204   1.705  -0.025  0.00  0.00    +0.292 HD
ENDBRANCH   8  17
BRANCH  10  19
ATOM     19  O   LIG A   1       1.491   4.724  -0.084  0.00  0.00    -0.495 OA
ATOM     20  C   LIG A   1       0.838   5.988  -0.165  0.00  0.00    +0.277 C 
ENDBRANCH  10  19
BRANCH  13  21
ATOM     21  O   LIG A   1       1.569  -4.726   0.062  0.00  0.00    -0.495 OA
ATOM     22  C   LIG A   1       2.990  -4.620   0.058  0.00  0.00    +0.277 C 
ENDBRANCH  13  21
TORSDOF 3
