REMARK  Name = NuBBE_1401
REMARK  13 active torsions:
REMARK  status: ('A' for Active; 'I' for Inactive)
REMARK    1  A    between atoms: C_1  and  C_2
REMARK    2  A    between atoms: C_1  and  C_17
REMARK    3  A    between atoms: C_2  and  S_3
REMARK    4  A    between atoms: S_3  and  C_4
REMARK    5  A    between atoms: N_7  and  C_8
REMARK    6  A    between atoms: C_9  and  S_15
REMARK    7  A    between atoms: N_13  and  C_14
REMARK    8  A    between atoms: S_15  and  C_16
REMARK    9  A    between atoms: C_20  and  O_23
REMARK   10  A    between atoms: O_23  and  C_24
REMARK   11  A    between atoms: C_24  and  C_25
REMARK   12  A    between atoms: C_26  and  C_27
REMARK   13  A    between atoms: C_26  and  C_28
REMARK                            x       y       z     vdW  Elec       q    Type
REMARK                         _______ _______ _______ _____ _____    ______ ____
ROOT
ATOM      1  C   LIG A   1       2.176   0.287  -2.176  0.00  0.00    +0.164 C 
ATOM      2  C   LIG A   1       2.278   1.362  -1.029  0.00  0.00    +0.251 C 
ATOM      3  O   LIG A   1       3.078   1.235  -0.099  0.00  0.00    -0.272 OA
ATOM      4  N   LIG A   1       1.427   2.450  -1.073  0.00  0.00    -0.282 N 
ATOM      5  C   LIG A   1       1.418   3.381   0.046  0.00  0.00    +0.134 C 
ATOM      6  C   LIG A   1       0.713   2.830  -2.280  0.00  0.00    +0.220 C 
ATOM      7  C   LIG A   1       0.518   1.760  -3.376  0.00  0.00    +0.248 C 
ATOM      8  O   LIG A   1      -0.150   1.992  -4.379  0.00  0.00    -0.273 OA
ATOM      9  N   LIG A   1       1.063   0.498  -3.143  0.00  0.00    -0.280 N 
ATOM     10  C   LIG A   1       0.859  -0.455  -4.232  0.00  0.00    +0.134 C 
ENDROOT
BRANCH   1  11
ATOM     11  S   LIG A   1       3.779   0.385  -3.180  0.00  0.00    -0.129 S 
ATOM     12  C   LIG A   1       5.074  -0.002  -1.963  0.00  0.00    +0.087 C 
ENDBRANCH   1  11
BRANCH   6  13
ATOM     13  S   LIG A   1       1.296   4.412  -2.995  0.00  0.00    -0.133 S 
ATOM     14  C   LIG A   1       3.019   4.015  -3.344  0.00  0.00    +0.086 C 
ENDBRANCH   6  13
BRANCH   1  15
ATOM     15  C   LIG A   1       2.035  -1.101  -1.472  0.00  0.00    +0.082 C 
BRANCH  15  16
ATOM     16  C   LIG A   1       0.815  -1.268  -0.575  0.00  0.00    -0.044 A 
ATOM     17  C   LIG A   1      -0.415  -1.734  -1.056  0.00  0.00    +0.007 A 
ATOM     18  C   LIG A   1      -1.479  -1.975  -0.172  0.00  0.00    +0.046 A 
ATOM     19  C   LIG A   1      -1.339  -1.732   1.196  0.00  0.00    +0.121 A 
ATOM     20  C   LIG A   1      -0.124  -1.246   1.673  0.00  0.00    +0.046 A 
ATOM     21  C   LIG A   1       0.935  -1.006   0.796  0.00  0.00    +0.007 A 
BRANCH  19  22
ATOM     22  O   LIG A   1      -2.435  -2.006   1.976  0.00  0.00    -0.488 OA
BRANCH  22  23
ATOM     23  C   LIG A   1      -2.476  -1.315   3.226  0.00  0.00    +0.256 C 
BRANCH  23  24
ATOM     24  C   LIG A   1      -3.899  -1.163   3.674  0.00  0.00    +0.012 C 
ATOM     25  C   LIG A   1      -4.631  -1.921   4.514  0.00  0.00    -0.076 C 
ATOM     26  C   LIG A   1      -4.199  -3.228   5.117  0.00  0.00    +0.038 C 
ATOM     27  C   LIG A   1      -6.021  -1.483   4.894  0.00  0.00    +0.038 C 
ENDBRANCH  23  24
ENDBRANCH  22  23
ENDBRANCH  19  22
ENDBRANCH  15  16
ENDBRANCH   1  15
TORSDOF 7
