@<TRIPOS>MOLECULE
NuBBE_1319
 34 37 0 0 0
SMALL
GASTEIGER

@<TRIPOS>ATOM
      1 O          -6.2375   -0.3297    0.9685 O.3     1  LIG1       -0.5066
      2 C          -4.8739   -0.3047    0.9677 C.ar    1  LIG1        0.1204
      3 C          -4.1707    0.8651    0.7017 C.ar    1  LIG1        0.0219
      4 C          -2.7760    0.8379    0.7016 C.ar    1  LIG1        0.1307
      5 C          -2.0805   -0.3399    1.0016 C.ar    1  LIG1        0.0352
      6 C          -2.8094   -1.5099    1.2631 C.ar    1  LIG1       -0.0481
      7 C          -4.2047   -1.4915    1.2418 C.ar    1  LIG1       -0.0196
      8 C          -0.5784   -0.3407    1.0973 C.3     1  LIG1        0.1385
      9 H          -0.2950   -0.6634    2.1104 H       1  LIG1        0.0793
     10 C           0.0480    1.0327    0.8060 C.3     1  LIG1        0.0629
     11 H           0.2089    1.5762    1.7440 H       1  LIG1        0.0423
     12 C          -0.8429    1.8285   -0.1355 C.3     1  LIG1        0.1002
     13 O          -2.1439    2.0238    0.4283 O.3     1  LIG1       -0.4907
     14 C           1.3094    0.5862    0.1646 C.ar    1  LIG1        0.0047
     15 C           1.1914   -0.7498   -0.1842 C.ar    1  LIG1        0.1286
     16 O          -0.0100   -1.3078    0.1722 O.3     1  LIG1       -0.4830
     17 C           2.1930   -1.4196   -0.8545 C.ar    1  LIG1        0.0221
     18 C           3.3648   -0.7229   -1.1665 C.ar    1  LIG1        0.1236
     19 C           3.4920    0.6311   -0.8056 C.ar    1  LIG1       -0.0195
     20 C           2.4553    1.2973   -0.1387 C.ar    1  LIG1       -0.0511
     21 O           4.3084   -1.4663   -1.8234 O.3     1  LIG1       -0.4950
     22 C           5.5248   -0.8130   -2.1617 C.3     1  LIG1        0.0788
     23 H          -6.5625    0.5594    0.7506 H       1  LIG1        0.2921
     24 H          -4.6840    1.7955    0.4835 H       1  LIG1        0.0691
     25 H          -2.2906   -2.4394    1.4888 H       1  LIG1        0.0624
     26 H          -4.7672   -2.3986    1.4446 H       1  LIG1        0.0654
     27 H          -0.9443    1.3609   -1.1252 H       1  LIG1        0.0704
     28 H          -0.4101    2.8210   -0.3081 H       1  LIG1        0.0704
     29 H           2.0748   -2.4621   -1.1289 H       1  LIG1        0.0691
     30 H           4.3889    1.1964   -1.0386 H       1  LIG1        0.0654
     31 H           2.5554    2.3457    0.1245 H       1  LIG1        0.0623
     32 H           6.1639   -1.5399   -2.6722 H       1  LIG1        0.0660
     33 H           6.0549   -0.4761   -1.2648 H       1  LIG1        0.0660
     34 H           5.3477    0.0175   -2.8530 H       1  LIG1        0.0660
@<TRIPOS>BOND
     1     2     3   ar
     2     3     4   ar
     3     4     5   ar
     4     5     6   ar
     5     6     7   ar
     6     2     7   ar
     7     5     8    1
     8     8    10    1
     9    10    12    1
    10    12    13    1
    11     4    13    1
    12    10    14    1
    13    14    15   ar
    14    15    16    1
    15     8    16    1
    16    15    17   ar
    17    17    18   ar
    18    18    19   ar
    19    19    20   ar
    20    14    20   ar
    21    21    22    1
    22     1     2    1
    23     8     9    1
    24    10    11    1
    25    18    21    1
    26     1    23    1
    27     3    24    1
    28     6    25    1
    29     7    26    1
    30    12    27    1
    31    12    28    1
    32    17    29    1
    33    19    30    1
    34    20    31    1
    35    22    32    1
    36    22    33    1
    37    22    34    1
