@<TRIPOS>MOLECULE
NuBBE_733
 22 23 0 0 0
SMALL
GASTEIGER

@<TRIPOS>ATOM
      1 C          -3.7466    0.0097   -0.9036 C.2     1  LIG1       -0.1023
      2 C          -2.7071   -0.7993   -0.6636 C.2     1  LIG1       -0.0868
      3 C          -1.9405   -0.8274    0.6276 C.3     1  LIG1       -0.0096
      4 C          -0.4727   -0.5297    0.4274 C.ar    1  LIG1       -0.0400
      5 C          -0.0103    0.7966    0.4614 C.ar    1  LIG1       -0.0127
      6 C           1.3355    1.0213    0.2614 C.ar    1  LIG1        0.1665
      7 O           1.9478    2.2358    0.2692 O.3     1  LIG1       -0.4526
      8 C           3.3145    1.8510    0.0145 C.3     1  LIG1        0.2332
      9 O           3.4922    0.4282   -0.1439 O.3     1  LIG1       -0.4526
     10 C           2.2154   -0.0082    0.0255 C.ar    1  LIG1        0.1662
     11 C           1.7996   -1.3202   -0.0270 C.ar    1  LIG1       -0.0159
     12 C           0.4401   -1.5802    0.1734 C.ar    1  LIG1       -0.0546
     13 H          -4.2595   -0.0115   -1.8611 H       1  LIG1        0.0532
     14 H          -4.1065    0.7138   -0.1589 H       1  LIG1        0.0532
     15 H          -2.3863   -1.4888   -1.4430 H       1  LIG1        0.0570
     16 H          -2.0530   -1.8156    1.0910 H       1  LIG1        0.0355
     17 H          -2.3581   -0.1130    1.3487 H       1  LIG1        0.0355
     18 H          -0.6854    1.6273    0.6378 H       1  LIG1        0.0658
     19 H           3.9357    2.1903    0.8515 H       1  LIG1        0.1166
     20 H           3.6547    2.3504   -0.9000 H       1  LIG1        0.1166
     21 H           2.5034   -2.1218   -0.2189 H       1  LIG1        0.0655
     22 H           0.0870   -2.6088    0.1307 H       1  LIG1        0.0622
@<TRIPOS>BOND
     1     1     2    2
     2     2     3    1
     3     3     4    1
     4     4     5   ar
     5     5     6   ar
     6     6     7    1
     7     7     8    1
     8     8     9    1
     9     6    10   ar
    10     9    10    1
    11    10    11   ar
    12    11    12   ar
    13     4    12   ar
    14     1    13    1
    15     1    14    1
    16     2    15    1
    17     3    16    1
    18     3    17    1
    19     5    18    1
    20     8    19    1
    21     8    20    1
    22    11    21    1
    23    12    22    1
