@<TRIPOS>MOLECULE
NuBBE_1356
 92 96 0 0 0
SMALL
GASTEIGER

@<TRIPOS>ATOM
      1 C          -3.2359   -3.1335   -2.6526 C.3     1  LIG1       -0.0562
      2 C          -2.5734   -2.4179   -1.4346 C.3     1  LIG1        0.0055
      3 C          -2.7235   -3.4246   -0.2195 C.3     1  LIG1        0.1084
      4 O          -3.4667   -2.8332    0.8965 O.3     1  LIG1       -0.4610
      5 C          -4.6233   -3.4219    1.3010 C.2     1  LIG1        0.3042
      6 C          -5.0794   -2.8847    2.6261 C.3     1  LIG1        0.0332
      7 O          -5.2221   -4.3163    0.6978 O.2     1  LIG1       -0.2512
      8 C          -1.4410   -4.0148    0.4039 C.3     1  LIG1       -0.0146
      9 C          -0.1121   -3.6956   -0.2771 C.3     1  LIG1       -0.0437
     10 C          -0.0098   -2.2190   -0.7376 C.3     1  LIG1       -0.0249
     11 C          -1.0752   -2.0867   -1.8651 C.3     1  LIG1       -0.0268
     12 C          -0.9329   -0.7435   -2.6046 C.3     1  LIG1       -0.0486
     13 C           0.4403   -0.5771   -3.2300 C.3     1  LIG1       -0.0463
     14 C           1.6288   -0.6240   -2.2374 C.3     1  LIG1       -0.0193
     15 C           1.4573   -1.8955   -1.2933 C.3     1  LIG1       -0.0257
     16 C           2.5670   -1.8669   -0.2205 C.3     1  LIG1       -0.0306
     17 C           2.6163   -0.5858    0.5497 C.2     1  LIG1       -0.0836
     18 C           2.2544    0.6253    0.0827 C.2     1  LIG1       -0.0629
     19 C           1.9471    0.8194   -1.4206 C.3     1  LIG1       -0.0018
     20 C           0.9024    1.9898   -1.5902 C.3     1  LIG1       -0.0055
     21 C          -0.0132    2.3311   -0.3967 C.3     1  LIG1        0.1097
     22 H          -0.7412    1.5293   -0.2738 H       1  LIG1        0.0740
     23 C           0.7590    2.5474    0.9780 C.3     1  LIG1        0.0118
     24 C           2.2038    1.9121    0.9528 C.3     1  LIG1       -0.0078
     25 C           2.8704    1.7823    2.3775 C.3     1  LIG1       -0.0341
     26 H           3.7096    1.0805    2.2825 H       1  LIG1        0.0307
     27 C           1.9117    1.2026    3.4528 C.3     1  LIG1       -0.0407
     28 H           1.7198    0.1529    3.1982 H       1  LIG1        0.0301
     29 C           0.5500    1.9005    3.4819 C.3     1  LIG1       -0.0496
     30 C          -0.1069    1.9208    2.1071 C.3     1  LIG1       -0.0434
     31 C           2.5198    1.1958    4.8596 C.3     1  LIG1       -0.0622
     32 C           3.5780    3.0745    2.8311 C.3     1  LIG1       -0.0616
     33 C           0.8692    4.0663    1.2985 C.3     1  LIG1       -0.0556
     34 O          -0.8356    3.5150   -0.6684 O.3     1  LIG1       -0.4609
     35 C          -1.7499    3.4832   -1.6752 C.2     1  LIG1        0.3042
     36 C          -2.7007    4.6403   -1.5735 C.3     1  LIG1        0.0332
     37 O          -1.8592    2.6067   -2.5192 O.2     1  LIG1       -0.2512
     38 C           3.2613    1.4459   -2.0127 C.3     1  LIG1       -0.0552
     39 C           2.8394   -1.0050   -3.1816 C.3     1  LIG1       -0.0585
     40 C          -0.3313   -1.3278    0.4567 C.3     1  LIG1       -0.0590
     41 H          -3.2932   -4.2929   -0.5716 H       1  LIG1        0.0739
     42 C          -3.4126   -1.1270   -1.2358 C.3     1  LIG1       -0.0562
     43 H          -2.7293   -4.0791   -2.8783 H       1  LIG1        0.0236
     44 H          -3.2052   -2.5149   -3.5557 H       1  LIG1        0.0236
     45 H          -4.2888   -3.3615   -2.4465 H       1  LIG1        0.0236
     46 H          -4.3865   -2.1317    3.0071 H       1  LIG1        0.0342
     47 H          -5.1167   -3.7067    3.3514 H       1  LIG1        0.0342
     48 H          -6.0713   -2.4329    2.5322 H       1  LIG1        0.0342
     49 H          -1.5471   -5.1068    0.4449 H       1  LIG1        0.0301
     50 H          -1.3683   -3.7136    1.4588 H       1  LIG1        0.0301
     51 H           0.0212   -4.3710   -1.1328 H       1  LIG1        0.0272
     52 H           0.6917   -3.9492    0.4234 H       1  LIG1        0.0272
     53 H          -0.8010   -2.8517   -2.6103 H       1  LIG1        0.0312
     54 H          -1.1393    0.0884   -1.9334 H       1  LIG1        0.0268
     55 H          -1.6666   -0.6885   -3.4168 H       1  LIG1        0.0268
     56 H           0.4803    0.3290   -3.8442 H       1  LIG1        0.0271
     57 H           0.5414   -1.3951   -3.9596 H       1  LIG1        0.0271
     58 H           1.6873   -2.7777   -1.9131 H       1  LIG1        0.0315
     59 H           3.5542   -2.0398   -0.6661 H       1  LIG1        0.0310
     60 H           2.4291   -2.6917    0.4856 H       1  LIG1        0.0310
     61 H           2.9217   -0.7270    1.5803 H       1  LIG1        0.0572
     62 H           0.3062    1.8249   -2.4834 H       1  LIG1        0.0310
     63 H           1.4159    2.9304   -1.8390 H       1  LIG1        0.0310
     64 H           2.8420    2.6227    0.4133 H       1  LIG1        0.0355
     65 H           0.6356    2.9149    3.8847 H       1  LIG1        0.0268
     66 H          -0.1150    1.3612    4.1702 H       1  LIG1        0.0268
     67 H          -1.0674    2.4477    2.1792 H       1  LIG1        0.0272
     68 H          -0.3600    0.8884    1.8624 H       1  LIG1        0.0272
     69 H           2.6396    2.2091    5.2572 H       1  LIG1        0.0233
     70 H           3.4985    0.7062    4.8608 H       1  LIG1        0.0233
     71 H           1.8719    0.6499    5.5543 H       1  LIG1        0.0233
     72 H           2.9348    3.7361    3.4145 H       1  LIG1        0.0233
     73 H           3.9843    3.6362    1.9841 H       1  LIG1        0.0233
     74 H           4.4295    2.8230    3.4753 H       1  LIG1        0.0233
     75 H           1.4642    4.5934    0.5469 H       1  LIG1        0.0236
     76 H           1.3253    4.2602    2.2686 H       1  LIG1        0.0236
     77 H          -0.1156    4.5439    1.3590 H       1  LIG1        0.0236
     78 H          -3.2492    4.7369   -2.5161 H       1  LIG1        0.0342
     79 H          -2.1687    5.5776   -1.3960 H       1  LIG1        0.0342
     80 H          -3.4162    4.4463   -0.7703 H       1  LIG1        0.0342
     81 H           3.5055    2.4174   -1.5678 H       1  LIG1        0.0238
     82 H           3.1583    1.6348   -3.0869 H       1  LIG1        0.0238
     83 H           4.1396    0.8174   -1.8354 H       1  LIG1        0.0238
     84 H           2.9610   -0.2853   -3.9982 H       1  LIG1        0.0235
     85 H           2.6755   -1.9757   -3.6686 H       1  LIG1        0.0235
     86 H           3.7874   -1.0964   -2.6460 H       1  LIG1        0.0235
     87 H          -1.3487   -1.4199    0.8299 H       1  LIG1        0.0235
     88 H          -0.2105   -0.2985    0.1630 H       1  LIG1        0.0235
     89 H           0.3205   -1.5392    1.3096 H       1  LIG1        0.0235
     90 H          -3.5677   -0.6022   -2.1877 H       1  LIG1        0.0236
     91 H          -2.9341   -0.4233   -0.5492 H       1  LIG1        0.0236
     92 H          -4.4164   -1.3445   -0.8578 H       1  LIG1        0.0236
@<TRIPOS>BOND
     1     2     3    1
     2     4     5    1
     3     5     6    1
     4     5     7    2
     5     3     8    1
     6     8     9    1
     7     9    10    1
     8    10    11    1
     9    11    12    1
    10    12    13    1
    11    13    14    1
    12    14    15    1
    13    15    16    1
    14    16    17    1
    15    17    18    2
    16    18    19    1
    17    19    20    1
    18    20    21    1
    19    21    23    1
    20    23    24    1
    21    18    24    1
    22    24    25    1
    23    25    27    1
    24    27    29    1
    25    29    30    1
    26    30    23    1
    27    34    35    1
    28    35    36    1
    29    35    37    2
    30    14    19    1
    31    15    10    1
    32    11     2    1
    33     1     2    1
    34     2    42    1
    35     3     4    1
    36     3    41    1
    37    10    40    1
    38    14    39    1
    39    19    38    1
    40    23    33    1
    41    27    28    1
    42    27    31    1
    43    21    34    1
    44    21    22    1
    45    25    32    1
    46    25    26    1
    47     1    43    1
    48     1    44    1
    49     1    45    1
    50     6    46    1
    51     6    47    1
    52     6    48    1
    53     8    49    1
    54     8    50    1
    55     9    51    1
    56     9    52    1
    57    11    53    1
    58    12    54    1
    59    12    55    1
    60    13    56    1
    61    13    57    1
    62    15    58    1
    63    16    59    1
    64    16    60    1
    65    17    61    1
    66    20    62    1
    67    20    63    1
    68    24    64    1
    69    29    65    1
    70    29    66    1
    71    30    67    1
    72    30    68    1
    73    31    69    1
    74    31    70    1
    75    31    71    1
    76    32    72    1
    77    32    73    1
    78    32    74    1
    79    33    75    1
    80    33    76    1
    81    33    77    1
    82    36    78    1
    83    36    79    1
    84    36    80    1
    85    38    81    1
    86    38    82    1
    87    38    83    1
    88    39    84    1
    89    39    85    1
    90    39    86    1
    91    40    87    1
    92    40    88    1
    93    40    89    1
    94    42    90    1
    95    42    91    1
    96    42    92    1
