@<TRIPOS>MOLECULE
NuBBE_439
 86 90 0 0 0
SMALL
GASTEIGER

@<TRIPOS>ATOM
      1 C          -8.3302   -2.2791    0.5672 C.3     1  LIG1        0.0332
      2 C          -7.1425   -1.5209    0.0462 C.2     1  LIG1        0.3042
      3 O          -6.0081   -1.9470    0.6688 O.3     1  LIG1       -0.4610
      4 C          -4.7860   -1.2277    0.3715 C.3     1  LIG1        0.1084
      5 C          -4.1198   -1.8456   -0.8579 C.3     1  LIG1       -0.0146
      6 C          -2.7261   -1.2699   -1.1382 C.3     1  LIG1       -0.0437
      7 C          -1.7430   -1.3601    0.0725 C.3     1  LIG1       -0.0252
      8 C          -1.4379   -2.8602    0.2996 C.3     1  LIG1       -0.0590
      9 C          -2.4619   -0.6583    1.2863 C.3     1  LIG1       -0.0268
     10 H          -2.6489    0.3754    0.9479 H       1  LIG1        0.0312
     11 C          -1.5209   -0.5148    2.4995 C.3     1  LIG1       -0.0486
     12 C          -0.2910    0.3196    2.1562 C.3     1  LIG1       -0.0466
     13 C           0.5535   -0.2451    0.9827 C.3     1  LIG1       -0.0231
     14 C           1.2142   -1.5620    1.4946 C.3     1  LIG1       -0.0588
     15 C          -0.4153   -0.5238   -0.2440 C.3     1  LIG1       -0.0294
     16 C           0.3862   -1.0120   -1.4717 C.3     1  LIG1       -0.0489
     17 C           1.4754   -0.0126   -1.8746 C.3     1  LIG1       -0.0491
     18 C           2.4535    0.2877   -0.7354 C.3     1  LIG1       -0.0313
     19 C           1.7145    0.8213    0.5444 C.3     1  LIG1       -0.0233
     20 C           1.0881    2.2210    0.2803 C.3     1  LIG1       -0.0588
     21 C           2.7642    1.0067    1.6800 C.3     1  LIG1       -0.0464
     22 C           3.9799    1.8281    1.2675 C.3     1  LIG1       -0.0468
     23 C           4.7262    1.2490    0.0464 C.3     1  LIG1       -0.0284
     24 C           5.4573   -0.0505    0.4359 C.3     1  LIG1       -0.0593
     25 C           3.7705    1.0105   -1.1723 C.3     1  LIG1       -0.0258
     26 C           3.8214    2.3678   -1.9338 C.3     1  LIG1       -0.0168
     27 H           3.3233    3.1520   -1.3576 H       1  LIG1        0.0348
     28 C           3.2832    2.4441   -3.3603 C.2     1  LIG1       -0.0763
     29 C           1.8351    2.8176   -3.5426 C.3     1  LIG1       -0.0438
     30 C           4.0280    2.3303   -4.4759 C.2     1  LIG1       -0.0994
     31 C           5.3314    2.6887   -1.8403 C.3     1  LIG1       -0.0457
     32 C           5.7552    2.2983   -0.4330 C.3     1  LIG1       -0.0468
     33 H           4.2683    0.2927   -1.8460 H       1  LIG1        0.0315
     34 H           2.8333   -0.7028   -0.4533 H       1  LIG1        0.0309
     35 H          -0.8107    0.4572   -0.5399 H       1  LIG1        0.0312
     36 C          -3.8883   -1.2090    1.6509 C.3     1  LIG1        0.0055
     37 C          -4.5852   -0.2370    2.6475 C.3     1  LIG1       -0.0562
     38 C          -3.8380   -2.5829    2.3544 C.3     1  LIG1       -0.0562
     39 O          -7.2054   -0.6476   -0.7992 O.2     1  LIG1       -0.2512
     40 H          -8.3858   -2.1826    1.6548 H       1  LIG1        0.0342
     41 H          -8.2643   -3.3300    0.2769 H       1  LIG1        0.0342
     42 H          -9.2438   -1.8529    0.1424 H       1  LIG1        0.0342
     43 H          -5.0303   -0.1851    0.1241 H       1  LIG1        0.0739
     44 H          -4.7536   -1.6643   -1.7361 H       1  LIG1        0.0301
     45 H          -4.0950   -2.9366   -0.7680 H       1  LIG1        0.0301
     46 H          -2.8435   -0.2199   -1.4382 H       1  LIG1        0.0272
     47 H          -2.3147   -1.7946   -2.0082 H       1  LIG1        0.0272
     48 H          -2.2504   -3.5152   -0.0219 H       1  LIG1        0.0235
     49 H          -1.2660   -3.1060    1.3475 H       1  LIG1        0.0235
     50 H          -0.5697   -3.1974   -0.2714 H       1  LIG1        0.0235
     51 H          -1.2148   -1.4850    2.8961 H       1  LIG1        0.0268
     52 H          -2.0295   -0.0013    3.3210 H       1  LIG1        0.0268
     53 H           0.3250    0.4182    3.0578 H       1  LIG1        0.0271
     54 H          -0.6588    1.3234    1.9237 H       1  LIG1        0.0271
     55 H           0.4933   -2.3086    1.8127 H       1  LIG1        0.0235
     56 H           1.8170   -1.3945    2.3915 H       1  LIG1        0.0235
     57 H           1.8487   -2.0459    0.7501 H       1  LIG1        0.0235
     58 H          -0.2743   -1.1407   -2.3347 H       1  LIG1        0.0268
     59 H           0.8506   -1.9853   -1.2881 H       1  LIG1        0.0268
     60 H           0.9674    0.8947   -2.1913 H       1  LIG1        0.0268
     61 H           2.0161   -0.4083   -2.7422 H       1  LIG1        0.0268
     62 H           0.2677    2.1994   -0.4387 H       1  LIG1        0.0235
     63 H           1.8094    2.9396   -0.0999 H       1  LIG1        0.0235
     64 H           0.7084    2.6737    1.2020 H       1  LIG1        0.0235
     65 H           3.1429    0.0460    2.0335 H       1  LIG1        0.0271
     66 H           2.3006    1.4863    2.5505 H       1  LIG1        0.0271
     67 H           4.6668    1.8889    2.1225 H       1  LIG1        0.0271
     68 H           3.6677    2.8610    1.0744 H       1  LIG1        0.0271
     69 H           6.1500    0.1229    1.2671 H       1  LIG1        0.0235
     70 H           6.0429   -0.4388   -0.4052 H       1  LIG1        0.0235
     71 H           4.7674   -0.8425    0.7416 H       1  LIG1        0.0235
     72 H           1.7407    3.7364   -4.1306 H       1  LIG1        0.0274
     73 H           1.3365    3.0027   -2.5882 H       1  LIG1        0.0274
     74 H           1.2987    2.0198   -4.0685 H       1  LIG1        0.0274
     75 H           3.5833    2.4578   -5.4598 H       1  LIG1        0.0534
     76 H           5.0918    2.1270   -4.4677 H       1  LIG1        0.0534
     77 H           5.5432    3.7432   -2.0469 H       1  LIG1        0.0271
     78 H           5.9227    2.0855   -2.5381 H       1  LIG1        0.0271
     79 H           5.7634    3.1860    0.2105 H       1  LIG1        0.0271
     80 H           6.7817    1.9137   -0.4412 H       1  LIG1        0.0271
     81 H          -4.5555    0.7950    2.2790 H       1  LIG1        0.0236
     82 H          -4.1223   -0.2574    3.6384 H       1  LIG1        0.0236
     83 H          -5.6399   -0.5004    2.7893 H       1  LIG1        0.0236
     84 H          -3.7351   -3.4105    1.6502 H       1  LIG1        0.0236
     85 H          -4.7485   -2.7703    2.9349 H       1  LIG1        0.0236
     86 H          -3.0112   -2.6460    3.0683 H       1  LIG1        0.0236
@<TRIPOS>BOND
     1     1     2    1
     2     2     3    1
     3     4     5    1
     4     5     6    1
     5     6     7    1
     6     7     9    1
     7     9    11    1
     8    11    12    1
     9    12    13    1
    10    13    15    1
    11    15    16    1
    12    16    17    1
    13    17    18    1
    14    18    19    1
    15    13    19    1
    16    19    21    1
    17    21    22    1
    18    22    23    1
    19    23    25    1
    20    25    26    1
    21    28    29    1
    22    28    30    2
    23    26    31    1
    24    31    32    1
    25    23    32    1
    26    18    25    1
    27     7    15    1
    28     9    36    1
    29     4    36    1
    30     2    39    2
    31     3     4    1
    32     7     8    1
    33     9    10    1
    34    13    14    1
    35    15    35    1
    36    18    34    1
    37    19    20    1
    38    23    24    1
    39    25    33    1
    40    26    27    1
    41    26    28    1
    42    36    37    1
    43    36    38    1
    44     1    40    1
    45     1    41    1
    46     1    42    1
    47     4    43    1
    48     5    44    1
    49     5    45    1
    50     6    46    1
    51     6    47    1
    52     8    48    1
    53     8    49    1
    54     8    50    1
    55    11    51    1
    56    11    52    1
    57    12    53    1
    58    12    54    1
    59    14    55    1
    60    14    56    1
    61    14    57    1
    62    16    58    1
    63    16    59    1
    64    17    60    1
    65    17    61    1
    66    20    62    1
    67    20    63    1
    68    20    64    1
    69    21    65    1
    70    21    66    1
    71    22    67    1
    72    22    68    1
    73    24    69    1
    74    24    70    1
    75    24    71    1
    76    29    72    1
    77    29    73    1
    78    29    74    1
    79    30    75    1
    80    30    76    1
    81    31    77    1
    82    31    78    1
    83    32    79    1
    84    32    80    1
    85    37    81    1
    86    37    82    1
    87    37    83    1
    88    38    84    1
    89    38    85    1
    90    38    86    1
