REMARK  Name = NuBBE_2059
REMARK  9 active torsions:
REMARK  status: ('A' for Active; 'I' for Inactive)
REMARK    1  A    between atoms: C_5  and  O_6
REMARK    2  A    between atoms: O_6  and  C_7
REMARK    3  A    between atoms: C_8  and  O_9
REMARK    4  A    between atoms: O_9  and  C_10
REMARK    5  A    between atoms: C_10  and  C_11
REMARK    6  A    between atoms: C_12  and  C_13
REMARK    7  A    between atoms: C_12  and  C_14
REMARK    8  A    between atoms: C_15  and  O_20
REMARK    9  A    between atoms: O_20  and  C_21
REMARK                            x       y       z     vdW  Elec       q    Type
REMARK                         _______ _______ _______ _____ _____    ______ ____
ROOT
ATOM      1  O   LIG A   1      -5.476   2.232  -1.000  0.00  0.00    -0.245 OA
ATOM      2  C   LIG A   1      -4.309   2.482  -0.760  0.00  0.00    +0.337 A 
ATOM      3  O   LIG A   1      -3.349   1.496  -0.654  0.00  0.00    -0.418 OA
ATOM      4  C   LIG A   1      -1.974   1.765  -0.462  0.00  0.00    +0.184 A 
ATOM      5  C   LIG A   1      -1.072   0.696  -0.450  0.00  0.00    +0.209 A 
ATOM      6  C   LIG A   1       0.273   0.946  -0.112  0.00  0.00    +0.208 A 
ATOM      7  C   LIG A   1       0.713   2.285  -0.019  0.00  0.00    +0.166 A 
ATOM      8  C   LIG A   1      -0.211   3.342  -0.066  0.00  0.00    +0.061 A 
ATOM      9  C   LIG A   1      -1.568   3.083  -0.265  0.00  0.00    +0.025 A 
ATOM     10  C   LIG A   1      -2.561   4.153  -0.321  0.00  0.00    +0.019 A 
ATOM     11  C   LIG A   1      -3.841   3.861  -0.562  0.00  0.00    +0.092 A 
ENDROOT
BRANCH   5  12
ATOM     12  O   LIG A   1      -1.373  -0.596  -0.778  0.00  0.00    -0.488 OA
ATOM     13  C   LIG A   1      -2.582  -0.912  -1.441  0.00  0.00    +0.277 C 
ENDBRANCH   5  12
BRANCH   7  14
ATOM     14  O   LIG A   1       2.018   2.693   0.119  0.00  0.00    -0.491 OA
ATOM     15  C   LIG A   1       2.976   1.878  -0.558  0.00  0.00    +0.277 C 
ENDBRANCH   7  14
BRANCH   6  16
ATOM     16  O   LIG A   1       1.210  -0.045   0.124  0.00  0.00    -0.481 OA
BRANCH  16  17
ATOM     17  C   LIG A   1       0.706  -1.314   0.562  0.00  0.00    +0.257 C 
BRANCH  17  18
ATOM     18  C   LIG A   1       1.779  -2.054   1.300  0.00  0.00    +0.012 C 
ATOM     19  C   LIG A   1       2.151  -3.344   1.167  0.00  0.00    -0.076 C 
ATOM     20  C   LIG A   1       1.584  -4.337   0.185  0.00  0.00    +0.038 C 
ATOM     21  C   LIG A   1       3.208  -3.911   2.076  0.00  0.00    +0.038 C 
ENDBRANCH  17  18
ENDBRANCH  16  17
ENDBRANCH   6  16
TORSDOF 5
