REMARK  Name = NuBBE_1560
REMARK  7 active torsions:
REMARK  status: ('A' for Active; 'I' for Inactive)
REMARK    1  A    between atoms: C_3  and  C_14
REMARK    2  A    between atoms: C_8  and  O_9
REMARK    3  A    between atoms: C_11  and  O_13
REMARK    4  A    between atoms: C_15  and  O_16
REMARK    5  A    between atoms: O_16  and  C_17
REMARK    6  A    between atoms: C_19  and  O_22
REMARK    7  A    between atoms: O_22  and  C_23
REMARK                            x       y       z     vdW  Elec       q    Type
REMARK                         _______ _______ _______ _____ _____    ______ ____
ROOT
ATOM      1  O   LIG A   1       0.592   0.623  -1.855  0.00  0.00    -0.286 OA
ATOM      2  C   LIG A   1       0.620   1.122  -0.737  0.00  0.00    +0.204 A 
ATOM      3  C   LIG A   1      -0.186   0.616   0.404  0.00  0.00    +0.068 A 
ATOM      4  C   LIG A   1      -0.149   1.323   1.542  0.00  0.00    +0.208 A 
ATOM      5  O   LIG A   1       0.554   2.486   1.760  0.00  0.00    -0.462 OA
ATOM      6  C   LIG A   1       1.397   2.918   0.766  0.00  0.00    +0.145 A 
ATOM      7  C   LIG A   1       1.485   2.287  -0.473  0.00  0.00    +0.106 A 
ATOM      8  C   LIG A   1       2.393   2.757  -1.429  0.00  0.00    +0.135 A 
ATOM      9  C   LIG A   1       3.214   3.850  -1.147  0.00  0.00    +0.091 A 
ATOM     10  C   LIG A   1       3.100   4.483   0.087  0.00  0.00    +0.124 A 
ATOM     11  C   LIG A   1       2.196   4.030   1.044  0.00  0.00    +0.092 A 
ENDROOT
BRANCH   3  12
ATOM     12  C   LIG A   1      -0.982  -0.618   0.300  0.00  0.00    +0.031 A 
ATOM     13  C   LIG A   1      -0.436  -1.883   0.590  0.00  0.00    +0.131 A 
ATOM     14  C   LIG A   1      -1.242  -3.026   0.486  0.00  0.00    +0.091 A 
ATOM     15  C   LIG A   1      -2.579  -2.927   0.080  0.00  0.00    +0.124 A 
ATOM     16  C   LIG A   1      -3.111  -1.675  -0.219  0.00  0.00    +0.046 A 
ATOM     17  C   LIG A   1      -2.321  -0.528  -0.107  0.00  0.00    +0.016 A 
BRANCH  13  18
ATOM     18  O   LIG A   1       0.865  -1.905   1.029  0.00  0.00    -0.494 OA
ATOM     19  C   LIG A   1       1.603  -3.089   0.742  0.00  0.00    +0.277 C 
ENDBRANCH  13  18
BRANCH  15  20
ATOM     20  O   LIG A   1      -3.264  -4.113   0.028  0.00  0.00    -0.495 OA
ATOM     21  C   LIG A   1      -4.619  -4.043  -0.408  0.00  0.00    +0.277 C 
ENDBRANCH  15  20
ENDBRANCH   3  12
BRANCH   8  22
ATOM     22  O   LIG A   1       2.539   2.186  -2.665  0.00  0.00    -0.506 OA
ATOM     23  H   LIG A   1       1.873   1.464  -2.743  0.00  0.00    +0.292 HD
ENDBRANCH   8  22
BRANCH  10  24
ATOM     24  O   LIG A   1       3.872   5.562   0.403  0.00  0.00    -0.506 OA
ATOM     25  H   LIG A   1       4.441   5.775  -0.357  0.00  0.00    +0.292 HD
ENDBRANCH  10  24
TORSDOF 5
