@<TRIPOS>MOLECULE
NuBBE_1416
 44 49 0 0 0
SMALL
GASTEIGER

@<TRIPOS>ATOM
      1 H          -2.0777    0.5603   -0.8610 H       1  LIG1        0.0356
      2 C          -1.0462    0.5977   -1.2276 C.3     1  LIG1        0.0205
      3 C          -0.3787    1.9595   -1.1227 C.3     1  LIG1        0.0891
      4 H          -0.5234    2.5599   -2.0285 H       1  LIG1        0.0650
      5 C          -0.8744    2.7815    0.0600 C.ar    1  LIG1       -0.0149
      6 C           0.0030    3.2076    1.0878 C.ar    1  LIG1       -0.0524
      7 C          -0.4523    3.9701    2.1691 C.ar    1  LIG1       -0.0158
      8 C          -1.7873    4.3010    2.2013 C.ar    1  LIG1        0.1662
      9 O          -2.4028    5.0296    3.1696 O.3     1  LIG1       -0.4526
     10 C          -3.7584    5.0420    2.6772 C.3     1  LIG1        0.2332
     11 O          -3.9217    4.3417    1.4257 O.3     1  LIG1       -0.4526
     12 C          -2.6505    3.9088    1.2079 C.ar    1  LIG1        0.1666
     13 C          -2.2287    3.1602    0.1274 C.ar    1  LIG1       -0.0105
     14 O           1.0324    1.6913   -0.9982 O.3     1  LIG1       -0.3712
     15 C           1.2315    0.2924   -0.7318 C.3     1  LIG1        0.0544
     16 C          -0.1364   -0.3125   -0.4493 C.3     1  LIG1        0.0205
     17 C          -0.4093   -1.6730   -1.0696 C.3     1  LIG1        0.0891
     18 H          -1.3308   -2.0930   -0.6448 H       1  LIG1        0.0650
     19 C           0.6922   -2.6919   -0.8740 C.ar    1  LIG1       -0.0149
     20 C           1.3657   -3.2777   -1.9715 C.ar    1  LIG1       -0.0524
     21 C           2.3859   -4.2167   -1.7809 C.ar    1  LIG1       -0.0158
     22 C           2.7107   -4.5573   -0.4874 C.ar    1  LIG1        0.1662
     23 C           2.0611   -4.0031    0.5884 C.ar    1  LIG1        0.1666
     24 O           2.5278   -4.4728    1.7762 O.3     1  LIG1       -0.4526
     25 C           3.5440   -5.3914    1.3225 C.3     1  LIG1        0.2332
     26 O           3.6688   -5.4465   -0.1136 O.3     1  LIG1       -0.4526
     27 C           1.0519   -3.0762    0.4314 C.ar    1  LIG1       -0.0105
     28 O          -0.7105   -1.4174   -2.4565 O.3     1  LIG1       -0.3712
     29 C          -0.9843   -0.0159   -2.6205 C.3     1  LIG1        0.0544
     30 H          -0.3412   -0.2900    0.6271 H       1  LIG1        0.0356
     31 H           1.0604    2.9492    1.0473 H       1  LIG1        0.0622
     32 H           0.2241    4.2924    2.9521 H       1  LIG1        0.0655
     33 H          -4.0728    6.0831    2.5411 H       1  LIG1        0.1166
     34 H          -4.4068    4.5745    3.4274 H       1  LIG1        0.1166
     35 H          -2.9384    2.8801   -0.6437 H       1  LIG1        0.0659
     36 H           1.9076    0.1861    0.1224 H       1  LIG1        0.0564
     37 H           1.7265   -0.1387   -1.6081 H       1  LIG1        0.0564
     38 H           1.0937   -2.9999   -2.9890 H       1  LIG1        0.0622
     39 H           2.9018   -4.6630   -2.6235 H       1  LIG1        0.0655
     40 H           3.2999   -6.3940    1.6922 H       1  LIG1        0.1166
     41 H           4.5073   -5.0855    1.7467 H       1  LIG1        0.1166
     42 H           0.5559   -2.6644    1.3043 H       1  LIG1        0.0659
     43 H          -1.9298    0.1028   -3.1587 H       1  LIG1        0.0564
     44 H          -0.1898    0.4089   -3.2440 H       1  LIG1        0.0564
@<TRIPOS>BOND
     1     2     3    1
     2     5     6   ar
     3     6     7   ar
     4     7     8   ar
     5     8     9    1
     6     9    10    1
     7    10    11    1
     8    11    12    1
     9     8    12   ar
    10    12    13   ar
    11     5    13   ar
    12     3    14    1
    13    14    15    1
    14    15    16    1
    15    16    17    1
    16    19    20   ar
    17    20    21   ar
    18    21    22   ar
    19    22    23   ar
    20    23    24    1
    21    24    25    1
    22    25    26    1
    23    22    26    1
    24    23    27   ar
    25    19    27   ar
    26    17    28    1
    27    28    29    1
    28     2    29    1
    29     2    16    1
    30     1     2    1
    31    16    30    1
    32     3     5    1
    33     3     4    1
    34    17    19    1
    35    17    18    1
    36     6    31    1
    37     7    32    1
    38    10    33    1
    39    10    34    1
    40    13    35    1
    41    15    36    1
    42    15    37    1
    43    20    38    1
    44    21    39    1
    45    25    40    1
    46    25    41    1
    47    27    42    1
    48    29    43    1
    49    29    44    1
