REMARK  Name = NuBBE_23
REMARK  8 active torsions:
REMARK  status: ('A' for Active; 'I' for Inactive)
REMARK    1  A    between atoms: C_2  and  C_9
REMARK    2  A    between atoms: N_3  and  C_5
REMARK    3  A    between atoms: C_5  and  C_6
REMARK    4  A    between atoms: C_6  and  C_7
REMARK    5  A    between atoms: C_6  and  C_8
REMARK    6  A    between atoms: C_10  and  C_11
REMARK    7  A    between atoms: C_11  and  C_12
REMARK    8  A    between atoms: C_12  and  C_13
REMARK                            x       y       z     vdW  Elec       q    Type
REMARK                         _______ _______ _______ _____ _____    ______ ____
ROOT
ATOM      1  C   LIG A   1       2.959   0.070   2.206  0.00  0.00    +0.032 C 
ENDROOT
BRANCH   1   3
ATOM      2  C   LIG A   1       0.955  -0.979   1.114  0.00  0.00    +0.063 C 
ATOM      3  C   LIG A   1       2.261  -1.025   1.437  0.00  0.00    -0.021 C 
BRANCH   2   5
ATOM      4  O   LIG A   1       0.738  -3.213   0.321  0.00  0.00    -0.271 OA
ATOM      5  C   LIG A   1       0.308  -2.063   0.328  0.00  0.00    +0.237 C 
ATOM      6  N   LIG A   1      -0.788  -1.631  -0.374  0.00  0.00    -0.312 N 
ATOM      7  H   LIG A   1      -1.081  -0.668  -0.270  0.00  0.00    +0.149 HD
BRANCH   6   8
ATOM      8  C   LIG A   1      -1.625  -2.495  -1.198  0.00  0.00    +0.107 C 
BRANCH   8   9
ATOM      9  C   LIG A   1      -2.838  -3.042  -0.426  0.00  0.00    +0.000 C 
ATOM     10  C   LIG A   1      -3.731  -1.914   0.098  0.00  0.00    +0.009 C 
ATOM     11  C   LIG A   1      -3.667  -3.982  -1.308  0.00  0.00    +0.009 C 
ENDBRANCH   8   9
ENDBRANCH   6   8
ENDBRANCH   2   5
ENDBRANCH   1   3
BRANCH   1  12
ATOM     12  C   LIG A   1       3.631   1.137   1.322  0.00  0.00    +0.039 C 
BRANCH  12  13
ATOM     13  C   LIG A   1       2.651   1.911   0.465  0.00  0.00    -0.043 A 
ATOM     14  C   LIG A   1       2.016   3.059   0.966  0.00  0.00    +0.053 A 
ATOM     15  C   LIG A   1       1.059   3.667   0.178  0.00  0.00    +0.167 A 
ATOM     16  O   LIG A   1       0.339   4.771   0.514  0.00  0.00    -0.453 OA
ATOM     17  C   LIG A   1      -0.466   4.941  -0.672  0.00  0.00    +0.466 C 
ATOM     18  O   LIG A   1      -0.259   3.909  -1.658  0.00  0.00    -0.453 OA
ATOM     19  C   LIG A   1       0.722   3.181  -1.063  0.00  0.00    +0.166 A 
ATOM     20  C   LIG A   1       1.338   2.072  -1.598  0.00  0.00    +0.050 A 
ATOM     21  C   LIG A   1       2.320   1.442  -0.829  0.00  0.00    +0.007 A 
ENDBRANCH  12  13
ENDBRANCH   1  12
TORSDOF 6
