REMARK  Name = NuBBE_2413
REMARK  5 active torsions:
REMARK  status: ('A' for Active; 'I' for Inactive)
REMARK    1  A    between atoms: O_1  and  C_2
REMARK    2  A    between atoms: C_3  and  C_10
REMARK    3  A    between atoms: C_6  and  O_8
REMARK    4  A    between atoms: O_8  and  C_9
REMARK    5  A    between atoms: C_18  and  O_21
REMARK                            x       y       z     vdW  Elec       q    Type
REMARK                         _______ _______ _______ _____ _____    ______ ____
ROOT
ATOM      1  C   LIG A   1      -0.041   0.337  -0.560  0.00  0.00    +0.064 C 
ATOM      2  C   LIG A   1      -1.397   0.244   0.147  0.00  0.00    +0.050 C 
ATOM      3  C   LIG A   1      -2.097   1.573   0.170  0.00  0.00    -0.005 A 
ATOM      4  C   LIG A   1      -1.447   2.748  -0.228  0.00  0.00    +0.127 A 
ATOM      5  O   LIG A   1      -0.159   2.777  -0.694  0.00  0.00    -0.491 OA
ATOM      6  C   LIG A   1       0.632   1.671  -0.240  0.00  0.00    +0.237 C 
ATOM      7  C   LIG A   1      -2.109   3.974  -0.189  0.00  0.00    +0.091 A 
ATOM      8  C   LIG A   1      -3.414   4.029   0.287  0.00  0.00    +0.120 A 
ATOM      9  C   LIG A   1      -4.072   2.877   0.701  0.00  0.00    +0.046 A 
ATOM     10  C   LIG A   1      -3.416   1.648   0.639  0.00  0.00    +0.011 A 
ENDROOT
BRANCH   1  12
ATOM     11  C   LIG A   1       1.330  -1.187   0.999  0.00  0.00    +0.124 A 
ATOM     12  C   LIG A   1       0.858  -0.849  -0.275  0.00  0.00    +0.001 A 
ATOM     13  C   LIG A   1       1.252  -1.644  -1.358  0.00  0.00    +0.011 A 
ATOM     14  C   LIG A   1       2.088  -2.741  -1.166  0.00  0.00    +0.046 A 
ATOM     15  C   LIG A   1       2.542  -3.078   0.108  0.00  0.00    +0.124 A 
ATOM     16  C   LIG A   1       2.161  -2.294   1.200  0.00  0.00    +0.091 A 
BRANCH  11  17
ATOM     17  O   LIG A   1       0.971  -0.408   2.064  0.00  0.00    -0.506 OA
ATOM     18  H   LIG A   1       1.318  -0.798   2.881  0.00  0.00    +0.292 HD
ENDBRANCH  11  17
BRANCH  15  19
ATOM     19  O   LIG A   1       3.360  -4.145   0.379  0.00  0.00    -0.495 OA
ATOM     20  C   LIG A   1       3.715  -4.941  -0.750  0.00  0.00    +0.277 C 
ENDBRANCH  15  19
ENDBRANCH   1  12
BRANCH   8  21
ATOM     21  O   LIG A   1      -4.088   5.211   0.375  0.00  0.00    -0.507 OA
ATOM     22  H   LIG A   1      -3.493   5.923   0.086  0.00  0.00    +0.292 HD
ENDBRANCH   8  21
TORSDOF 4
