@<TRIPOS>MOLECULE
NuBBE_1337
 44 45 0 0 0
SMALL
GASTEIGER

@<TRIPOS>ATOM
      1 O           2.0866    1.2737    0.1463 O.3     1  LIG1       -0.4878
      2 C           1.4717    0.6931    1.3026 C.3     1  LIG1        0.1081
      3 C           0.0369    1.1409    1.3578 C.2     1  LIG1       -0.0481
      4 C          -1.0743    0.3730    1.3821 C.2     1  LIG1       -0.0731
      5 C          -2.4518    1.0134    1.5003 C.3     1  LIG1       -0.0285
      6 C          -3.3820    0.6685    0.3254 C.3     1  LIG1       -0.0308
      7 C          -4.7391    1.3147    0.4421 C.2     1  LIG1       -0.0850
      8 C          -5.8983    0.8306   -0.0493 C.2     1  LIG1       -0.0796
      9 C          -6.0391   -0.4473   -0.8330 C.3     1  LIG1       -0.0440
     10 C          -7.1931    1.5755    0.1461 C.3     1  LIG1       -0.0440
     11 C          -1.0727   -1.1341    1.3272 C.3     1  LIG1       -0.0437
     12 C           3.1578    0.5889   -0.3676 C.ar    1  LIG1        0.1245
     13 C           3.9544   -0.2999    0.3496 C.ar    1  LIG1        0.0231
     14 C           5.0153   -0.9374   -0.2919 C.ar    1  LIG1        0.1425
     15 O           5.7854   -1.8178    0.4972 O.2     1  LIG1       -0.4220
     16 C           6.8808   -2.4757   -0.0372 C.ar    1  LIG1        0.3372
     17 O           7.5831   -3.2283    0.6371 O.2     1  LIG1       -0.2452
     18 C           7.1761   -2.2443   -1.4588 C.ar    1  LIG1        0.0236
     19 C           6.4449   -1.4198   -2.2202 C.ar    1  LIG1       -0.0443
     20 C           5.3160   -0.7154   -1.6325 C.ar    1  LIG1        0.0178
     21 C           4.5242    0.1837   -2.3492 C.ar    1  LIG1       -0.0476
     22 C           3.4569    0.8385   -1.7129 C.ar    1  LIG1       -0.0191
     23 H           1.9834    1.0509    2.2050 H       1  LIG1        0.0742
     24 H           1.5394   -0.3956    1.2723 H       1  LIG1        0.0742
     25 H          -0.0787    2.2234    1.3988 H       1  LIG1        0.0605
     26 H          -2.3553    2.1047    1.5773 H       1  LIG1        0.0313
     27 H          -2.9088    0.6850    2.4434 H       1  LIG1        0.0313
     28 H          -3.4991   -0.4182    0.2867 H       1  LIG1        0.0310
     29 H          -2.9170    0.9910   -0.6136 H       1  LIG1        0.0310
     30 H          -4.7599    2.2678    0.9703 H       1  LIG1        0.0572
     31 H          -5.1018   -0.9953   -0.9503 H       1  LIG1        0.0274
     32 H          -6.4147   -0.2322   -1.8391 H       1  LIG1        0.0274
     33 H          -6.7490   -1.1166   -0.3359 H       1  LIG1        0.0274
     34 H          -7.0623    2.4921    0.7304 H       1  LIG1        0.0274
     35 H          -7.9139    0.9441    0.6761 H       1  LIG1        0.0274
     36 H          -7.6219    1.8544   -0.8222 H       1  LIG1        0.0274
     37 H          -0.0860   -1.5792    1.4640 H       1  LIG1        0.0274
     38 H          -1.4491   -1.4752    0.3573 H       1  LIG1        0.0274
     39 H          -1.7140   -1.5462    2.1132 H       1  LIG1        0.0274
     40 H           3.7868   -0.5106    1.3995 H       1  LIG1        0.0691
     41 H           8.0278   -2.7853   -1.8531 H       1  LIG1        0.0689
     42 H           6.6852   -1.2663   -3.2673 H       1  LIG1        0.0627
     43 H           4.7230    0.3910   -3.3980 H       1  LIG1        0.0626
     44 H           2.8464    1.5417   -2.2762 H       1  LIG1        0.0654
@<TRIPOS>BOND
     1     1     2    1
     2     2     3    1
     3     3     4    2
     4     4     5    1
     5     5     6    1
     6     6     7    1
     7     7     8    2
     8     8     9    1
     9     8    10    1
    10     4    11    1
    11     1    12    1
    12    12    13   ar
    13    13    14   ar
    14    14    15   ar
    15    15    16   ar
    16    16    17    2
    17    16    18   ar
    18    18    19   ar
    19    19    20   ar
    20    14    20   ar
    21    20    21   ar
    22    21    22   ar
    23    12    22   ar
    24     2    23    1
    25     2    24    1
    26     3    25    1
    27     5    26    1
    28     5    27    1
    29     6    28    1
    30     6    29    1
    31     7    30    1
    32     9    31    1
    33     9    32    1
    34     9    33    1
    35    10    34    1
    36    10    35    1
    37    10    36    1
    38    11    37    1
    39    11    38    1
    40    11    39    1
    41    13    40    1
    42    18    41    1
    43    19    42    1
    44    21    43    1
    45    22    44    1
