REMARK  Name = NuBBE_72
REMARK  11 active torsions:
REMARK  status: ('A' for Active; 'I' for Inactive)
REMARK    1  A    between atoms: C_1  and  C_2
REMARK    2  A    between atoms: C_4  and  C_5
REMARK    3  A    between atoms: C_4  and  C_14
REMARK    4  A    between atoms: C_6  and  O_10
REMARK    5  A    between atoms: O_10  and  C_11
REMARK    6  A    between atoms: C_11  and  C_12
REMARK    7  A    between atoms: C_18  and  C_19
REMARK    8  A    between atoms: C_24  and  C_38
REMARK    9  A    between atoms: C_28  and  C_29
REMARK   10  A    between atoms: C_33  and  C_34
REMARK   11  A    between atoms: C_33  and  C_37
REMARK                            x       y       z     vdW  Elec       q    Type
REMARK                         _______ _______ _______ _____ _____    ______ ____
ROOT
ATOM      1  C   LIG A   1       2.610  -2.030   0.972  0.00  0.00    +0.012 C 
ATOM      2  C   LIG A   1       1.571  -2.316  -0.125  0.00  0.00    -0.025 C 
ATOM      3  C   LIG A   1       0.167  -2.871   0.380  0.00  0.00    +0.004 C 
ATOM      4  C   LIG A   1       0.188  -4.145   1.330  0.00  0.00    +0.005 C 
ATOM      5  C   LIG A   1       1.113  -4.077   2.567  0.00  0.00    +0.015 C 
ATOM      6  C   LIG A   1       0.635  -5.299   0.363  0.00  0.00    +0.182 C 
ATOM      7  C   LIG A   1       2.003  -4.950  -0.292  0.00  0.00    +0.046 C 
ATOM      8  C   LIG A   1       2.122  -3.546  -0.962  0.00  0.00    +0.011 C 
ATOM      9  C   LIG A   1      -1.187  -4.425   1.998  0.00  0.00    +0.015 C 
ATOM     10  C   LIG A   1      -0.984  -1.906   0.607  0.00  0.00    +0.005 C 
ATOM     11  C   LIG A   1      -1.191  -1.106  -0.665  0.00  0.00    +0.012 C 
ATOM     12  C   LIG A   1       0.044  -0.381  -1.233  0.00  0.00    -0.007 C 
ATOM     13  C   LIG A   1      -0.250  -0.314  -2.760  0.00  0.00    +0.016 C 
ATOM     14  C   LIG A   1       1.466  -1.002  -1.098  0.00  0.00    +0.005 C 
ATOM     15  C   LIG A   1       2.589   0.201  -0.965  0.00  0.00    +0.006 C 
ATOM     16  C   LIG A   1       2.218   1.785  -1.069  0.00  0.00    +0.012 C 
ATOM     17  C   LIG A   1       0.700   2.163  -1.153  0.00  0.00    -0.007 C 
ATOM     18  C   LIG A   1       0.176   0.913  -0.456  0.00  0.00    -0.061 C 
ATOM     19  C   LIG A   1       0.297   0.911   0.904  0.00  0.00    -0.026 C 
ATOM     20  C   LIG A   1       0.725   2.062   1.762  0.00  0.00    +0.034 C 
ATOM     21  C   LIG A   1       0.305   3.424   1.190  0.00  0.00    -0.025 C 
ATOM     22  C   LIG A   1       1.451   4.429   1.409  0.00  0.00    +0.012 C 
ATOM     23  C   LIG A   1      -0.087   3.268  -0.304  0.00  0.00    +0.006 C 
ATOM     24  C   LIG A   1      -0.609   4.598  -0.899  0.00  0.00    +0.011 C 
ATOM     25  C   LIG A   1      -1.888   5.082  -0.130  0.00  0.00    -0.035 C 
ATOM     26  C   LIG A   1      -2.292   6.474  -0.644  0.00  0.00    +0.011 C 
ATOM     27  C   LIG A   1      -1.609   5.163   1.388  0.00  0.00    +0.007 C 
ATOM     28  C   LIG A   1      -0.953   3.908   1.971  0.00  0.00    +0.008 C 
ATOM     29  C   LIG A   1      -3.100   4.146  -0.394  0.00  0.00    +0.011 C 
ATOM     30  C   LIG A   1       0.437   2.501  -2.635  0.00  0.00    +0.016 C 
ENDROOT
BRANCH   6  31
ATOM     31  O   LIG A   1      -0.336  -5.417  -0.719  0.00  0.00    -0.461 OA
BRANCH  31  32
ATOM     32  C   LIG A   1      -1.475  -6.081  -0.477  0.00  0.00    +0.304 C 
ATOM     33  C   LIG A   1      -2.683  -5.306  -0.887  0.00  0.00    +0.136 C 
ATOM     34  O   LIG A   1      -1.521  -7.146   0.152  0.00  0.00    -0.251 OA
ENDBRANCH  31  32
ENDBRANCH   6  31
TORSDOF 2
