REMARK  Name = NuBBE_1352
REMARK  6 active torsions:
REMARK  status: ('A' for Active; 'I' for Inactive)
REMARK    1  A    between atoms: C_1  and  C_2
REMARK    2  A    between atoms: C_5  and  C_7
REMARK    3  A    between atoms: C_7  and  C_8
REMARK    4  A    between atoms: C_7  and  O_9
REMARK    5  A    between atoms: C_7  and  C_10
REMARK    6  A    between atoms: C_13  and  C_14
REMARK                            x       y       z     vdW  Elec       q    Type
REMARK                         _______ _______ _______ _____ _____    ______ ____
ROOT
ATOM      1  C   LIG A   1       0.852   0.186  -2.544  0.00  0.00    +0.016 C 
ATOM      2  C   LIG A   1       1.368   0.055  -1.092  0.00  0.00    -0.011 C 
ATOM      3  C   LIG A   1       0.473  -0.920  -0.310  0.00  0.00    -0.064 C 
ATOM      4  C   LIG A   1      -0.919  -0.376  -0.018  0.00  0.00    +0.037 C 
ATOM      5  C   LIG A   1      -0.886   0.974   0.732  0.00  0.00    +0.024 C 
ATOM      6  C   LIG A   1      -0.046   1.977  -0.087  0.00  0.00    +0.007 C 
ATOM      7  C   LIG A   1       1.352   1.438  -0.395  0.00  0.00    +0.011 C 
ATOM      8  C   LIG A   1       0.899  -2.152   0.064  0.00  0.00    -0.073 C 
ATOM      9  C   LIG A   1       0.109  -3.134   0.894  0.00  0.00    +0.039 C 
ATOM     10  C   LIG A   1       2.259  -2.697  -0.328  0.00  0.00    +0.030 C 
ATOM     11  C   LIG A   1       2.968  -1.902  -1.415  0.00  0.00    +0.005 C 
ATOM     12  C   LIG A   1       2.848  -0.413  -1.136  0.00  0.00    +0.011 C 
ENDROOT
BRANCH   5  13
ATOM     13  C   LIG A   1      -2.317   1.517   1.048  0.00  0.00    +0.064 C 
ATOM     14  C   LIG A   1      -2.268   2.868   1.778  0.00  0.00    +0.041 C 
ATOM     15  C   LIG A   1      -3.130   0.532   1.902  0.00  0.00    +0.041 C 
BRANCH  13  16
ATOM     16  O   LIG A   1      -3.022   1.712  -0.181  0.00  0.00    -0.389 OA
ATOM     17  H   LIG A   1      -3.906   2.058   0.029  0.00  0.00    +0.210 HD
ENDBRANCH  13  16
ENDBRANCH   5  13
TORSDOF 2
