@<TRIPOS>MOLECULE
NuBBE_1023
 40 41 0 0 0
SMALL
GASTEIGER

@<TRIPOS>ATOM
      1 C          -3.8103    0.6983   -3.4166 C.3     1  LIG1       -0.0215
      2 C          -2.2908    0.8934   -3.3668 C.3     1  LIG1        0.1235
      3 C          -1.7203    0.9170   -4.7876 C.3     1  LIG1       -0.0215
      4 O          -1.7553   -0.2932   -2.7634 O.3     1  LIG1       -0.4815
      5 C          -0.9882   -0.1761   -1.6438 C.ar    1  LIG1        0.1324
      6 C          -0.7188    1.0221   -0.9749 C.ar    1  LIG1        0.0584
      7 C           0.0441    0.9854    0.2110 C.ar    1  LIG1        0.1339
      8 O           0.2348    2.1446    0.9269 O.3     1  LIG1       -0.4941
      9 C           1.5275    2.7095    0.6950 C.3     1  LIG1        0.0788
     10 C           0.5107   -0.2384    0.7318 C.ar    1  LIG1       -0.0044
     11 C           1.2103   -0.3058    2.0776 C.3     1  LIG1       -0.0141
     12 C           1.6504   -1.7176    2.4447 C.3     1  LIG1        0.0490
     13 C           2.3265   -1.8011    3.7787 C.2     1  LIG1        0.3071
     14 O           2.0893   -3.0312    4.3085 O.3     1  LIG1       -0.4679
     15 C           2.7755   -3.2758    5.5303 C.3     1  LIG1        0.0817
     16 O           3.0310   -0.9385    4.2619 O.2     1  LIG1       -0.2509
     17 C           0.2585   -1.4082   -0.0066 C.ar    1  LIG1       -0.0516
     18 H           0.6041   -2.3853    0.3155 H       1  LIG1        0.0623
     19 C          -0.4865   -1.3799   -1.1742 C.ar    1  LIG1       -0.0188
     20 H          -0.6947   -2.3050   -1.7041 H       1  LIG1        0.0654
     21 C          -1.2525    2.2590   -1.5337 C.2     1  LIG1       -0.0478
     22 C          -1.9760    2.1893   -2.6561 C.2     1  LIG1       -0.0408
     23 H          -4.0681   -0.2517   -3.8999 H       1  LIG1        0.0271
     24 H          -4.3082    1.5087   -3.9591 H       1  LIG1        0.0271
     25 H          -4.2318    0.6505   -2.4049 H       1  LIG1        0.0271
     26 H          -1.9585   -0.0149   -5.3155 H       1  LIG1        0.0271
     27 H          -0.6255    0.9816   -4.7656 H       1  LIG1        0.0271
     28 H          -2.1076    1.7557   -5.3737 H       1  LIG1        0.0271
     29 H           1.4030    3.6950    0.2355 H       1  LIG1        0.0660
     30 H           2.1747    2.0988    0.0548 H       1  LIG1        0.0660
     31 H           2.0192    2.8485    1.6634 H       1  LIG1        0.0660
     32 H           0.5227    0.0676    2.8481 H       1  LIG1        0.0319
     33 H           2.0848    0.3544    2.0712 H       1  LIG1        0.0319
     34 H           2.3557   -2.1142    1.7054 H       1  LIG1        0.0381
     35 H           0.7708   -2.3723    2.4829 H       1  LIG1        0.0381
     36 H           2.5677   -4.3069    5.8281 H       1  LIG1        0.0661
     37 H           2.4095   -2.6020    6.3093 H       1  LIG1        0.0661
     38 H           3.8539   -3.1656    5.3865 H       1  LIG1        0.0661
     39 H          -1.0543    3.2009   -1.0362 H       1  LIG1        0.0624
     40 H          -2.3777    3.1033   -3.0841 H       1  LIG1        0.0611
@<TRIPOS>BOND
     1     1     2    1
     2     2     3    1
     3     2     4    1
     4     4     5    1
     5     5     6   ar
     6     6     7   ar
     7     7     8    1
     8     8     9    1
     9     7    10   ar
    10    10    11    1
    11    11    12    1
    12    12    13    1
    13    13    14    1
    14    14    15    1
    15    13    16    2
    16    10    17   ar
    17    17    18    1
    18    17    19   ar
    19     5    19   ar
    20    19    20    1
    21     6    21    1
    22    21    22    2
    23     2    22    1
    24     1    23    1
    25     1    24    1
    26     1    25    1
    27     3    26    1
    28     3    27    1
    29     3    28    1
    30     9    29    1
    31     9    30    1
    32     9    31    1
    33    11    32    1
    34    11    33    1
    35    12    34    1
    36    12    35    1
    37    15    36    1
    38    15    37    1
    39    15    38    1
    40    21    39    1
    41    22    40    1
