REMARK  Name = NuBBE_1316
REMARK  5 active torsions:
REMARK  status: ('A' for Active; 'I' for Inactive)
REMARK    1  A    between atoms: C_3  and  O_4
REMARK    2  A    between atoms: O_4  and  C_5
REMARK    3  A    between atoms: C_6  and  C_7
REMARK    4  A    between atoms: C_10  and  O_11
REMARK    5  A    between atoms: O_11  and  C_12
REMARK                            x       y       z     vdW  Elec       q    Type
REMARK                         _______ _______ _______ _____ _____    ______ ____
ROOT
ATOM      1  O   LIG A   1      -3.572   1.743   0.377  0.00  0.00    -0.283 OA
ATOM      2  C   LIG A   1      -2.375   1.488   0.349  0.00  0.00    +0.235 A 
ATOM      3  C   LIG A   1      -1.830   0.098   0.258  0.00  0.00    +0.210 A 
ATOM      4  C   LIG A   1      -0.486  -0.040   0.272  0.00  0.00    +0.181 A 
ATOM      5  O   LIG A   1       0.428   0.998   0.321  0.00  0.00    -0.450 OA
ATOM      6  C   LIG A   1      -1.399   2.592   0.401  0.00  0.00    +0.069 A 
ATOM      7  C   LIG A   1      -0.037   2.287   0.368  0.00  0.00    +0.150 A 
ATOM      8  C   LIG A   1       0.889   3.348   0.387  0.00  0.00    +0.063 A 
ATOM      9  C   LIG A   1       2.306   3.467   0.350  0.00  0.00    +0.053 A 
ATOM     10  C   LIG A   1       2.586   4.814   0.402  0.00  0.00    +0.196 A 
ATOM     11  O   LIG A   1       1.439   5.538   0.466  0.00  0.00    -0.463 OA
ATOM     12  C   LIG A   1       0.407   4.651   0.455  0.00  0.00    +0.138 A 
ATOM     13  C   LIG A   1      -0.943   4.986   0.505  0.00  0.00    +0.048 A 
ATOM     14  C   LIG A   1      -1.848   3.920   0.473  0.00  0.00    +0.019 A 
ENDROOT
BRANCH   4  15
ATOM     15  C   LIG A   1       0.178  -1.353   0.191  0.00  0.00    +0.021 A 
ATOM     16  C   LIG A   1       0.455  -1.920  -1.059  0.00  0.00    +0.015 A 
ATOM     17  C   LIG A   1       1.138  -3.139  -1.156  0.00  0.00    +0.046 A 
ATOM     18  C   LIG A   1       1.555  -3.806  -0.005  0.00  0.00    +0.120 A 
ATOM     19  C   LIG A   1       1.278  -3.243   1.244  0.00  0.00    +0.046 A 
ATOM     20  C   LIG A   1       0.594  -2.025   1.345  0.00  0.00    +0.015 A 
BRANCH  18  21
ATOM     21  O   LIG A   1       2.236  -4.993   0.032  0.00  0.00    -0.495 OA
ATOM     22  C   LIG A   1       2.530  -5.603  -1.221  0.00  0.00    +0.277 C 
ENDBRANCH  18  21
ENDBRANCH   4  15
BRANCH   3  23
ATOM     23  O   LIG A   1      -2.652  -1.021   0.195  0.00  0.00    -0.488 OA
ATOM     24  C   LIG A   1      -3.894  -0.844  -0.480  0.00  0.00    +0.277 C 
ENDBRANCH   3  23
TORSDOF 3
