@<TRIPOS>MOLECULE
NuBBE_509
 28 29 0 0 0
SMALL
GASTEIGER

@<TRIPOS>ATOM
      1 O          -2.9159    0.3372   -0.1083 O.3     1  LIG1       -0.5055
      2 C          -1.5469    0.4072   -0.1871 C.ar    1  LIG1        0.1376
      3 C          -0.7453   -0.7422   -0.1177 C.ar    1  LIG1        0.1057
      4 C           0.6408   -0.6364   -0.1930 C.ar    1  LIG1        0.1458
      5 C           1.2354    0.6159   -0.3198 C.ar    1  LIG1        0.0236
      6 C           0.4350    1.7608   -0.3654 C.ar    1  LIG1        0.1300
      7 C          -0.9660    1.6753   -0.3412 C.ar    1  LIG1        0.0335
      8 C          -1.8276    2.9042   -0.4251 C.3     1  LIG1       -0.0327
      9 O           1.0593    2.9728   -0.5132 O.3     1  LIG1       -0.4946
     10 C           1.3738    3.5234    0.7671 C.3     1  LIG1        0.0788
     11 O           1.4804   -1.7218   -0.1453 O.2     1  LIG1       -0.4595
     12 C           0.9236   -2.9846   -0.0194 C.ar    1  LIG1        0.1062
     13 C          -0.3935   -3.2171    0.0690 C.ar    1  LIG1        0.0237
     14 C          -1.3279   -2.0827    0.0289 C.ar    1  LIG1        0.1963
     15 O          -2.5399   -2.2468    0.1130 O.2     1  LIG1       -0.2869
     16 C           1.9368   -4.0862    0.0097 C.3     1  LIG1       -0.0062
     17 H          -3.1754   -0.6068   -0.0113 H       1  LIG1        0.2922
     18 H           2.3161    0.7051   -0.3848 H       1  LIG1        0.0691
     19 H          -1.3031    3.7356   -0.9066 H       1  LIG1        0.0280
     20 H          -2.1301    3.2171    0.5790 H       1  LIG1        0.0280
     21 H          -2.7232    2.7156   -1.0264 H       1  LIG1        0.0280
     22 H           1.9020    4.4676    0.6044 H       1  LIG1        0.0660
     23 H           2.0336    2.8598    1.3369 H       1  LIG1        0.0660
     24 H           0.4644    3.7377    1.3388 H       1  LIG1        0.0660
     25 H          -0.8216   -4.2062    0.1682 H       1  LIG1        0.0689
     26 H           2.6210   -3.9481    0.8530 H       1  LIG1        0.0308
     27 H           2.5229   -4.0845   -0.9150 H       1  LIG1        0.0308
     28 H           1.4714   -5.0721    0.1114 H       1  LIG1        0.0308
@<TRIPOS>BOND
     1     1     2    1
     2     2     3   ar
     3     3     4   ar
     4     4     5   ar
     5     5     6   ar
     6     6     7   ar
     7     2     7   ar
     8     7     8    1
     9     6     9    1
    10     9    10    1
    11     4    11   ar
    12    11    12   ar
    13    12    13   ar
    14    13    14   ar
    15     3    14   ar
    16    14    15    2
    17    12    16    1
    18     1    17    1
    19     5    18    1
    20     8    19    1
    21     8    20    1
    22     8    21    1
    23    10    22    1
    24    10    23    1
    25    10    24    1
    26    13    25    1
    27    16    26    1
    28    16    27    1
    29    16    28    1
