@<TRIPOS>MOLECULE
NuBBE_827
 61 64 0 0 0
SMALL
GASTEIGER

@<TRIPOS>ATOM
      1 C           3.3559    1.2568    3.7483 C.3     1  LIG1       -0.0332
      2 C           3.3316    1.2208    2.2424 C.3     1  LIG1        0.0972
      3 C           3.4860    2.5660    1.5720 C.3     1  LIG1       -0.0180
      4 C           2.1574    3.3371    1.5439 C.3     1  LIG1       -0.0312
      5 C           1.2894    2.7014    0.5078 C.2     1  LIG1       -0.0703
      6 C           0.2873    1.8124    0.6523 C.2     1  LIG1        0.0764
      7 C          -0.1806    1.0848   -0.5881 C.3     1  LIG1        0.1716
      8 H           0.4341    1.3418   -1.4624 H       1  LIG1        0.0826
      9 C          -0.0614   -0.4624   -0.4547 C.3     1  LIG1        0.1546
     10 H          -0.5387   -0.8496    0.4501 H       1  LIG1        0.0782
     11 C           1.4009   -0.9857   -0.5640 C.3     1  LIG1        0.0708
     12 H           1.5745   -1.0404   -1.6537 H       1  LIG1        0.0425
     13 C           2.6571   -0.2934   -0.0093 C.3     1  LIG1        0.1425
     14 H           2.8740    0.6140   -0.5814 H       1  LIG1        0.0769
     15 C           2.8173   -0.0483    1.4867 C.3     1  LIG1        0.1255
     16 H           2.3485   -0.8155    2.0928 H       1  LIG1        0.0662
     17 O           4.2161    0.2195    1.7659 O.3     1  LIG1       -0.3612
     18 O           3.6801   -1.2694   -0.3728 O.3     1  LIG1       -0.4546
     19 C           3.1736   -2.5225   -0.2203 C.2     1  LIG1        0.3355
     20 O           3.8092   -3.5713   -0.2181 O.2     1  LIG1       -0.2453
     21 C           1.7008   -2.3786   -0.0988 C.2     1  LIG1        0.0399
     22 C           0.9344   -3.3488    0.4194 C.2     1  LIG1       -0.0882
     23 O          -0.7573   -1.0605   -1.6090 O.3     1  LIG1       -0.4544
     24 C          -2.1128   -1.1989   -1.5697 C.2     1  LIG1        0.3421
     25 C          -2.6676   -1.8232   -2.8080 C.3     1  LIG1        0.1885
     26 C          -3.5124   -1.0080   -3.7465 C.3     1  LIG1       -0.0228
     27 C          -2.8806   -3.3308   -2.8428 C.3     1  LIG1        0.0965
     28 H          -3.6481   -3.7535   -3.4777 H       1  LIG1        0.0628
     29 O          -1.7608   -2.7254   -3.4864 O.3     1  LIG1       -0.3535
     30 C          -2.5542   -4.2087   -1.6896 C.3     1  LIG1       -0.0354
     31 O          -2.8397   -0.8824   -0.6395 O.2     1  LIG1       -0.2475
     32 O          -1.5276    1.5004   -0.8662 O.3     1  LIG1       -0.4527
     33 C          -1.6722    2.6577   -1.5595 C.2     1  LIG1        0.3046
     34 C          -3.1239    2.9966   -1.6785 C.3     1  LIG1        0.0333
     35 O          -0.7635    3.3138   -2.0465 O.2     1  LIG1       -0.2511
     36 C          -0.2973    1.4083    1.9720 C.2     1  LIG1        0.3383
     37 O          -1.5366    0.8991    1.7797 O.3     1  LIG1       -0.4646
     38 C          -2.2058    0.3705    2.9283 C.3     1  LIG1        0.0820
     39 O           0.2763    1.4750    3.0442 O.2     1  LIG1       -0.2452
     40 H           2.6428    1.9843    4.1445 H       1  LIG1        0.0258
     41 H           4.3542    1.5481    4.0962 H       1  LIG1        0.0258
     42 H           3.1222    0.2794    4.1808 H       1  LIG1        0.0258
     43 H           3.8859    2.4527    0.5558 H       1  LIG1        0.0297
     44 H           4.2272    3.1605    2.1205 H       1  LIG1        0.0297
     45 H           2.3409    4.3763    1.2465 H       1  LIG1        0.0308
     46 H           1.6858    3.3775    2.5283 H       1  LIG1        0.0308
     47 H           1.6181    2.9390   -0.5069 H       1  LIG1        0.0578
     48 H          -0.1329   -3.2372    0.5563 H       1  LIG1        0.0540
     49 H           1.3758   -4.2938    0.7298 H       1  LIG1        0.0540
     50 H          -2.9712   -0.7791   -4.6704 H       1  LIG1        0.0264
     51 H          -3.8184   -0.0624   -3.2885 H       1  LIG1        0.0264
     52 H          -4.4286   -1.5460   -4.0179 H       1  LIG1        0.0264
     53 H          -1.8290   -3.7601   -1.0072 H       1  LIG1        0.0256
     54 H          -2.1414   -5.1580   -2.0419 H       1  LIG1        0.0256
     55 H          -3.4642   -4.4208   -1.1198 H       1  LIG1        0.0256
     56 H          -3.2345    4.0796   -1.7736 H       1  LIG1        0.0342
     57 H          -3.6554    2.6843   -0.7746 H       1  LIG1        0.0342
     58 H          -3.5431    2.4951   -2.5527 H       1  LIG1        0.0342
     59 H          -1.8704   -0.6554    3.1104 H       1  LIG1        0.0661
     60 H          -3.2770    0.3467    2.7068 H       1  LIG1        0.0661
     61 H          -2.0502    0.9908    3.8151 H       1  LIG1        0.0661
@<TRIPOS>BOND
     1     2     3    1
     2     3     4    1
     3     4     5    1
     4     5     6    2
     5     6     7    1
     6     7     9    1
     7     9    11    1
     8    11    13    1
     9    13    15    1
    10     2    15    1
    11    15    17    1
    12     2    17    1
    13    13    18    1
    14    18    19    1
    15    11    21    1
    16    19    21    1
    17    23    24    1
    18    25    27    1
    19    27    29    1
    20    25    29    1
    21    24    31    2
    22    32    33    1
    23    33    34    1
    24    33    35    2
    25    36    37    1
    26    37    38    1
    27    36    39    2
    28     1     2    1
    29     6    36    1
    30     9    10    1
    31     9    23    1
    32    11    12    1
    33    13    14    1
    34    15    16    1
    35    19    20    2
    36    21    22    2
    37     7    32    1
    38     7     8    1
    39    25    26    1
    40    25    24    1
    41    27    30    1
    42    27    28    1
    43     1    40    1
    44     1    41    1
    45     1    42    1
    46     3    43    1
    47     3    44    1
    48     4    45    1
    49     4    46    1
    50     5    47    1
    51    22    48    1
    52    22    49    1
    53    26    50    1
    54    26    51    1
    55    26    52    1
    56    30    53    1
    57    30    54    1
    58    30    55    1
    59    34    56    1
    60    34    57    1
    61    34    58    1
    62    38    59    1
    63    38    60    1
    64    38    61    1
