@<TRIPOS>MOLECULE
NuBBE_1817
 46 48 0 0 0
SMALL
GASTEIGER

@<TRIPOS>ATOM
      1 O          -2.9388   -0.9610    2.6320 O.2     1  LIG1       -0.2833
      2 C          -2.1507   -0.5617    1.7891 C.2     1  LIG1        0.2308
      3 C          -1.2963   -1.5016    0.9773 C.2     1  LIG1        0.1687
      4 C          -0.0972   -1.0776    0.5441 C.2     1  LIG1       -0.0084
      5 C           0.5957   -1.8404   -0.4808 C.ar    1  LIG1       -0.0114
      6 C           0.1807   -3.1467   -0.7229 C.ar    1  LIG1        0.0005
      7 C           0.8219   -3.8870   -1.7203 C.ar    1  LIG1       -0.0093
      8 C           1.8398   -3.3110   -2.4993 C.ar    1  LIG1        0.1619
      9 O           2.3507   -4.1605   -3.4492 O.3     1  LIG1       -0.4914
     10 C           3.7145   -3.9596   -3.8068 C.3     1  LIG1        0.0790
     11 C           2.2080   -1.9701   -2.2902 C.ar    1  LIG1        0.1621
     12 O           3.0950   -1.3896   -3.1577 O.3     1  LIG1       -0.4914
     13 C           3.8430   -0.2842   -2.6657 C.3     1  LIG1        0.0790
     14 C           1.5870   -1.2476   -1.2667 C.ar    1  LIG1       -0.0087
     15 C          -0.9212   -3.7096    0.1363 C.3     1  LIG1        0.1155
     16 O          -1.8454   -2.7263    0.6387 O.2     1  LIG1       -0.4835
     17 C          -2.0462    0.8878    1.4521 C.ar    1  LIG1        0.0672
     18 C          -2.1087    1.2778    0.1014 C.ar    1  LIG1       -0.0438
     19 C          -1.8719    2.6040   -0.2596 C.ar    1  LIG1       -0.0190
     20 C          -1.6155    3.5561    0.7238 C.ar    1  LIG1        0.1236
     21 O          -1.3470    4.8218    0.2777 O.3     1  LIG1       -0.4950
     22 C          -1.6789    5.8646    1.1913 C.3     1  LIG1        0.0788
     23 C          -1.5881    3.1726    2.0668 C.ar    1  LIG1        0.0225
     24 C          -1.8204    1.8453    2.4455 C.ar    1  LIG1        0.1345
     25 O          -1.7197    1.4444    3.7518 O.3     1  LIG1       -0.4943
     26 C          -2.2634    2.3680    4.6951 C.3     1  LIG1        0.0788
     27 H           0.3303   -0.1231    0.8323 H       1  LIG1        0.0661
     28 H           0.5319   -4.9186   -1.9082 H       1  LIG1        0.0659
     29 H           3.8174   -3.1435   -4.5275 H       1  LIG1        0.0660
     30 H           4.0638   -4.8669   -4.3088 H       1  LIG1        0.0660
     31 H           4.3492   -3.8030   -2.9271 H       1  LIG1        0.0660
     32 H           4.6404   -0.0778   -3.3857 H       1  LIG1        0.0660
     33 H           4.3110   -0.5198   -1.7041 H       1  LIG1        0.0660
     34 H           3.2227    0.6148   -2.5954 H       1  LIG1        0.0660
     35 H           1.8176   -0.1999   -1.1038 H       1  LIG1        0.0661
     36 H          -0.4881   -4.2437    0.9902 H       1  LIG1        0.0748
     37 H          -1.5160   -4.4243   -0.4432 H       1  LIG1        0.0748
     38 H          -2.3101    0.5458   -0.6789 H       1  LIG1        0.0627
     39 H          -1.8817    2.8906   -1.3088 H       1  LIG1        0.0654
     40 H          -1.4318    6.8201    0.7214 H       1  LIG1        0.0660
     41 H          -1.0937    5.8074    2.1141 H       1  LIG1        0.0660
     42 H          -2.7526    5.8533    1.4073 H       1  LIG1        0.0660
     43 H          -1.3282    3.8939    2.8293 H       1  LIG1        0.0691
     44 H          -2.3917    1.8456    5.6468 H       1  LIG1        0.0660
     45 H          -3.2441    2.7408    4.3768 H       1  LIG1        0.0660
     46 H          -1.5731    3.2005    4.8696 H       1  LIG1        0.0660
@<TRIPOS>BOND
     1     1     2    2
     2     2     3    1
     3     3     4    2
     4     4     5    1
     5     5     6   ar
     6     6     7   ar
     7     7     8   ar
     8     8     9    1
     9     9    10    1
    10     8    11   ar
    11    11    12    1
    12    12    13    1
    13    11    14   ar
    14     5    14   ar
    15     6    15    1
    16    15    16    1
    17     3    16    1
    18     2    17    1
    19    17    18   ar
    20    18    19   ar
    21    19    20   ar
    22    20    21    1
    23    21    22    1
    24    20    23   ar
    25    23    24   ar
    26    17    24   ar
    27    24    25    1
    28    25    26    1
    29     4    27    1
    30     7    28    1
    31    10    29    1
    32    10    30    1
    33    10    31    1
    34    13    32    1
    35    13    33    1
    36    13    34    1
    37    14    35    1
    38    15    36    1
    39    15    37    1
    40    18    38    1
    41    19    39    1
    42    22    40    1
    43    22    41    1
    44    22    42    1
    45    23    43    1
    46    26    44    1
    47    26    45    1
    48    26    46    1
