@<TRIPOS>MOLECULE
NuBBE_970
 46 46 0 0 0
SMALL
GASTEIGER

@<TRIPOS>ATOM
      1 C          -2.0335   -2.8105   -0.6093 C.3     1  LIG1       -0.0361
      2 C          -0.5970   -2.5540   -1.0793 C.3     1  LIG1        0.0634
      3 O          -0.5740   -2.8767   -2.4799 O.3     1  LIG1       -0.3888
      4 C          -0.1794   -1.0487   -0.9466 C.3     1  LIG1       -0.0100
      5 H          -0.8735   -0.4745   -1.5750 H       1  LIG1        0.0329
      6 C          -0.2430   -0.5283    0.5110 C.3     1  LIG1       -0.0472
      7 C          -1.5495    0.1965    0.8801 C.3     1  LIG1       -0.0478
      8 C          -1.4006    1.2959    1.9598 C.3     1  LIG1       -0.0178
      9 C          -0.9712    2.6700    1.3868 C.3     1  LIG1       -0.0478
     10 C           0.4202    2.7578    0.7489 C.3     1  LIG1       -0.0490
     11 C           0.4151    2.4334   -0.7569 C.3     1  LIG1       -0.0296
     12 C           1.6837    1.7700   -1.2650 C.2     1  LIG1       -0.0485
     13 C           2.8831    2.2954   -0.9697 C.2     1  LIG1       -0.0970
     14 C          -0.5426    0.8488    3.1558 C.3     1  LIG1        0.0470
     15 O          -1.1327   -0.2807    3.7919 O.3     1  LIG1       -0.3947
     16 C           1.2457   -0.8014   -1.5393 C.3     1  LIG1       -0.0176
     17 C           1.4812    0.5800   -2.2011 C.3     1  LIG1        0.0764
     18 O           2.6396    0.4603   -3.0405 O.3     1  LIG1       -0.3875
     19 C           0.3638   -3.5200   -0.3717 C.3     1  LIG1       -0.0361
     20 H          -2.2929   -3.8708   -0.7168 H       1  LIG1        0.0257
     21 H          -2.7510   -2.2585   -1.2272 H       1  LIG1        0.0257
     22 H          -2.1857   -2.5486    0.4390 H       1  LIG1        0.0257
     23 H          -0.8061   -3.8163   -2.5778 H       1  LIG1        0.2101
     24 H           0.6073    0.1294    0.6821 H       1  LIG1        0.0269
     25 H          -0.0961   -1.3443    1.2253 H       1  LIG1        0.0269
     26 H          -2.2575   -0.5464    1.2658 H       1  LIG1        0.0269
     27 H          -2.0338    0.6263   -0.0037 H       1  LIG1        0.0269
     28 H          -2.4173    1.4536    2.3503 H       1  LIG1        0.0323
     29 H          -1.0091    3.3962    2.2097 H       1  LIG1        0.0269
     30 H          -1.7250    3.0073    0.6633 H       1  LIG1        0.0269
     31 H           1.1323    2.1408    1.3053 H       1  LIG1        0.0268
     32 H           0.7785    3.7901    0.8604 H       1  LIG1        0.0268
     33 H           0.2618    3.3627   -1.3222 H       1  LIG1        0.0311
     34 H          -0.4461    1.8138   -1.0134 H       1  LIG1        0.0311
     35 H           2.9819    3.1829   -0.3480 H       1  LIG1        0.0535
     36 H           3.8114    1.8893   -1.3614 H       1  LIG1        0.0535
     37 H          -0.4428    1.6453    3.9000 H       1  LIG1        0.0560
     38 H           0.4676    0.5591    2.8562 H       1  LIG1        0.0560
     39 H          -1.9003    0.0392    4.2966 H       1  LIG1        0.2094
     40 H           1.4568   -1.5529   -2.3108 H       1  LIG1        0.0297
     41 H           2.0105   -0.9759   -0.7698 H       1  LIG1        0.0297
     42 H           0.6563    0.8026   -2.8873 H       1  LIG1        0.0640
     43 H           3.3276    0.0233   -2.5133 H       1  LIG1        0.2102
     44 H           0.0229   -4.5558   -0.4867 H       1  LIG1        0.0257
     45 H           0.4488   -3.3211    0.6994 H       1  LIG1        0.0257
     46 H           1.3643   -3.4845   -0.8148 H       1  LIG1        0.0257
@<TRIPOS>BOND
     1     1     2    1
     2     2     3    1
     3     4     6    1
     4     6     7    1
     5     7     8    1
     6     8     9    1
     7     9    10    1
     8    10    11    1
     9    11    12    1
    10    12    13    2
    11     8    14    1
    12    14    15    1
    13     4    16    1
    14    16    17    1
    15    12    17    1
    16    17    18    1
    17     2    19    1
    18     4     5    1
    19     4     2    1
    20     1    20    1
    21     1    21    1
    22     1    22    1
    23     3    23    1
    24     6    24    1
    25     6    25    1
    26     7    26    1
    27     7    27    1
    28     8    28    1
    29     9    29    1
    30     9    30    1
    31    10    31    1
    32    10    32    1
    33    11    33    1
    34    11    34    1
    35    13    35    1
    36    13    36    1
    37    14    37    1
    38    14    38    1
    39    15    39    1
    40    16    40    1
    41    16    41    1
    42    17    42    1
    43    18    43    1
    44    19    44    1
    45    19    45    1
    46    19    46    1
