@<TRIPOS>MOLECULE
NuBBE_1047
 85 89 0 0 0
SMALL
GASTEIGER

@<TRIPOS>ATOM
      1 C           6.3618    1.0401    0.8895 C.3     1  LIG1       -0.0339
      2 C           5.5958    0.0854    1.8130 C.3     1  LIG1        0.0865
      3 O           5.4703    0.7207    3.0945 O.3     1  LIG1       -0.3866
      4 C           4.1722   -0.1759    1.2549 C.3     1  LIG1        0.0876
      5 H           3.6602    0.7908    1.1586 H       1  LIG1        0.0625
      6 C           3.2998   -1.0844    2.1229 C.3     1  LIG1       -0.0213
      7 C           3.2103   -2.3512    1.3069 C.3     1  LIG1       -0.0213
      8 C           3.2457   -1.8402   -0.1335 C.3     1  LIG1        0.0704
      9 C           1.9027   -1.2119   -0.6558 C.3     1  LIG1       -0.0088
     10 H           1.6822   -0.3295   -0.0424 H       1  LIG1        0.0331
     11 C           2.0119   -0.6939   -2.1101 C.3     1  LIG1       -0.0468
     12 C           0.8226   -1.2820   -2.8658 C.3     1  LIG1       -0.0465
     13 C          -0.2657   -1.6041   -1.8088 C.3     1  LIG1       -0.0232
     14 C          -1.2298   -0.3338   -1.3813 C.3     1  LIG1       -0.0231
     15 C          -2.6643   -0.5471   -1.9349 C.3     1  LIG1       -0.0466
     16 C          -3.6161    0.6039   -1.6817 C.3     1  LIG1       -0.0486
     17 C          -3.7638    1.0647   -0.2152 C.3     1  LIG1       -0.0278
     18 C          -4.4367    2.5256   -0.1666 C.3     1  LIG1       -0.0056
     19 C          -3.9045    3.5050   -1.2533 C.3     1  LIG1       -0.0572
     20 C          -4.2272    3.2408    1.1940 C.3     1  LIG1        0.0606
     21 H          -4.5460    4.2870    1.1023 H       1  LIG1        0.0599
     22 C          -2.7700    3.2623    1.6715 C.3     1  LIG1       -0.0258
     23 C          -1.8449    2.2160    1.0336 C.3     1  LIG1       -0.0447
     24 C          -2.5053    0.8418    0.7259 C.3     1  LIG1       -0.0252
     25 C          -1.3704   -0.1813    0.1812 C.3     1  LIG1       -0.0294
     26 C          -1.4147   -1.6009    0.7933 C.3     1  LIG1       -0.0489
     27 C          -0.0676   -2.2993    0.6706 C.3     1  LIG1       -0.0491
     28 C           0.6506   -2.1313   -0.6647 C.3     1  LIG1       -0.0297
     29 H           1.0124   -3.1313   -0.9412 H       1  LIG1        0.0310
     30 H          -0.4228    0.2423    0.5427 H       1  LIG1        0.0312
     31 C          -2.9946    0.3096    2.1126 C.3     1  LIG1       -0.0590
     32 O          -5.0721    2.7394    2.2292 O.3     1  LIG1       -0.3912
     33 C          -5.9569    2.3796   -0.4490 C.3     1  LIG1       -0.0572
     34 H          -4.5210    0.3775    0.1924 H       1  LIG1        0.0312
     35 C          -0.6869    1.0040   -1.9474 C.3     1  LIG1       -0.0588
     36 C          -1.0689   -2.8202   -2.3531 C.3     1  LIG1       -0.0588
     37 C           3.8189   -2.9354   -1.0437 C.3     1  LIG1       -0.0355
     38 O           4.2250   -0.7721   -0.0638 O.3     1  LIG1       -0.3673
     39 C           6.4093   -1.2001    2.0002 C.3     1  LIG1       -0.0339
     40 H           7.3381    1.2975    1.3165 H       1  LIG1        0.0258
     41 H           5.8194    1.9851    0.7725 H       1  LIG1        0.0258
     42 H           6.5250    0.6061   -0.1020 H       1  LIG1        0.0258
     43 H           6.3667    0.9121    3.4204 H       1  LIG1        0.2102
     44 H           2.3076   -0.6345    2.2414 H       1  LIG1        0.0292
     45 H           3.6872   -1.2547    3.1313 H       1  LIG1        0.0292
     46 H           2.3596   -2.9878    1.5495 H       1  LIG1        0.0294
     47 H           4.1039   -2.9524    1.5194 H       1  LIG1        0.0294
     48 H           2.9423   -0.9569   -2.6175 H       1  LIG1        0.0269
     49 H           1.9949    0.3993   -2.1221 H       1  LIG1        0.0269
     50 H           1.1698   -2.2109   -3.3410 H       1  LIG1        0.0271
     51 H           0.4812   -0.6532   -3.6909 H       1  LIG1        0.0271
     52 H          -3.1255   -1.4463   -1.5139 H       1  LIG1        0.0271
     53 H          -2.6200   -0.6913   -3.0217 H       1  LIG1        0.0271
     54 H          -4.6069    0.3116   -2.0550 H       1  LIG1        0.0268
     55 H          -3.3056    1.4133   -2.3423 H       1  LIG1        0.0268
     56 H          -2.8153    3.5731   -1.2623 H       1  LIG1        0.0236
     57 H          -4.2878    4.5198   -1.0884 H       1  LIG1        0.0236
     58 H          -4.2400    3.2315   -2.2593 H       1  LIG1        0.0236
     59 H          -2.7313    3.1629    2.7636 H       1  LIG1        0.0290
     60 H          -2.3399    4.2480    1.4491 H       1  LIG1        0.0290
     61 H          -0.9880    2.0781    1.7075 H       1  LIG1        0.0271
     62 H          -1.4149    2.6467    0.1278 H       1  LIG1        0.0271
     63 H          -2.2108   -2.2015    0.3439 H       1  LIG1        0.0268
     64 H          -1.6187   -1.6046    1.8653 H       1  LIG1        0.0268
     65 H          -0.2198   -3.3681    0.8682 H       1  LIG1        0.0268
     66 H           0.5549   -1.9315    1.4890 H       1  LIG1        0.0268
     67 H          -2.1478    0.1621    2.7942 H       1  LIG1        0.0235
     68 H          -3.5454   -0.6318    2.0095 H       1  LIG1        0.0235
     69 H          -3.6564    0.9813    2.6485 H       1  LIG1        0.0235
     70 H          -5.3359    1.8290    2.0139 H       1  LIG1        0.2098
     71 H          -6.1430    2.0241   -1.4682 H       1  LIG1        0.0236
     72 H          -6.4704    3.3418   -0.3390 H       1  LIG1        0.0236
     73 H          -6.4369    1.6688    0.2316 H       1  LIG1        0.0236
     74 H          -0.5693    0.9771   -3.0335 H       1  LIG1        0.0235
     75 H           0.2594    1.2841   -1.4818 H       1  LIG1        0.0235
     76 H          -1.3499    1.8474   -1.7647 H       1  LIG1        0.0235
     77 H          -1.5819   -2.5807   -3.2897 H       1  LIG1        0.0235
     78 H          -1.8004   -3.1937   -1.6317 H       1  LIG1        0.0235
     79 H          -0.4092   -3.6672   -2.5803 H       1  LIG1        0.0235
     80 H           4.7664   -3.3136   -0.6403 H       1  LIG1        0.0257
     81 H           4.0741   -2.5633   -2.0393 H       1  LIG1        0.0257
     82 H           3.1367   -3.7831   -1.1477 H       1  LIG1        0.0257
     83 H           7.4146   -0.9717    2.3735 H       1  LIG1        0.0258
     84 H           6.5116   -1.7588    1.0649 H       1  LIG1        0.0258
     85 H           5.9560   -1.8533    2.7533 H       1  LIG1        0.0258
@<TRIPOS>BOND
     1     1     2    1
     2     2     3    1
     3     4     6    1
     4     6     7    1
     5     7     8    1
     6     9    11    1
     7    11    12    1
     8    12    13    1
     9    13    14    1
    10    14    15    1
    11    15    16    1
    12    16    17    1
    13    17    18    1
    14    18    20    1
    15    20    22    1
    16    22    23    1
    17    23    24    1
    18    24    25    1
    19    25    26    1
    20    26    27    1
    21    27    28    1
    22     9    28    1
    23    24    17    1
    24    25    14    1
    25    28    13    1
    26     8    37    1
    27     8    38    1
    28     4    38    1
    29     2    39    1
    30     8     9    1
    31     9    10    1
    32    13    36    1
    33    14    35    1
    34    17    34    1
    35    18    19    1
    36    18    33    1
    37    20    21    1
    38    20    32    1
    39    24    31    1
    40    25    30    1
    41    28    29    1
    42     4     5    1
    43     4     2    1
    44     1    40    1
    45     1    41    1
    46     1    42    1
    47     3    43    1
    48     6    44    1
    49     6    45    1
    50     7    46    1
    51     7    47    1
    52    11    48    1
    53    11    49    1
    54    12    50    1
    55    12    51    1
    56    15    52    1
    57    15    53    1
    58    16    54    1
    59    16    55    1
    60    19    56    1
    61    19    57    1
    62    19    58    1
    63    22    59    1
    64    22    60    1
    65    23    61    1
    66    23    62    1
    67    26    63    1
    68    26    64    1
    69    27    65    1
    70    27    66    1
    71    31    67    1
    72    31    68    1
    73    31    69    1
    74    32    70    1
    75    33    71    1
    76    33    72    1
    77    33    73    1
    78    35    74    1
    79    35    75    1
    80    35    76    1
    81    36    77    1
    82    36    78    1
    83    36    79    1
    84    37    80    1
    85    37    81    1
    86    37    82    1
    87    39    83    1
    88    39    84    1
    89    39    85    1
