@<TRIPOS>MOLECULE
NuBBE_1218
 51 53 0 0 0
SMALL
GASTEIGER

@<TRIPOS>ATOM
      1 O           0.3913    1.0244   -4.1262 O.2     1  LIG1       -0.2869
      2 C          -0.0197    0.7773   -2.9555 C.ar    1  LIG1        0.1969
      3 C          -0.2961   -0.5961   -2.5902 C.ar    1  LIG1        0.0288
      4 C           0.0739   -0.9097   -1.3436 C.ar    1  LIG1        0.1395
      5 O           0.6661    0.0201   -0.4889 O.2     1  LIG1       -0.4507
      6 C           0.3146    1.3520   -0.6589 C.ar    1  LIG1        0.1881
      7 C          -0.1863    1.7839   -1.9037 C.ar    1  LIG1        0.1130
      8 C          -0.7882    3.0417   -1.9958 C.ar    1  LIG1        0.1798
      9 O          -1.4535    3.5616   -3.0878 O.3     1  LIG1       -0.4905
     10 C          -1.5938    2.8104   -4.2903 C.3     1  LIG1        0.0790
     11 C          -0.7970    3.8760   -0.8195 C.ar    1  LIG1        0.2082
     12 O          -1.5764    5.0165   -0.9675 O.3     1  LIG1       -0.4884
     13 C          -1.7207    5.9843    0.0675 C.3     1  LIG1        0.0791
     14 C          -0.1195    3.4964    0.3917 C.ar    1  LIG1        0.2110
     15 O          -0.1076    4.4680    1.3498 O.3     1  LIG1       -0.4883
     16 C           0.1922    4.3156    2.7208 C.3     1  LIG1        0.0791
     17 C           0.4410    2.2080    0.4553 C.ar    1  LIG1        0.2088
     18 O           1.0209    1.5856    1.5338 O.3     1  LIG1       -0.4884
     19 C           2.0552    2.2583    2.2363 C.3     1  LIG1        0.0791
     20 C          -0.0336   -2.2790   -0.8029 C.ar    1  LIG1        0.0211
     21 C          -1.0514   -3.1441   -1.2015 C.ar    1  LIG1       -0.0474
     22 C          -1.1192   -4.4421   -0.6852 C.ar    1  LIG1       -0.0156
     23 C          -0.1974   -4.9175    0.2775 C.ar    1  LIG1        0.1615
     24 C           0.8401   -4.0571    0.6876 C.ar    1  LIG1        0.1622
     25 O           1.9138   -4.2126    1.5312 O.3     1  LIG1       -0.4914
     26 C           2.1906   -5.4639    2.1028 C.3     1  LIG1        0.0790
     27 C           0.8856   -2.7519    0.1451 C.ar    1  LIG1       -0.0056
     28 O          -0.4756   -6.2193    0.6251 O.3     1  LIG1       -0.4915
     29 C          -0.2945   -6.5953    1.9786 C.3     1  LIG1        0.0790
     30 H          -0.6782   -1.2800   -3.3333 H       1  LIG1        0.0693
     31 H          -1.8976    1.7760   -4.1038 H       1  LIG1        0.0660
     32 H          -0.6827    2.8861   -4.8953 H       1  LIG1        0.0660
     33 H          -2.4010    3.2333   -4.8942 H       1  LIG1        0.0660
     34 H          -1.8881    5.5725    1.0664 H       1  LIG1        0.0660
     35 H          -2.6297    6.5615   -0.1269 H       1  LIG1        0.0660
     36 H          -0.8701    6.6736    0.0490 H       1  LIG1        0.0660
     37 H          -0.5079    4.8824    3.3402 H       1  LIG1        0.0660
     38 H           1.1779    4.7634    2.9007 H       1  LIG1        0.0660
     39 H           0.1035    3.2912    3.0658 H       1  LIG1        0.0660
     40 H           1.8001    2.2044    3.3034 H       1  LIG1        0.0660
     41 H           2.1955    3.2888    1.9129 H       1  LIG1        0.0660
     42 H           3.0182    1.7618    2.1223 H       1  LIG1        0.0660
     43 H          -1.8122   -2.8193   -1.9101 H       1  LIG1        0.0626
     44 H          -1.9247   -5.0865   -1.0381 H       1  LIG1        0.0655
     45 H           3.1750   -5.5336    2.5680 H       1  LIG1        0.0660
     46 H           2.1696   -6.2357    1.3271 H       1  LIG1        0.0660
     47 H           1.5296   -5.5860    2.9637 H       1  LIG1        0.0660
     48 H           1.6937   -2.0963    0.4735 H       1  LIG1        0.0662
     49 H          -0.9573   -7.3980    2.3022 H       1  LIG1        0.0660
     50 H          -0.4310   -5.7435    2.6552 H       1  LIG1        0.0660
     51 H           0.6628   -7.1078    2.0660 H       1  LIG1        0.0660
@<TRIPOS>BOND
     1     1     2    2
     2     2     3   ar
     3     3     4   ar
     4     4     5   ar
     5     5     6   ar
     6     6     7   ar
     7     2     7   ar
     8     7     8   ar
     9     8     9    1
    10     9    10    1
    11     8    11   ar
    12    11    12    1
    13    12    13    1
    14    11    14   ar
    15    14    15    1
    16    15    16    1
    17    14    17   ar
    18     6    17   ar
    19    17    18    1
    20    18    19    1
    21     4    20    1
    22    20    21   ar
    23    21    22   ar
    24    22    23   ar
    25    23    24   ar
    26    24    25    1
    27    25    26    1
    28    24    27   ar
    29    20    27   ar
    30    23    28    1
    31    28    29    1
    32     3    30    1
    33    10    31    1
    34    10    32    1
    35    10    33    1
    36    13    34    1
    37    13    35    1
    38    13    36    1
    39    16    37    1
    40    16    38    1
    41    16    39    1
    42    19    40    1
    43    19    41    1
    44    19    42    1
    45    21    43    1
    46    22    44    1
    47    26    45    1
    48    26    46    1
    49    26    47    1
    50    27    48    1
    51    29    49    1
    52    29    50    1
    53    29    51    1
