@<TRIPOS>MOLECULE
NuBBE_1578
 63 66 0 0 0
SMALL
GASTEIGER

@<TRIPOS>ATOM
      1 C          -2.4976    0.1094    1.3807 C.3     1  LIG1       -0.0589
      2 C          -1.0349    0.6498    1.3334 C.3     1  LIG1       -0.0217
      3 C          -0.6777    1.1466   -0.1194 C.3     1  LIG1       -0.0215
      4 H           0.3819    1.3896   -0.1051 H       1  LIG1        0.0314
      5 C          -0.8910    0.0148   -1.1934 C.3     1  LIG1        0.0101
      6 H          -1.9563   -0.2451   -1.1080 H       1  LIG1        0.0346
      7 C          -0.0988   -1.2655   -0.8159 C.3     1  LIG1        0.1436
      8 H          -0.7350   -2.0591   -1.2342 H       1  LIG1        0.0774
      9 C           0.1089   -1.6186    0.6927 C.3     1  LIG1        0.1438
     10 H           1.0997   -2.0657    0.8044 H       1  LIG1        0.0775
     11 C          -0.0499   -0.5034    1.7740 C.3     1  LIG1        0.0105
     12 H          -0.5729   -0.9832    2.6186 H       1  LIG1        0.0348
     13 C           1.3368   -0.0615    2.4492 C.3     1  LIG1       -0.0281
     14 C           1.9068   -1.2413    3.2846 C.3     1  LIG1       -0.0594
     15 C           2.4718    0.3252    1.4915 C.3     1  LIG1       -0.0594
     16 C           1.1382    1.1376    3.4041 C.3     1  LIG1       -0.0475
     17 C           0.3747    2.2791    2.7496 C.3     1  LIG1       -0.0520
     18 C          -1.0149    1.7994    2.3800 C.3     1  LIG1       -0.0469
     19 O          -0.8737   -2.6602    0.9775 O.3     1  LIG1       -0.4575
     20 C          -0.4838   -3.9213    0.6259 C.2     1  LIG1        0.3043
     21 O           0.6602   -4.3498    0.6624 O.2     1  LIG1       -0.2512
     22 C          -1.6484   -4.6711    0.0540 C.3     1  LIG1        0.0332
     23 O           1.1428   -1.5355   -1.5184 O.3     1  LIG1       -0.4575
     24 C           2.1244   -0.6034   -1.6081 C.2     1  LIG1        0.3043
     25 O           2.0267    0.5702   -1.3461 O.2     1  LIG1       -0.2512
     26 C           3.4057   -1.2387   -2.0407 C.3     1  LIG1        0.0332
     27 C          -0.7174    0.3993   -2.7219 C.3     1  LIG1       -0.0089
     28 H           0.2480    0.0527   -3.0959 H       1  LIG1        0.0351
     29 C          -1.7718   -0.2917   -3.6041 C.3     1  LIG1       -0.0579
     30 C          -0.7523    1.8716   -2.9371 C.ar    1  LIG1       -0.0033
     31 C          -1.0516    2.7639   -1.9409 C.ar    1  LIG1        0.1086
     32 C          -1.3675    2.4780   -0.5292 C.3     1  LIG1        0.0095
     33 O          -0.9840    4.0420   -2.3798 O.2     1  LIG1       -0.4675
     34 C          -0.6207    3.9688   -3.6899 C.ar    1  LIG1        0.0923
     35 C          -0.4657    2.6565   -4.0808 C.ar    1  LIG1       -0.0202
     36 H          -2.6511   -0.7834    0.7706 H       1  LIG1        0.0235
     37 H          -3.2149    0.8681    1.0512 H       1  LIG1        0.0235
     38 H          -2.7787   -0.1730    2.4030 H       1  LIG1        0.0235
     39 H           1.2040   -1.5685    4.0564 H       1  LIG1        0.0235
     40 H           2.8387   -0.9516    3.7863 H       1  LIG1        0.0235
     41 H           2.1468   -2.1076    2.6591 H       1  LIG1        0.0235
     42 H           2.2301    1.2028    0.8950 H       1  LIG1        0.0235
     43 H           2.7548   -0.5095    0.8512 H       1  LIG1        0.0235
     44 H           3.3819    0.5907    2.0458 H       1  LIG1        0.0235
     45 H           2.1090    1.5158    3.7517 H       1  LIG1        0.0271
     46 H           0.6017    0.8144    4.3052 H       1  LIG1        0.0271
     47 H           0.2948    3.1100    3.4597 H       1  LIG1        0.0266
     48 H           0.9005    2.6728    1.8739 H       1  LIG1        0.0266
     49 H          -1.6223    2.6484    2.0498 H       1  LIG1        0.0271
     50 H          -1.4982    1.4559    3.3055 H       1  LIG1        0.0271
     51 H          -2.2306   -5.1481    0.8416 H       1  LIG1        0.0342
     52 H          -1.2749   -5.4212   -0.6504 H       1  LIG1        0.0342
     53 H          -2.2747   -3.9815   -0.5218 H       1  LIG1        0.0342
     54 H           3.2128   -2.0718   -2.7145 H       1  LIG1        0.0342
     55 H           3.9553   -1.5815   -1.1554 H       1  LIG1        0.0342
     56 H           3.9951   -0.4872   -2.5709 H       1  LIG1        0.0342
     57 H          -1.8570   -1.3588   -3.3786 H       1  LIG1        0.0236
     58 H          -1.5002   -0.2000   -4.6635 H       1  LIG1        0.0236
     59 H          -2.7598    0.1686   -3.4864 H       1  LIG1        0.0236
     60 H          -2.4529    2.4230   -0.4065 H       1  LIG1        0.0347
     61 H          -0.9912    3.3015    0.0863 H       1  LIG1        0.0347
     62 H          -0.5080    4.9174   -4.1948 H       1  LIG1        0.1029
     63 H          -0.1715    2.3150   -5.0631 H       1  LIG1        0.0652
@<TRIPOS>BOND
     1     2     3    1
     2     3     5    1
     3     5     7    1
     4     7     9    1
     5     9    11    1
     6     2    11    1
     7    11    13    1
     8    13    16    1
     9    16    17    1
    10    17    18    1
    11     2    18    1
    12    19    20    1
    13    20    21    2
    14    20    22    1
    15    23    24    1
    16    24    25    2
    17    24    26    1
    18     5    27    1
    19    27    30    1
    20    30    31   ar
    21    31    32    1
    22     3    32    1
    23    31    33   ar
    24    33    34   ar
    25    34    35   ar
    26    30    35   ar
    27     1     2    1
    28     3     4    1
    29     5     6    1
    30     9    10    1
    31     9    19    1
    32    11    12    1
    33    13    14    1
    34    13    15    1
    35    27    28    1
    36    27    29    1
    37     7    23    1
    38     7     8    1
    39     1    36    1
    40     1    37    1
    41     1    38    1
    42    14    39    1
    43    14    40    1
    44    14    41    1
    45    15    42    1
    46    15    43    1
    47    15    44    1
    48    16    45    1
    49    16    46    1
    50    17    47    1
    51    17    48    1
    52    18    49    1
    53    18    50    1
    54    22    51    1
    55    22    52    1
    56    22    53    1
    57    26    54    1
    58    26    55    1
    59    26    56    1
    60    29    57    1
    61    29    58    1
    62    29    59    1
    63    32    60    1
    64    32    61    1
    65    34    62    1
    66    35    63    1
