@<TRIPOS>MOLECULE
NuBBE_1710
 25 27 0 0 0
SMALL
GASTEIGER

@<TRIPOS>ATOM
      1 O          -2.6042    0.1217   -0.0020 O.2     1  LIG1       -0.2863
      2 C          -1.3781    0.1111   -0.0012 C.ar    1  LIG1        0.2037
      3 C          -0.6197    1.3677   -0.0007 C.ar    1  LIG1        0.1058
      4 C          -1.2627    2.6097   -0.0007 C.ar    1  LIG1        0.1312
      5 O          -2.6246    2.7428   -0.0016 O.3     1  LIG1       -0.5059
      6 C          -0.5155    3.7839    0.0003 C.ar    1  LIG1       -0.0192
      7 C           0.8787    3.7190    0.0012 C.ar    1  LIG1       -0.0548
      8 C           1.5225    2.4787    0.0010 C.ar    1  LIG1       -0.0184
      9 C           0.7727    1.2996    0.0000 C.ar    1  LIG1        0.1428
     10 O           1.4844    0.1234   -0.0001 O.2     1  LIG1       -0.4544
     11 C           0.7857   -1.0600   -0.0002 C.ar    1  LIG1        0.1427
     12 C           1.5445   -2.2330    0.0003 C.ar    1  LIG1        0.0229
     13 C           0.8952   -3.4657    0.0004 C.ar    1  LIG1        0.1204
     14 O           1.5927   -4.6370    0.0009 O.3     1  LIG1       -0.5066
     15 C          -0.4946   -3.5457    0.0002 C.ar    1  LIG1       -0.0193
     16 C          -1.2540   -2.3762   -0.0004 C.ar    1  LIG1       -0.0439
     17 C          -0.6065   -1.1375   -0.0006 C.ar    1  LIG1        0.0649
     18 H          -3.0153    1.8390   -0.0022 H       1  LIG1        0.2922
     19 H          -1.0203    4.7467    0.0004 H       1  LIG1        0.0654
     20 H           1.4624    4.6366    0.0020 H       1  LIG1        0.0620
     21 H           2.6089    2.4354    0.0016 H       1  LIG1        0.0654
     22 H           2.6280   -2.1695    0.0005 H       1  LIG1        0.0691
     23 H           2.5444   -4.4421    0.0010 H       1  LIG1        0.2921
     24 H          -0.9846   -4.5160    0.0004 H       1  LIG1        0.0654
     25 H          -2.3401   -2.4325   -0.0006 H       1  LIG1        0.0627
@<TRIPOS>BOND
     1     1     2    2
     2     2     3   ar
     3     3     4   ar
     4     4     5    1
     5     4     6   ar
     6     6     7   ar
     7     7     8   ar
     8     8     9   ar
     9     3     9   ar
    10     9    10   ar
    11    10    11   ar
    12    11    12   ar
    13    12    13   ar
    14    13    14    1
    15    13    15   ar
    16    15    16   ar
    17    16    17   ar
    18    11    17   ar
    19     2    17   ar
    20     5    18    1
    21     6    19    1
    22     7    20    1
    23     8    21    1
    24    12    22    1
    25    14    23    1
    26    15    24    1
    27    16    25    1
