@<TRIPOS>MOLECULE
NuBBE_1494
 39 40 0 0 0
SMALL
GASTEIGER

@<TRIPOS>ATOM
      1 C           2.5078   -0.3807   -0.8149 C.3     1  LIG1       -0.0593
      2 C           1.1728   -1.1597   -0.7703 C.3     1  LIG1       -0.0278
      3 C           1.0707   -1.9402   -2.0994 C.3     1  LIG1       -0.0593
      4 C          -0.0564   -0.2052   -0.5589 C.3     1  LIG1       -0.0110
      5 H          -0.9342   -0.8651   -0.6393 H       1  LIG1        0.0354
      6 C          -0.0695    0.3685    0.9247 C.3     1  LIG1       -0.0131
      7 H           0.9355    0.2677    1.3504 H       1  LIG1        0.0351
      8 C          -0.9571   -0.5023    1.8290 C.2     1  LIG1       -0.0729
      9 C          -0.9605   -1.8488    1.7424 C.2     1  LIG1       -0.0847
     10 C          -0.1015   -2.7501    0.8933 C.3     1  LIG1       -0.0340
     11 C           1.2481   -2.2000    0.4059 C.3     1  LIG1       -0.0439
     12 C          -1.8777    0.1460    2.8312 C.3     1  LIG1       -0.0435
     13 C          -0.3149    1.8958    1.0106 C.3     1  LIG1       -0.0423
     14 C           0.3036    2.6134   -0.1732 C.3     1  LIG1       -0.0314
     15 C          -0.4607    2.1231   -1.3624 C.2     1  LIG1       -0.0762
     16 C          -0.4413    0.8037   -1.6303 C.2     1  LIG1       -0.0809
     17 C          -1.5503    3.0138   -1.8937 C.3     1  LIG1       -0.0438
     18 H           2.5580    0.2864   -1.6824 H       1  LIG1        0.0235
     19 H           3.3579   -1.0712   -0.8795 H       1  LIG1        0.0235
     20 H           2.6662    0.2282    0.0805 H       1  LIG1        0.0235
     21 H           1.0982   -1.2716   -2.9675 H       1  LIG1        0.0235
     22 H           0.1522   -2.5316   -2.1538 H       1  LIG1        0.0235
     23 H           1.9143   -2.6358   -2.2095 H       1  LIG1        0.0235
     24 H          -1.6605   -2.3942    2.3851 H       1  LIG1        0.0572
     25 H          -0.6996   -3.1281    0.0429 H       1  LIG1        0.0308
     26 H           0.1186   -3.6302    1.5041 H       1  LIG1        0.0308
     27 H           1.8700   -3.0372    0.0946 H       1  LIG1        0.0274
     28 H           1.7699   -1.7565    1.2660 H       1  LIG1        0.0274
     29 H          -2.0504    1.2118    2.6784 H       1  LIG1        0.0274
     30 H          -1.4651    0.0341    3.8392 H       1  LIG1        0.0274
     31 H          -2.8718   -0.3192    2.8059 H       1  LIG1        0.0274
     32 H           0.1098    2.2882    1.9426 H       1  LIG1        0.0274
     33 H          -1.3869    2.1294    1.0187 H       1  LIG1        0.0274
     34 H           1.3706    2.3771   -0.2766 H       1  LIG1        0.0310
     35 H           0.2325    3.7002   -0.0670 H       1  LIG1        0.0310
     36 H          -1.0414    0.4152   -2.4534 H       1  LIG1        0.0575
     37 H          -1.2552    3.5478   -2.7952 H       1  LIG1        0.0274
     38 H          -1.8421    3.7465   -1.1276 H       1  LIG1        0.0274
     39 H          -2.4597    2.4308   -2.0903 H       1  LIG1        0.0274
@<TRIPOS>BOND
     1     1     2    1
     2     2     3    1
     3     2     4    1
     4     4     5    1
     5     4     6    1
     6     6     7    1
     7     6     8    1
     8     8     9    2
     9     9    10    1
    10    10    11    1
    11     2    11    1
    12     8    12    1
    13     6    13    1
    14    13    14    1
    15    14    15    1
    16    15    16    2
    17     4    16    1
    18    15    17    1
    19     1    18    1
    20     1    19    1
    21     1    20    1
    22     3    21    1
    23     3    22    1
    24     3    23    1
    25     9    24    1
    26    10    25    1
    27    10    26    1
    28    11    27    1
    29    11    28    1
    30    12    29    1
    31    12    30    1
    32    12    31    1
    33    13    32    1
    34    13    33    1
    35    14    34    1
    36    14    35    1
    37    16    36    1
    38    17    37    1
    39    17    38    1
    40    17    39    1
