@<TRIPOS>MOLECULE
NuBBE_1271
 71 77 0 0 0
SMALL
GASTEIGER

@<TRIPOS>ATOM
      1 C          -4.9735   -0.0232   -1.9568 C.3     1  LIG1       -0.0358
      2 C          -3.8090    0.3136   -0.9882 C.3     1  LIG1        0.0680
      3 C          -4.1567    1.6891   -0.4077 C.3     1  LIG1       -0.0358
      4 C          -2.4190    0.0444   -1.7040 C.3     1  LIG1        0.0024
      5 H          -2.6876   -0.3082   -2.7117 H       1  LIG1        0.0337
      6 C          -1.4766    1.2114   -2.0014 C.3     1  LIG1       -0.0089
      7 O          -3.8332   -0.6522    0.1043 O.3     1  LIG1       -0.3692
      8 C          -3.0942   -1.7674   -0.3756 C.3     1  LIG1        0.0788
      9 H          -3.7120   -2.2001   -1.1772 H       1  LIG1        0.0608
     10 C          -1.8028   -1.1777   -0.9583 C.3     1  LIG1        0.0406
     11 C          -1.3945   -2.3149   -1.9151 C.3     1  LIG1        0.1010
     12 O          -1.3789   -3.6260   -1.2779 O.3     1  LIG1       -0.4639
     13 C          -0.6592   -0.8070    0.1478 C.3     1  LIG1       -0.0180
     14 H          -1.1782   -0.7640    1.1155 H       1  LIG1        0.0315
     15 C           0.0275    0.6305   -0.0078 C.3     1  LIG1        0.0411
     16 C           1.4934    0.7302    0.5847 C.3     1  LIG1        0.1250
     17 O           1.5173    1.5065    1.8014 O.3     1  LIG1       -0.3515
     18 C           2.2251    2.0649    0.7000 C.3     1  LIG1        0.1858
     19 H           1.7952    2.9694    0.2942 H       1  LIG1        0.0743
     20 C          -0.8405    1.6277    0.8191 C.3     1  LIG1       -0.0531
     21 C          -0.0286    1.0348   -1.5109 C.3     1  LIG1        0.1118
     22 O           0.6108    2.3165   -1.7308 O.3     1  LIG1       -0.4609
     23 C           1.6306    2.3674   -2.6328 C.2     1  LIG1        0.3042
     24 C           2.1714    3.7638   -2.7307 C.3     1  LIG1        0.0332
     25 O           2.0657    1.4121   -3.2583 O.2     1  LIG1       -0.2512
     26 C           0.3734   -1.9553    0.3249 C.3     1  LIG1       -0.0481
     27 C           1.5404   -1.6433    1.2418 C.3     1  LIG1       -0.0409
     28 C           2.3866   -0.4940    0.6949 C.3     1  LIG1        0.0419
     29 C           2.9723   -0.8534   -0.6972 C.3     1  LIG1       -0.0531
     30 C           3.6263   -0.2078    1.6342 C.3     1  LIG1        0.1391
     31 H           4.3420   -1.0224    1.4461 H       1  LIG1        0.0793
     32 C           3.4272   -0.2325    3.1356 C.ar    1  LIG1        0.0310
     33 C           3.1402    0.8203    3.9874 C.ar    1  LIG1        0.0984
     34 O           3.0445    0.4068    5.2739 O.2     1  LIG1       -0.4706
     35 C           3.3093   -0.9207    5.2788 C.ar    1  LIG1        0.0921
     36 C           3.5665   -1.3616    4.0021 C.ar    1  LIG1       -0.0172
     37 O           4.3482    0.9798    1.2179 O.3     1  LIG1       -0.4539
     38 C           3.6992    2.1218    0.8526 C.2     1  LIG1        0.3398
     39 O           4.2957    3.1551    0.5986 O.2     1  LIG1       -0.2478
     40 C          -2.8618   -2.9145    0.5601 C.3     1  LIG1        0.0718
     41 C          -2.1244   -3.9931   -0.1973 C.2     1  LIG1        0.3096
     42 O          -2.1212   -5.1564    0.1945 O.2     1  LIG1       -0.2508
     43 H          -5.0665    0.7403   -2.7364 H       1  LIG1        0.0257
     44 H          -5.9230   -0.0879   -1.4114 H       1  LIG1        0.0257
     45 H          -4.8494   -0.9902   -2.4534 H       1  LIG1        0.0257
     46 H          -5.2353    1.7579   -0.2112 H       1  LIG1        0.0257
     47 H          -3.7225    1.8701    0.5760 H       1  LIG1        0.0257
     48 H          -3.9126    2.5070   -1.0898 H       1  LIG1        0.0257
     49 H          -1.8776    2.1650   -1.6464 H       1  LIG1        0.0305
     50 H          -1.4355    1.3565   -3.0914 H       1  LIG1        0.0305
     51 H          -0.4135   -2.1346   -2.3651 H       1  LIG1        0.0704
     52 H          -2.0887   -2.4093   -2.7599 H       1  LIG1        0.0704
     53 H          -0.8202    1.3978    1.8909 H       1  LIG1        0.0237
     54 H          -1.8734    1.5633    0.5355 H       1  LIG1        0.0237
     55 H          -0.5276    2.6684    0.6846 H       1  LIG1        0.0237
     56 H           0.4492    0.2549   -2.1121 H       1  LIG1        0.0740
     57 H           1.3917    4.4455   -3.0792 H       1  LIG1        0.0342
     58 H           2.9965    3.7826   -3.4488 H       1  LIG1        0.0342
     59 H           2.5560    4.0875   -1.7604 H       1  LIG1        0.0342
     60 H           0.7762   -2.2820   -0.6356 H       1  LIG1        0.0269
     61 H          -0.1160   -2.8258    0.7650 H       1  LIG1        0.0269
     62 H           2.1557   -2.5455    1.3526 H       1  LIG1        0.0273
     63 H           1.1379   -1.4047    2.2334 H       1  LIG1        0.0273
     64 H           2.2130   -0.9100   -1.4794 H       1  LIG1        0.0237
     65 H           3.4806   -1.8250   -0.6624 H       1  LIG1        0.0237
     66 H           3.7060   -0.1141   -1.0361 H       1  LIG1        0.0237
     67 H           2.9683    1.8780    3.8387 H       1  LIG1        0.1033
     68 H           3.2862   -1.3949    6.2499 H       1  LIG1        0.1029
     69 H           3.8246   -2.3751    3.7290 H       1  LIG1        0.0653
     70 H          -3.8270   -3.3129    0.8927 H       1  LIG1        0.0403
     71 H          -2.3097   -2.6331    1.4597 H       1  LIG1        0.0403
@<TRIPOS>BOND
     1     1     2    1
     2     2     3    1
     3     2     4    1
     4     4     5    1
     5     4     6    1
     6     2     7    1
     7     7     8    1
     8     8     9    1
     9     8    10    1
    10    10    11    1
    11    11    12    1
    12     4    10    1
    13    10    13    1
    14    13    14    1
    15    13    15    1
    16    15    16    1
    17    16    17    1
    18    17    18    1
    19    18    19    1
    20    16    18    1
    21    15    20    1
    22    15    21    1
    23     6    21    1
    24    21    22    1
    25    22    23    1
    26    23    24    1
    27    23    25    2
    28    13    26    1
    29    26    27    1
    30    27    28    1
    31    16    28    1
    32    28    29    1
    33    28    30    1
    34    30    31    1
    35    30    32    1
    36    32    33   ar
    37    33    34   ar
    38    34    35   ar
    39    35    36   ar
    40    32    36   ar
    41    30    37    1
    42    37    38    1
    43    18    38    1
    44    38    39    2
    45     8    40    1
    46    40    41    1
    47    12    41    1
    48    41    42    2
    49     1    43    1
    50     1    44    1
    51     1    45    1
    52     3    46    1
    53     3    47    1
    54     3    48    1
    55     6    49    1
    56     6    50    1
    57    11    51    1
    58    11    52    1
    59    20    53    1
    60    20    54    1
    61    20    55    1
    62    21    56    1
    63    24    57    1
    64    24    58    1
    65    24    59    1
    66    26    60    1
    67    26    61    1
    68    27    62    1
    69    27    63    1
    70    29    64    1
    71    29    65    1
    72    29    66    1
    73    33    67    1
    74    35    68    1
    75    36    69    1
    76    40    70    1
    77    40    71    1
