REMARK  Name = NuBBE_960
REMARK  14 active torsions:
REMARK  status: ('A' for Active; 'I' for Inactive)
REMARK    1  A    between atoms: C_1  and  C_2
REMARK    2  A    between atoms: C_11  and  O_23
REMARK    3  A    between atoms: C_13  and  C_21
REMARK    4  A    between atoms: C_13  and  C_22
REMARK    5  A    between atoms: C_14  and  C_16
REMARK    6  A    between atoms: C_16  and  C_17
REMARK    7  A    between atoms: C_17  and  O_19
REMARK    8  A    between atoms: O_19  and  C_20
REMARK    9  A    between atoms: O_23  and  C_24
REMARK   10  A    between atoms: C_24  and  C_26
REMARK   11  A    between atoms: C_26  and  C_29
REMARK   12  A    between atoms: C_27  and  C_28
REMARK   13  A    between atoms: C_32  and  C_35
REMARK   14  A    between atoms: C_36  and  C_42
REMARK                            x       y       z     vdW  Elec       q    Type
REMARK                         _______ _______ _______ _____ _____    ______ ____
ROOT
ATOM      1  C   LIG A   1      -0.238   0.146  -2.659  0.00  0.00    +0.020 C 
ATOM      2  C   LIG A   1      -0.147  -0.198  -1.152  0.00  0.00    +0.037 C 
ATOM      3  C   LIG A   1      -0.285   1.106  -0.249  0.00  0.00    +0.028 C 
ATOM      4  C   LIG A   1      -0.522   0.876   1.254  0.00  0.00    -0.064 C 
ATOM      5  C   LIG A   1      -1.258  -0.233   1.599  0.00  0.00    -0.012 C 
ATOM      6  C   LIG A   1      -1.462  -1.405   0.583  0.00  0.00    +0.120 C 
ATOM      7  C   LIG A   1      -1.501  -0.695  -0.742  0.00  0.00    +0.150 C 
ATOM      8  O   LIG A   1      -2.509  -0.287  -1.291  0.00  0.00    -0.296 OA
ATOM      9  C   LIG A   1      -1.126  -2.882   0.102  0.00  0.00    +0.197 C 
ATOM     10  C   LIG A   1       0.174  -2.874  -0.894  0.00  0.00    +0.007 C 
ATOM     11  C   LIG A   1       0.924  -1.418  -0.895  0.00  0.00    +0.022 C 
ATOM     12  C   LIG A   1       1.030  -4.068  -0.418  0.00  0.00    +0.015 C 
ATOM     13  C   LIG A   1      -0.048  -3.190  -2.393  0.00  0.00    +0.015 C 
ATOM     14  C   LIG A   1       0.159   1.842   2.258  0.00  0.00    +0.035 C 
ATOM     15  C   LIG A   1       0.826   3.192   1.727  0.00  0.00    +0.016 C 
ATOM     16  C   LIG A   1       0.497   3.440   0.238  0.00  0.00    +0.012 C 
ATOM     17  C   LIG A   1       0.590   2.252  -0.689  0.00  0.00    +0.009 C 
ATOM     18  C   LIG A   1       2.365   3.086   2.018  0.00  0.00    +0.016 C 
ATOM     19  C   LIG A   1       0.301   4.455   2.531  0.00  0.00    +0.216 C 
ATOM     20  O   LIG A   1       0.464   4.230   3.950  0.00  0.00    -0.456 OA
ATOM     21  C   LIG A   1       0.175   3.009   4.459  0.00  0.00    +0.308 C 
ATOM     22  O   LIG A   1       0.519   2.683   5.589  0.00  0.00    -0.251 OA
ATOM     23  C   LIG A   1      -0.611   2.097   3.553  0.00  0.00    +0.129 C 
ENDROOT
BRANCH  19  24
ATOM     24  C   LIG A   1       0.963   5.794   2.158  0.00  0.00    +0.031 A 
ATOM     25  C   LIG A   1       0.678   7.082   2.720  0.00  0.00    +0.048 A 
ATOM     26  C   LIG A   1       1.511   7.992   2.106  0.00  0.00    +0.195 A 
ATOM     27  O   LIG A   1       2.290   7.374   1.194  0.00  0.00    -0.471 OA
ATOM     28  C   LIG A   1       1.961   6.066   1.233  0.00  0.00    +0.202 A 
ENDBRANCH  19  24
BRANCH  11  29
ATOM     29  C   LIG A   1       1.942  -1.242   0.276  0.00  0.00    +0.126 C 
BRANCH  29  30
ATOM     30  C   LIG A   1       3.175  -2.161   0.214  0.00  0.00    +0.307 C 
ATOM     31  O   LIG A   1       3.938  -2.243  -0.739  0.00  0.00    -0.251 OA
BRANCH  30  32
ATOM     32  O   LIG A   1       3.232  -2.936   1.341  0.00  0.00    -0.468 OA
ATOM     33  C   LIG A   1       3.912  -4.206   1.271  0.00  0.00    +0.280 C 
ENDBRANCH  30  32
ENDBRANCH  29  30
ENDBRANCH  11  29
BRANCH   9  34
ATOM     34  O   LIG A   1      -2.363  -3.450  -0.404  0.00  0.00    -0.457 OA
BRANCH  34  35
ATOM     35  C   LIG A   1      -2.454  -4.177  -1.526  0.00  0.00    +0.335 C 
ATOM     36  O   LIG A   1      -1.852  -5.258  -1.740  0.00  0.00    -0.245 OA
BRANCH  35  37
ATOM     37  C   LIG A   1      -3.339  -3.499  -2.516  0.00  0.00    +0.029 C 
ATOM     38  C   LIG A   1      -3.237  -3.804  -3.828  0.00  0.00    -0.020 C 
ATOM     39  C   LIG A   1      -4.118  -3.308  -4.932  0.00  0.00    +0.035 C 
ATOM     40  C   LIG A   1      -4.301  -2.527  -1.923  0.00  0.00    +0.051 C 
ENDBRANCH  35  37
ENDBRANCH  34  35
ENDBRANCH   9  34
TORSDOF 7
