@<TRIPOS>MOLECULE
NuBBE_1924
 42 44 0 0 0
SMALL
GASTEIGER

@<TRIPOS>ATOM
      1 O          -3.9528    0.8903    2.2965 O.2     1  LIG1       -0.2839
      2 C          -2.8093    0.6740    1.9079 C.2     1  LIG1        0.2231
      3 C          -2.2775    1.4800    0.7908 C.2     1  LIG1        0.0271
      4 C          -1.1288    1.1279    0.2075 C.2     1  LIG1        0.1130
      5 C          -0.3234   -0.0878    0.5625 C.3     1  LIG1        0.0595
      6 C          -0.5673   -1.1912   -0.5199 C.3     1  LIG1       -0.0185
      7 C           0.1948   -2.4775   -0.2998 C.2     1  LIG1       -0.0899
      8 C          -0.3878   -3.6733   -0.1413 C.2     1  LIG1       -0.1026
      9 C          -0.7255   -0.6295    1.9173 C.2     1  LIG1       -0.0243
     10 C          -1.8736   -0.3273    2.5457 C.2     1  LIG1        0.1637
     11 O          -2.1312   -0.9420    3.7656 O.2     1  LIG1       -0.4916
     12 C          -3.5056   -1.0716    4.1135 C.3     1  LIG1        0.0790
     13 C           1.0817    0.5318    0.4643 C.3     1  LIG1        0.0138
     14 H           1.8232   -0.2138    0.1539 H       1  LIG1        0.0350
     15 C           0.9194    1.6514   -0.5963 C.3     1  LIG1        0.1285
     16 H           1.4043    2.5805   -0.2705 H       1  LIG1        0.0787
     17 O          -0.4927    1.9636   -0.6887 O.2     1  LIG1       -0.4872
     18 C           1.5213    1.3065   -1.9482 C.ar    1  LIG1       -0.0071
     19 C           0.7483    1.2679   -3.1176 C.ar    1  LIG1       -0.0551
     20 C           1.3214    0.9172   -4.3410 C.ar    1  LIG1       -0.0614
     21 C           2.6787    0.6151   -4.4167 C.ar    1  LIG1       -0.0617
     22 C           3.4687    0.6774   -3.2719 C.ar    1  LIG1       -0.0614
     23 C           2.8962    1.0281   -2.0478 C.ar    1  LIG1       -0.0551
     24 C           1.6163    1.1425    1.7685 C.3     1  LIG1       -0.0575
     25 H          -2.8275    2.3727    0.5250 H       1  LIG1        0.0691
     26 H          -0.2942   -0.8252   -1.5160 H       1  LIG1        0.0320
     27 H          -1.6416   -1.4096   -0.5811 H       1  LIG1        0.0320
     28 H           1.2805   -2.4217   -0.2866 H       1  LIG1        0.0567
     29 H          -1.4667   -3.7938   -0.1625 H       1  LIG1        0.0532
     30 H           0.2108   -4.5664    0.0112 H       1  LIG1        0.0532
     31 H          -0.0530   -1.3515    2.3779 H       1  LIG1        0.0620
     32 H          -3.5766   -1.7591    4.9604 H       1  LIG1        0.0660
     33 H          -4.0857   -1.4977    3.2878 H       1  LIG1        0.0660
     34 H          -3.9151   -0.1118    4.4427 H       1  LIG1        0.0660
     35 H          -0.3147    1.4980   -3.0858 H       1  LIG1        0.0621
     36 H           0.7036    0.8768   -5.2339 H       1  LIG1        0.0618
     37 H           3.1202    0.3351   -5.3693 H       1  LIG1        0.0618
     38 H           4.5298    0.4502   -3.3323 H       1  LIG1        0.0618
     39 H           3.5347    1.0750   -1.1673 H       1  LIG1        0.0621
     40 H           0.9230    1.8749    2.1945 H       1  LIG1        0.0234
     41 H           2.5706    1.6492    1.5856 H       1  LIG1        0.0234
     42 H           1.8032    0.3648    2.5157 H       1  LIG1        0.0234
@<TRIPOS>BOND
     1     1     2    2
     2     2     3    1
     3     3     4    2
     4     4     5    1
     5     5     6    1
     6     6     7    1
     7     7     8    2
     8     5     9    1
     9     9    10    2
    10     2    10    1
    11    10    11    1
    12    11    12    1
    13     5    13    1
    14    13    15    1
    15    15    16    1
    16    15    17    1
    17     4    17    1
    18    15    18    1
    19    18    19   ar
    20    19    20   ar
    21    20    21   ar
    22    21    22   ar
    23    22    23   ar
    24    18    23   ar
    25    13    24    1
    26    13    14    1
    27     3    25    1
    28     6    26    1
    29     6    27    1
    30     7    28    1
    31     8    29    1
    32     8    30    1
    33     9    31    1
    34    12    32    1
    35    12    33    1
    36    12    34    1
    37    19    35    1
    38    20    36    1
    39    21    37    1
    40    22    38    1
    41    23    39    1
    42    24    40    1
    43    24    41    1
    44    24    42    1
