REMARK  Name = NuBBE_262
REMARK  10 active torsions:
REMARK  status: ('A' for Active; 'I' for Inactive)
REMARK    1  A    between atoms: C_1  and  O_2
REMARK    2  A    between atoms: O_2  and  C_3
REMARK    3  A    between atoms: C_5  and  C_6
REMARK    4  A    between atoms: C_6  and  C_7
REMARK    5  A    between atoms: C_11  and  C_12
REMARK    6  A    between atoms: C_14  and  C_16
REMARK    7  A    between atoms: C_18  and  O_19
REMARK    8  A    between atoms: O_19  and  C_20
REMARK    9  A    between atoms: C_21  and  O_22
REMARK   10  A    between atoms: O_22  and  C_23
REMARK                            x       y       z     vdW  Elec       q    Type
REMARK                         _______ _______ _______ _____ _____    ______ ____
ROOT
ATOM      1  C   LIG A   1      -2.288   2.525  -1.609  0.00  0.00    +0.160 C 
ATOM      2  C   LIG A   1      -2.755   1.269  -1.439  0.00  0.00    +0.037 C 
ATOM      3  C   LIG A   1      -1.883   0.099  -0.997  0.00  0.00    +0.058 C 
ATOM      4  C   LIG A   1      -0.666   0.372  -1.857  0.00  0.00    +0.155 C 
ATOM      5  O   LIG A   1      -0.397  -0.141  -2.936  0.00  0.00    -0.296 OA
ATOM      6  C   LIG A   1      -1.246   0.271   0.426  0.00  0.00    +0.012 C 
ATOM      7  C   LIG A   1      -2.109   0.989   1.474  0.00  0.00    +0.009 C 
ATOM      8  C   LIG A   1       0.089   1.063   0.213  0.00  0.00    +0.041 C 
ATOM      9  C   LIG A   1       0.075   1.517  -1.251  0.00  0.00    +0.138 C 
ATOM     10  C   LIG A   1      -0.798   2.758  -1.367  0.00  0.00    +0.208 C 
ATOM     11  O   LIG A   1      -0.328   3.876  -1.167  0.00  0.00    -0.288 OA
ENDROOT
BRANCH   8  12
ATOM     12  C   LIG A   1       1.310   0.229   0.570  0.00  0.00    -0.039 A 
ATOM     13  C   LIG A   1       1.650  -0.965  -0.089  0.00  0.00    +0.053 A 
ATOM     14  C   LIG A   1       2.779  -1.720   0.273  0.00  0.00    +0.162 A 
ATOM     15  C   LIG A   1       3.583  -1.284   1.333  0.00  0.00    +0.162 A 
ATOM     16  C   LIG A   1       3.259  -0.085   1.982  0.00  0.00    +0.050 A 
ATOM     17  C   LIG A   1       2.138   0.658   1.610  0.00  0.00    +0.008 A 
BRANCH  14  18
ATOM     18  O   LIG A   1       2.926  -2.845  -0.501  0.00  0.00    -0.491 OA
ATOM     19  C   LIG A   1       4.035  -3.697  -0.251  0.00  0.00    +0.277 C 
ENDBRANCH  14  18
BRANCH  15  20
ATOM     20  O   LIG A   1       4.699  -2.002   1.672  0.00  0.00    -0.491 OA
ATOM     21  C   LIG A   1       5.071  -1.973   3.044  0.00  0.00    +0.277 C 
ENDBRANCH  15  20
ENDBRANCH   8  12
BRANCH   1  23
ATOM     22  C   LIG A   1      -2.890   4.826  -1.527  0.00  0.00    +0.277 C 
ATOM     23  O   LIG A   1      -3.166   3.514  -2.007  0.00  0.00    -0.492 OA
ENDBRANCH   1  23
BRANCH   3  24
ATOM     24  C   LIG A   1      -2.424  -1.316  -1.299  0.00  0.00    +0.045 C 
BRANCH  24  25
ATOM     25  C   LIG A   1      -3.662  -1.726  -0.544  0.00  0.00    -0.033 C 
ATOM     26  C   LIG A   1      -4.801  -2.133  -1.121  0.00  0.00    +0.004 C 
ENDBRANCH  24  25
ENDBRANCH   3  24
TORSDOF 6
