@<TRIPOS>MOLECULE
NuBBE_2284
 51 54 0 0 0
SMALL
GASTEIGER

@<TRIPOS>ATOM
      1 C          -1.9239   -1.2657   -1.1429 C.3     1  LIG1       -0.0219
      2 C          -3.3683   -0.8480   -1.0393 C.2     1  LIG1       -0.0902
      3 C          -4.0821   -0.8767    0.0940 C.2     1  LIG1       -0.1026
      4 C          -0.8986   -0.0951   -0.9674 C.3     1  LIG1        0.0442
      5 C           0.5134   -0.6261   -1.0992 C.2     1  LIG1        0.1504
      6 C           1.2824   -0.5754   -2.1929 C.2     1  LIG1        0.2032
      7 O           2.5874   -1.0609   -2.1295 O.2     1  LIG1       -0.4888
      8 C           3.5454   -0.4212   -2.9639 C.3     1  LIG1        0.0791
      9 C           0.6925   -0.0231   -3.4636 C.2     1  LIG1        0.2290
     10 O           1.3352   -0.0658   -4.5175 O.2     1  LIG1       -0.2859
     11 C          -0.7564    0.5210   -3.4352 C.3     1  LIG1        0.1247
     12 H          -1.4141   -0.3088   -3.7191 H       1  LIG1        0.0680
     13 C          -1.1076    1.0080   -2.0217 C.3     1  LIG1       -0.0059
     14 O          -1.0362    1.6125   -4.3153 O.3     1  LIG1       -0.3718
     15 C          -0.8667    1.3094   -5.6968 C.3     1  LIG1        0.0374
     16 O           1.0321   -1.0422    0.1198 O.2     1  LIG1       -0.4838
     17 C           0.0546   -0.7278    1.1353 C.3     1  LIG1        0.1285
     18 H          -0.5338   -1.6453    1.2744 H       1  LIG1        0.0787
     19 C          -0.8450    0.3682    0.5190 C.3     1  LIG1        0.0104
     20 H          -1.8296    0.3453    0.9960 H       1  LIG1        0.0347
     21 C          -0.3097    1.7898    0.7305 C.3     1  LIG1       -0.0578
     22 C           0.7064   -0.4860    2.4843 C.ar    1  LIG1       -0.0034
     23 C          -0.0823   -0.1672    3.6050 C.ar    1  LIG1       -0.0095
     24 C           0.5321   -0.0923    4.8396 C.ar    1  LIG1        0.1666
     25 C           1.8787   -0.3163    4.9973 C.ar    1  LIG1        0.1662
     26 C           2.6910   -0.6147    3.9289 C.ar    1  LIG1       -0.0158
     27 C           2.0961   -0.7021    2.6666 C.ar    1  LIG1       -0.0514
     28 O           2.2745   -0.2297    6.2948 O.3     1  LIG1       -0.4526
     29 C           1.0153    0.0403    6.9427 C.3     1  LIG1        0.2332
     30 O          -0.0890    0.1698    6.0215 O.3     1  LIG1       -0.4526
     31 H          -1.7857   -1.7578   -2.1139 H       1  LIG1        0.0317
     32 H          -1.7390   -2.0676   -0.4173 H       1  LIG1        0.0317
     33 H          -3.8578   -0.5227   -1.9562 H       1  LIG1        0.0567
     34 H          -3.6485   -1.1934    1.0379 H       1  LIG1        0.0532
     35 H          -5.1211   -0.5608    0.1082 H       1  LIG1        0.0532
     36 H           4.5408   -0.7147   -2.6177 H       1  LIG1        0.0660
     37 H           3.4751    0.6706   -2.8996 H       1  LIG1        0.0660
     38 H           3.4628   -0.7658   -3.9976 H       1  LIG1        0.0660
     39 H          -2.1335    1.3956   -1.9969 H       1  LIG1        0.0304
     40 H          -0.4717    1.8797   -1.8209 H       1  LIG1        0.0304
     41 H          -1.3472    2.0987   -6.2814 H       1  LIG1        0.0524
     42 H          -1.3269    0.3514   -5.9579 H       1  LIG1        0.0524
     43 H           0.1910    1.3149   -5.9700 H       1  LIG1        0.0524
     44 H           0.7029    1.9155    0.3373 H       1  LIG1        0.0234
     45 H          -0.2968    2.0504    1.7931 H       1  LIG1        0.0234
     46 H          -0.9672    2.5226    0.2496 H       1  LIG1        0.0234
     47 H          -1.1525   -0.0098    3.5233 H       1  LIG1        0.0659
     48 H           3.7503   -0.8008    4.0631 H       1  LIG1        0.0655
     49 H           2.7255   -0.9706    1.8186 H       1  LIG1        0.0623
     50 H           1.1090    0.9699    7.5152 H       1  LIG1        0.1166
     51 H           0.7965   -0.7793    7.6377 H       1  LIG1        0.1166
@<TRIPOS>BOND
     1     1     2    1
     2     2     3    2
     3     4     5    1
     4     5     6    2
     5     7     8    1
     6     6     9    1
     7     9    11    1
     8    11    13    1
     9     4    13    1
    10    14    15    1
    11     5    16    1
    12    16    17    1
    13    17    19    1
    14     4    19    1
    15    22    23   ar
    16    23    24   ar
    17    24    25   ar
    18    25    26   ar
    19    26    27   ar
    20    22    27   ar
    21    25    28    1
    22    28    29    1
    23    29    30    1
    24    24    30    1
    25     1     4    1
    26     6     7    1
    27     9    10    2
    28    19    20    1
    29    19    21    1
    30    11    14    1
    31    11    12    1
    32    17    22    1
    33    17    18    1
    34     1    31    1
    35     1    32    1
    36     2    33    1
    37     3    34    1
    38     3    35    1
    39     8    36    1
    40     8    37    1
    41     8    38    1
    42    13    39    1
    43    13    40    1
    44    15    41    1
    45    15    42    1
    46    15    43    1
    47    21    44    1
    48    21    45    1
    49    21    46    1
    50    23    47    1
    51    26    48    1
    52    27    49    1
    53    29    50    1
    54    29    51    1
