REMARK  Name = NuBBE_1761
REMARK  6 active torsions:
REMARK  status: ('A' for Active; 'I' for Inactive)
REMARK    1  A    between atoms: O_1  and  C_2
REMARK    2  A    between atoms: O_1  and  C_3
REMARK    3  A    between atoms: C_7  and  C_11
REMARK    4  A    between atoms: C_8  and  O_9
REMARK    5  A    between atoms: O_9  and  C_10
REMARK    6  A    between atoms: C_11  and  C_12
REMARK                            x       y       z     vdW  Elec       q    Type
REMARK                         _______ _______ _______ _____ _____    ______ ____
ROOT
ATOM      1  C   LIG A   1      -1.173  -0.356   0.578  0.00  0.00    +0.208 A 
ATOM      2  C   LIG A   1      -0.887  -1.492  -0.168  0.00  0.00    +0.211 A 
ATOM      3  C   LIG A   1       0.218  -1.561  -0.990  0.00  0.00    +0.170 A 
ATOM      4  C   LIG A   1       1.108  -0.519  -1.123  0.00  0.00    +0.057 A 
ATOM      5  C   LIG A   1       0.897   0.642  -0.362  0.00  0.00    +0.005 A 
ATOM      6  C   LIG A   1      -0.239   0.713   0.506  0.00  0.00    +0.169 A 
ATOM      7  O   LIG A   1       0.344  -2.761  -1.620  0.00  0.00    -0.453 OA
ATOM      8  C   LIG A   1      -0.752  -3.484  -1.039  0.00  0.00    +0.467 C 
ATOM      9  O   LIG A   1      -1.589  -2.664  -0.206  0.00  0.00    -0.449 OA
ENDROOT
BRANCH   1  10
ATOM     10  O   LIG A   1      -2.282  -0.184   1.363  0.00  0.00    -0.488 OA
ATOM     11  C   LIG A   1      -3.195  -1.265   1.509  0.00  0.00    +0.277 C 
ENDBRANCH   1  10
BRANCH   6  12
ATOM     12  O   LIG A   1      -0.339   1.893   1.209  0.00  0.00    -0.491 OA
ATOM     13  C   LIG A   1      -0.953   1.866   2.493  0.00  0.00    +0.277 C 
ENDBRANCH   6  12
BRANCH   5  14
ATOM     14  C   LIG A   1       1.976   1.716  -0.378  0.00  0.00    +0.065 C 
BRANCH  14  15
ATOM     15  C   LIG A   1       2.357   2.227  -1.744  0.00  0.00    -0.030 C 
ATOM     16  C   LIG A   1       3.594   2.136  -2.275  0.00  0.00    +0.004 C 
ENDBRANCH  14  15
ENDBRANCH   5  14
TORSDOF 4
