@<TRIPOS>MOLECULE
NuBBE_2176
 28 28 0 0 0
SMALL
GASTEIGER

@<TRIPOS>ATOM
      1 O          -2.2108    0.9242   -0.0021 O.3     1  LIG1       -0.4914
      2 C          -2.9898   -0.2441    0.1842 C.3     1  LIG1        0.0790
      3 C          -0.8645    0.7934   -0.1878 C.ar    1  LIG1        0.1620
      4 C          -0.1005    1.9675   -0.2876 C.ar    1  LIG1        0.1650
      5 O          -0.5777    3.2502   -0.1343 O.3     1  LIG1       -0.4913
      6 C          -1.6472    3.4036    0.8015 C.3     1  LIG1        0.0790
      7 C           1.2636    1.8805   -0.6067 C.ar    1  LIG1        0.0255
      8 C           1.8758    0.6317   -0.7495 C.ar    1  LIG1        0.1240
      9 C           1.1464   -0.5460   -0.5774 C.ar    1  LIG1        0.0014
     10 C          -0.2307   -0.4447   -0.3206 C.ar    1  LIG1       -0.0094
     11 C           1.7643   -1.9239   -0.6720 C.3     1  LIG1       -0.0062
     12 C           1.6085   -2.7026    0.6080 C.2     1  LIG1       -0.0867
     13 C           0.9909   -3.8978    0.7052 C.2     1  LIG1       -0.1023
     14 O           3.2050    0.5439   -1.0548 O.3     1  LIG1       -0.5064
     15 H          -4.0267    0.0755    0.3212 H       1  LIG1        0.0660
     16 H          -2.6803   -0.7798    1.0869 H       1  LIG1        0.0660
     17 H          -2.9527   -0.8859   -0.7007 H       1  LIG1        0.0660
     18 H          -1.7864    4.4708    0.9952 H       1  LIG1        0.0660
     19 H          -1.4172    2.9142    1.7554 H       1  LIG1        0.0660
     20 H          -2.6007    3.0573    0.3930 H       1  LIG1        0.0660
     21 H           1.8362    2.7966   -0.7221 H       1  LIG1        0.0692
     22 H          -0.7923   -1.3684   -0.2255 H       1  LIG1        0.0659
     23 H           2.8341   -1.8653   -0.9020 H       1  LIG1        0.0357
     24 H           1.2972   -2.4506   -1.5140 H       1  LIG1        0.0357
     25 H           2.0217   -2.2512    1.5050 H       1  LIG1        0.0570
     26 H           0.5632   -4.3872   -0.1601 H       1  LIG1        0.0532
     27 H           0.9127   -4.3989    1.6628 H       1  LIG1        0.0532
     28 H           3.5579    1.4369   -1.2012 H       1  LIG1        0.2921
@<TRIPOS>BOND
     1     1     2    1
     2     1     3    1
     3     3     4   ar
     4     4     5    1
     5     5     6    1
     6     4     7   ar
     7     7     8   ar
     8     8     9   ar
     9     9    10   ar
    10     3    10   ar
    11     9    11    1
    12    11    12    1
    13    12    13    2
    14     8    14    1
    15     2    15    1
    16     2    16    1
    17     2    17    1
    18     6    18    1
    19     6    19    1
    20     6    20    1
    21     7    21    1
    22    10    22    1
    23    11    23    1
    24    11    24    1
    25    12    25    1
    26    13    26    1
    27    13    27    1
    28    14    28    1
