@<TRIPOS>MOLECULE
NuBBE_2163
 49 52 0 0 0
SMALL
GASTEIGER

@<TRIPOS>ATOM
      1 C          -0.2462   -1.7080   -4.0400 C.3     1  LIG1        0.0790
      2 O          -0.3302   -2.6417   -2.9687 O.3     1  LIG1       -0.4914
      3 C           0.2389   -2.2588   -1.7854 C.ar    1  LIG1        0.1619
      4 C           0.8463   -3.2224   -0.9691 C.ar    1  LIG1        0.1622
      5 O           1.0112   -4.5557   -1.2490 O.3     1  LIG1       -0.4914
      6 C           0.0323   -5.1676   -2.0827 C.3     1  LIG1        0.0790
      7 C           1.4426   -2.8186    0.2344 C.ar    1  LIG1       -0.0055
      8 C           0.1897   -0.9265   -1.3543 C.ar    1  LIG1       -0.0094
      9 C           0.7554   -0.5107   -0.1332 C.ar    1  LIG1        0.0027
     10 C           0.7000    0.9705    0.2484 C.3     1  LIG1        0.1199
     11 O           1.5645    1.6411   -0.6883 O.3     1  LIG1       -0.3790
     12 C          -0.7316    1.5554    0.1103 C.ar    1  LIG1       -0.0077
     13 C          -1.8112    1.0203    0.8480 C.ar    1  LIG1       -0.0099
     14 C          -3.0697    1.5787    0.6920 C.ar    1  LIG1        0.1666
     15 C          -3.3051    2.6128   -0.1806 C.ar    1  LIG1        0.1662
     16 O          -4.6063    3.0077   -0.1891 O.3     1  LIG1       -0.4526
     17 C          -5.1513    2.1588    0.8414 C.3     1  LIG1        0.2332
     18 O          -4.1975    1.2043    1.3575 O.3     1  LIG1       -0.4526
     19 C          -2.2935    3.1613   -0.9321 C.ar    1  LIG1       -0.0158
     20 C          -1.0021    2.6393   -0.7706 C.ar    1  LIG1       -0.0518
     21 C           1.4111   -1.4698    0.6383 C.ar    1  LIG1        0.0276
     22 C           2.1475   -1.0768    1.8648 C.2     1  LIG1        0.1668
     23 C           2.5276    0.3980    1.9624 C.3     1  LIG1        0.0251
     24 H           3.2989    0.5793    1.2010 H       1  LIG1        0.0382
     25 C           3.1583    0.6831    3.3296 C.3     1  LIG1       -0.0550
     26 C           1.2712    1.2583    1.6799 C.3     1  LIG1        0.0030
     27 H           0.5157    0.9800    2.4282 H       1  LIG1        0.0339
     28 C           1.5849    2.7554    1.8654 C.3     1  LIG1       -0.0585
     29 O           2.4727   -1.9213    2.6851 O.2     1  LIG1       -0.2917
     30 H          -0.5455   -2.2285   -4.9542 H       1  LIG1        0.0660
     31 H           0.7793   -1.3474   -4.1754 H       1  LIG1        0.0660
     32 H          -0.9420   -0.8762   -3.8961 H       1  LIG1        0.0660
     33 H           0.2040   -6.2483   -2.0654 H       1  LIG1        0.0660
     34 H           0.1397   -4.8625   -3.1273 H       1  LIG1        0.0660
     35 H          -0.9792   -4.9827   -1.7059 H       1  LIG1        0.0660
     36 H           1.9512   -3.5607    0.8494 H       1  LIG1        0.0662
     37 H          -0.3008   -0.1771   -1.9697 H       1  LIG1        0.0659
     38 H           2.1681    0.9915   -1.0845 H       1  LIG1        0.2111
     39 H          -1.6803    0.1877    1.5319 H       1  LIG1        0.0659
     40 H          -6.0114    1.6144    0.4348 H       1  LIG1        0.1166
     41 H          -5.5000    2.7940    1.6654 H       1  LIG1        0.1166
     42 H          -2.4889    3.9809   -1.6149 H       1  LIG1        0.0655
     43 H          -0.1940    3.0974   -1.3391 H       1  LIG1        0.0622
     44 H           3.9806   -0.0104    3.5409 H       1  LIG1        0.0237
     45 H           2.4227    0.5789    4.1340 H       1  LIG1        0.0237
     46 H           3.5786    1.6930    3.3735 H       1  LIG1        0.0237
     47 H           1.7483    2.9942    2.9208 H       1  LIG1        0.0234
     48 H           0.7605    3.3885    1.5260 H       1  LIG1        0.0234
     49 H           2.4850    3.0468    1.3121 H       1  LIG1        0.0234
@<TRIPOS>BOND
     1     1     2    1
     2     2     3    1
     3     3     4   ar
     4     4     5    1
     5     5     6    1
     6     4     7   ar
     7     3     8   ar
     8     8     9   ar
     9     9    10    1
    10    12    13   ar
    11    13    14   ar
    12    14    15   ar
    13    15    16    1
    14    16    17    1
    15    17    18    1
    16    14    18    1
    17    15    19   ar
    18    19    20   ar
    19    12    20   ar
    20     9    21   ar
    21     7    21   ar
    22    21    22    1
    23    22    23    1
    24    23    24    1
    25    23    25    1
    26    23    26    1
    27    26    27    1
    28    10    26    1
    29    26    28    1
    30    22    29    2
    31    10    12    1
    32    10    11    1
    33     1    30    1
    34     1    31    1
    35     1    32    1
    36     6    33    1
    37     6    34    1
    38     6    35    1
    39     7    36    1
    40     8    37    1
    41    11    38    1
    42    13    39    1
    43    17    40    1
    44    17    41    1
    45    19    42    1
    46    20    43    1
    47    25    44    1
    48    25    45    1
    49    25    46    1
    50    28    47    1
    51    28    48    1
    52    28    49    1
