@<TRIPOS>MOLECULE
NuBBE_310
 73 74 0 0 0
SMALL
GASTEIGER

@<TRIPOS>ATOM
      1 H          -0.9401    4.3116    0.0356 H       1  LIG1        0.1226
      2 N          -0.1920    3.6429   -0.1495 N.3     1  LIG1       -0.3074
      3 C          -0.6959    2.2822    0.0763 C.3     1  LIG1        0.0422
      4 C          -0.9910    2.0494    1.5655 C.3     1  LIG1       -0.0462
      5 C          -1.8507    1.8975   -0.8611 C.3     1  LIG1        0.1184
      6 O          -2.1514    0.4907   -0.7929 O.3     1  LIG1       -0.4567
      7 C          -1.2866   -0.3702   -1.4296 C.2     1  LIG1        0.3323
      8 C          -2.0615   -1.5314   -1.8859 C.2     1  LIG1        0.0231
      9 C          -3.1098   -1.9638   -1.1984 C.2     1  LIG1       -0.0478
     10 C          -3.9570   -3.0477   -1.6778 C.ar    1  LIG1       -0.0246
     11 C          -4.2292   -3.2123   -3.0427 C.ar    1  LIG1       -0.0511
     12 C          -5.0389   -4.2589   -3.4701 C.ar    1  LIG1       -0.0196
     13 C          -5.5843   -5.1198   -2.5247 C.ar    1  LIG1        0.1169
     14 O          -6.3653   -6.1697   -2.9015 O.3     1  LIG1       -0.5068
     15 C          -5.3501   -4.9433   -1.1656 C.ar    1  LIG1       -0.0196
     16 C          -4.5369   -3.8998   -0.7387 C.ar    1  LIG1       -0.0511
     17 O          -0.1634   -0.1886   -1.7846 O.2     1  LIG1       -0.2456
     18 C          -1.6161    2.2913   -2.3300 C.3     1  LIG1       -0.0128
     19 C          -0.8908    3.6125   -2.5109 C.3     1  LIG1       -0.0341
     20 C           0.2887    3.8191   -1.5340 C.3     1  LIG1        0.0081
     21 C           1.5611    2.9848   -1.9115 C.3     1  LIG1       -0.0375
     22 C           2.7793    3.2187   -0.9931 C.3     1  LIG1       -0.0516
     23 C           4.0238    2.3580   -1.2847 C.3     1  LIG1       -0.0530
     24 C           3.9116    0.8254   -1.2055 C.3     1  LIG1       -0.0531
     25 C           3.5314    0.1662    0.1432 C.3     1  LIG1       -0.0531
     26 C           2.1451    0.4856    0.7026 C.3     1  LIG1       -0.0531
     27 C           1.7313   -0.1248    2.0376 C.3     1  LIG1       -0.0530
     28 C           1.6250   -1.6363    2.0147 C.3     1  LIG1       -0.0527
     29 C           1.1022   -2.2894    3.3010 C.3     1  LIG1       -0.0464
     30 C           1.9812   -2.0964    4.5348 C.3     1  LIG1        0.0055
     31 C           2.0815   -0.6612    5.0174 C.2     1  LIG1        0.1303
     32 C           3.4609   -0.0342    5.0543 C.3     1  LIG1       -0.0061
     33 O           1.0763   -0.0163    5.3199 O.2     1  LIG1       -0.2977
     34 H           0.1098    1.6050   -0.1463 H       1  LIG1        0.0494
     35 H          -1.8883    2.5568    1.9290 H       1  LIG1        0.0246
     36 H          -0.1458    2.3888    2.1809 H       1  LIG1        0.0246
     37 H          -1.1206    0.9787    1.7645 H       1  LIG1        0.0246
     38 H          -2.7678    2.4040   -0.5174 H       1  LIG1        0.0749
     39 H          -1.7310   -1.9461   -2.8338 H       1  LIG1        0.0689
     40 H          -3.3769   -1.5270   -0.2348 H       1  LIG1        0.0626
     41 H          -3.8176   -2.5314   -3.7842 H       1  LIG1        0.0625
     42 H          -5.2276   -4.3791   -4.5313 H       1  LIG1        0.0654
     43 H          -6.3731   -6.2071   -3.8717 H       1  LIG1        0.2921
     44 H          -5.7902   -5.6191   -0.4398 H       1  LIG1        0.0654
     45 H          -4.3464   -3.7662    0.3239 H       1  LIG1        0.0625
     46 H          -2.5763    2.2806   -2.8632 H       1  LIG1        0.0302
     47 H          -1.0261    1.5486   -2.8688 H       1  LIG1        0.0302
     48 H          -1.6214    4.4208   -2.3895 H       1  LIG1        0.0281
     49 H          -0.5338    3.6673   -3.5468 H       1  LIG1        0.0281
     50 H           0.5820    4.8710   -1.6274 H       1  LIG1        0.0460
     51 H           1.8592    3.2742   -2.9275 H       1  LIG1        0.0280
     52 H           1.3251    1.9188   -1.9629 H       1  LIG1        0.0280
     53 H           2.5120    3.1152    0.0546 H       1  LIG1        0.0266
     54 H           3.0779    4.2703   -1.0763 H       1  LIG1        0.0266
     55 H           4.8256    2.6690   -0.6012 H       1  LIG1        0.0265
     56 H           4.3904    2.6161   -2.2895 H       1  LIG1        0.0265
     57 H           4.9148    0.4373   -1.4492 H       1  LIG1        0.0265
     58 H           3.2698    0.4566   -2.0143 H       1  LIG1        0.0265
     59 H           4.3082    0.3935    0.8807 H       1  LIG1        0.0265
     60 H           3.5683   -0.9159   -0.0322 H       1  LIG1        0.0265
     61 H           1.4189    0.1700   -0.0389 H       1  LIG1        0.0265
     62 H           2.0508    1.5504    0.8790 H       1  LIG1        0.0265
     63 H           0.7663    0.2788    2.3533 H       1  LIG1        0.0265
     64 H           2.4293    0.2417    2.7714 H       1  LIG1        0.0265
     65 H           2.6029   -2.0581    1.7728 H       1  LIG1        0.0265
     66 H           0.9357   -1.9054    1.2050 H       1  LIG1        0.0265
     67 H           1.0485   -3.3692    3.1039 H       1  LIG1        0.0269
     68 H           0.0729   -1.9693    3.5059 H       1  LIG1        0.0269
     69 H           2.9835   -2.4882    4.3384 H       1  LIG1        0.0341
     70 H           1.5723   -2.6800    5.3697 H       1  LIG1        0.0341
     71 H           4.2121   -0.7909    5.2845 H       1  LIG1        0.0306
     72 H           3.4851    0.7452    5.8174 H       1  LIG1        0.0306
     73 H           3.7331    0.4225    4.1020 H       1  LIG1        0.0306
@<TRIPOS>BOND
     1     1     2    1
     2     2     3    1
     3     3     4    1
     4     3     5    1
     5     5     6    1
     6     6     7    1
     7     7     8    1
     8     8     9    2
     9     9    10    1
    10    10    11   ar
    11    11    12   ar
    12    12    13   ar
    13    13    14    1
    14    13    15   ar
    15    15    16   ar
    16    10    16   ar
    17     7    17    2
    18     5    18    1
    19    18    19    1
    20    19    20    1
    21     2    20    1
    22    20    21    1
    23    21    22    1
    24    22    23    1
    25    23    24    1
    26    24    25    1
    27    25    26    1
    28    26    27    1
    29    27    28    1
    30    28    29    1
    31    29    30    1
    32    30    31    1
    33    31    32    1
    34    31    33    2
    35     3    34    1
    36     4    35    1
    37     4    36    1
    38     4    37    1
    39     5    38    1
    40     8    39    1
    41     9    40    1
    42    11    41    1
    43    12    42    1
    44    14    43    1
    45    15    44    1
    46    16    45    1
    47    18    46    1
    48    18    47    1
    49    19    48    1
    50    19    49    1
    51    20    50    1
    52    21    51    1
    53    21    52    1
    54    22    53    1
    55    22    54    1
    56    23    55    1
    57    23    56    1
    58    24    57    1
    59    24    58    1
    60    25    59    1
    61    25    60    1
    62    26    61    1
    63    26    62    1
    64    27    63    1
    65    27    64    1
    66    28    65    1
    67    28    66    1
    68    29    67    1
    69    29    68    1
    70    30    69    1
    71    30    70    1
    72    32    71    1
    73    32    72    1
    74    32    73    1
