@<TRIPOS>MOLECULE
NuBBE_2035
 45 48 0 0 0
SMALL
GASTEIGER

@<TRIPOS>ATOM
      1 C          -2.2822   -1.6937    0.3266 C.3     1  LIG1       -0.0327
      2 C          -0.8065   -1.9600    0.5258 C.ar    1  LIG1        0.0336
      3 C           0.0999   -0.8871    0.6327 C.ar    1  LIG1        0.1344
      4 C           1.4639   -1.1197    0.8298 C.ar    1  LIG1        0.0365
      5 C           1.9001   -2.4427    0.9913 C.ar    1  LIG1        0.1299
      6 C           1.0294   -3.5458    0.8894 C.ar    1  LIG1        0.0333
      7 C          -0.3336   -3.2939    0.6239 C.ar    1  LIG1        0.1328
      8 O          -1.3199   -4.2489    0.5333 O.3     1  LIG1       -0.4943
      9 C          -1.0071   -5.4610   -0.1403 C.3     1  LIG1        0.0788
     10 C           1.5885   -4.9246    1.1294 C.3     1  LIG1       -0.0327
     11 O           3.2210   -2.7044    1.2614 O.3     1  LIG1       -0.5060
     12 C           2.4220    0.0365    0.8744 C.3     1  LIG1       -0.0171
     13 C           1.8472    1.2319    0.1397 C.3     1  LIG1       -0.0072
     14 C           0.4442    1.4990    0.6706 C.3     1  LIG1        0.1289
     15 O          -0.4259    0.3701    0.4921 O.3     1  LIG1       -0.4833
     16 C          -0.1704    2.6837   -0.0575 C.ar    1  LIG1        0.0377
     17 C          -0.8761    2.4892   -1.2608 C.ar    1  LIG1       -0.0060
     18 C          -1.4236    3.5797   -1.8925 C.ar    1  LIG1        0.1668
     19 C          -1.2859    4.8530   -1.3831 C.ar    1  LIG1        0.1697
     20 C          -0.5862    5.0965   -0.2249 C.ar    1  LIG1        0.0257
     21 C          -0.0223    4.0023    0.4344 C.ar    1  LIG1        0.1272
     22 O           0.6999    4.1946    1.5795 O.3     1  LIG1       -0.5062
     23 O          -1.9055    5.7856   -2.1548 O.3     1  LIG1       -0.4525
     24 C          -2.4582    4.9549   -3.1984 C.3     1  LIG1        0.2332
     25 O          -2.1411    3.5570   -3.0461 O.3     1  LIG1       -0.4526
     26 H          -2.5052   -0.6371    0.1452 H       1  LIG1        0.0280
     27 H          -2.8415   -1.9935    1.2189 H       1  LIG1        0.0280
     28 H          -2.6584   -2.2424   -0.5428 H       1  LIG1        0.0280
     29 H          -1.9312   -5.8727   -0.5575 H       1  LIG1        0.0660
     30 H          -0.6337   -6.1971    0.5774 H       1  LIG1        0.0660
     31 H          -0.3100   -5.3169   -0.9727 H       1  LIG1        0.0660
     32 H           2.6471   -4.9192    1.4055 H       1  LIG1        0.0280
     33 H           1.5338   -5.5352    0.2248 H       1  LIG1        0.0280
     34 H           1.0584   -5.4081    1.9556 H       1  LIG1        0.0280
     35 H           3.6294   -1.9198    1.6578 H       1  LIG1        0.2922
     36 H           3.3718   -0.2301    0.3976 H       1  LIG1        0.0317
     37 H           2.6245    0.2902    1.9220 H       1  LIG1        0.0317
     38 H           1.8112    1.0078   -0.9354 H       1  LIG1        0.0307
     39 H           2.5014    2.1016    0.2695 H       1  LIG1        0.0307
     40 H           0.4699    1.7057    1.7481 H       1  LIG1        0.0785
     41 H          -1.0002    1.4953   -1.6867 H       1  LIG1        0.0660
     42 H          -0.4869    6.1126    0.1446 H       1  LIG1        0.0692
     43 H           0.6650    5.1388    1.8136 H       1  LIG1        0.2921
     44 H          -2.0687    5.2991   -4.1631 H       1  LIG1        0.1166
     45 H          -3.5484    5.0689   -3.1981 H       1  LIG1        0.1166
@<TRIPOS>BOND
     1     1     2    1
     2     2     3   ar
     3     3     4   ar
     4     4     5   ar
     5     5     6   ar
     6     6     7   ar
     7     2     7   ar
     8     7     8    1
     9     8     9    1
    10     6    10    1
    11     5    11    1
    12     4    12    1
    13    12    13    1
    14    13    14    1
    15    14    15    1
    16     3    15    1
    17    14    16    1
    18    16    17   ar
    19    17    18   ar
    20    18    19   ar
    21    19    20   ar
    22    20    21   ar
    23    16    21   ar
    24    21    22    1
    25    19    23    1
    26    23    24    1
    27    24    25    1
    28    18    25    1
    29     1    26    1
    30     1    27    1
    31     1    28    1
    32     9    29    1
    33     9    30    1
    34     9    31    1
    35    10    32    1
    36    10    33    1
    37    10    34    1
    38    11    35    1
    39    12    36    1
    40    12    37    1
    41    13    38    1
    42    13    39    1
    43    14    40    1
    44    17    41    1
    45    20    42    1
    46    22    43    1
    47    24    44    1
    48    24    45    1
