@<TRIPOS>MOLECULE
NuBBE_2282
 51 54 0 0 0
SMALL
GASTEIGER

@<TRIPOS>ATOM
      1 O          -0.7027   -0.5578    1.5791 O.2     1  LIG1       -0.2863
      2 C           0.0500   -0.5012    0.6139 C.ar    1  LIG1        0.2037
      3 C           0.5498   -1.7096   -0.0970 C.ar    1  LIG1        0.0644
      4 C          -0.1826   -2.9764   -0.1221 C.ar    1  LIG1       -0.0110
      5 C          -0.9675   -3.3517   -1.2230 C.ar    1  LIG1       -0.0503
      6 C          -1.6817   -4.5577   -1.2024 C.ar    1  LIG1       -0.0187
      7 C          -1.5931   -5.3962   -0.0870 C.ar    1  LIG1        0.1317
      8 O          -2.4100   -6.5502   -0.0932 O.3     1  LIG1       -0.4260
      9 C          -2.0220   -7.7103    0.5871 C.2     1  LIG1        0.3092
     10 C          -3.1263   -8.7290    0.5088 C.3     1  LIG1        0.0336
     11 O          -0.9564   -7.9182    1.1297 O.2     1  LIG1       -0.2507
     12 C          -0.8070   -5.0329    1.0036 C.ar    1  LIG1       -0.0187
     13 C          -0.0967   -3.8322    0.9796 C.ar    1  LIG1       -0.0503
     14 C           1.7902   -1.6144   -0.5949 C.ar    1  LIG1        0.1038
     15 O           2.5748   -0.4863   -0.5634 O.2     1  LIG1       -0.4618
     16 C           1.9343    0.7052   -0.3175 C.ar    1  LIG1        0.1455
     17 C           2.6696    1.8593   -0.5492 C.ar    1  LIG1        0.0239
     18 C           2.0815    3.1066   -0.3571 C.ar    1  LIG1        0.1359
     19 C           0.7349    3.2164    0.0217 C.ar    1  LIG1        0.0598
     20 C           0.1745    4.5623    0.1425 C.2     1  LIG1       -0.0478
     21 C           0.9722    5.6165   -0.0729 C.2     1  LIG1       -0.0408
     22 C           2.4376    5.5035   -0.4261 C.3     1  LIG1        0.1235
     23 C           2.7210    6.1817   -1.7726 C.3     1  LIG1       -0.0215
     24 C           3.2871    6.1768    0.6616 C.3     1  LIG1       -0.0215
     25 O           2.9274    4.1586   -0.5617 O.3     1  LIG1       -0.4814
     26 C          -0.0046    2.0322    0.2758 C.ar    1  LIG1        0.1566
     27 O          -1.3530    2.1985    0.7085 O.3     1  LIG1       -0.4244
     28 C          -2.4119    1.3817    0.2846 C.2     1  LIG1        0.3092
     29 C          -3.7065    1.8934    0.8560 C.3     1  LIG1        0.0336
     30 O          -2.3400    0.4628   -0.5216 O.2     1  LIG1       -0.2507
     31 C           0.6215    0.7801    0.1572 C.ar    1  LIG1        0.1076
     32 H          -1.0492   -2.7000   -2.0913 H       1  LIG1        0.0625
     33 H          -2.3119   -4.8276   -2.0455 H       1  LIG1        0.0654
     34 H          -3.1422   -9.1833   -0.4839 H       1  LIG1        0.0342
     35 H          -4.0916   -8.2734    0.7426 H       1  LIG1        0.0342
     36 H          -2.9362   -9.5067    1.2552 H       1  LIG1        0.0342
     37 H          -0.7390   -5.6536    1.8907 H       1  LIG1        0.0654
     38 H           0.5085   -3.5559    1.8400 H       1  LIG1        0.0625
     39 H           2.3315   -2.4341   -1.0506 H       1  LIG1        0.1037
     40 H           3.7072    1.7925   -0.8651 H       1  LIG1        0.0691
     41 H          -0.8700    4.6920    0.4013 H       1  LIG1        0.0624
     42 H           0.5634    6.6201    0.0193 H       1  LIG1        0.0611
     43 H           2.4418    7.2405   -1.7711 H       1  LIG1        0.0271
     44 H           2.1826    5.6797   -2.5849 H       1  LIG1        0.0271
     45 H           3.7870    6.1098   -2.0246 H       1  LIG1        0.0271
     46 H           3.0570    7.2438    0.7597 H       1  LIG1        0.0271
     47 H           4.3571    6.0778    0.4403 H       1  LIG1        0.0271
     48 H           3.1305    5.7002    1.6364 H       1  LIG1        0.0271
     49 H          -4.2525    2.4167    0.0656 H       1  LIG1        0.0342
     50 H          -3.5310    2.5880    1.6824 H       1  LIG1        0.0342
     51 H          -4.3076    1.0621    1.2352 H       1  LIG1        0.0342
@<TRIPOS>BOND
     1     1     2    2
     2     2     3   ar
     3     3     4    1
     4     4     5   ar
     5     5     6   ar
     6     6     7   ar
     7     7     8    1
     8     8     9    1
     9     9    10    1
    10     9    11    2
    11     7    12   ar
    12    12    13   ar
    13     4    13   ar
    14     3    14   ar
    15    14    15   ar
    16    15    16   ar
    17    16    17   ar
    18    17    18   ar
    19    18    19   ar
    20    19    20    1
    21    20    21    2
    22    21    22    1
    23    22    23    1
    24    22    24    1
    25    22    25    1
    26    18    25    1
    27    19    26   ar
    28    26    27    1
    29    27    28    1
    30    28    29    1
    31    28    30    2
    32    26    31   ar
    33    16    31   ar
    34     2    31   ar
    35     5    32    1
    36     6    33    1
    37    10    34    1
    38    10    35    1
    39    10    36    1
    40    12    37    1
    41    13    38    1
    42    14    39    1
    43    17    40    1
    44    20    41    1
    45    21    42    1
    46    23    43    1
    47    23    44    1
    48    23    45    1
    49    24    46    1
    50    24    47    1
    51    24    48    1
    52    29    49    1
    53    29    50    1
    54    29    51    1
