REMARK  Name = NuBBE_1231
REMARK  13 active torsions:
REMARK  status: ('A' for Active; 'I' for Inactive)
REMARK    1  A    between atoms: C_1  and  C_2
REMARK    2  A    between atoms: C_6  and  C_29
REMARK    3  A    between atoms: C_7  and  C_8
REMARK    4  A    between atoms: C_9  and  C_11
REMARK    5  A    between atoms: C_11  and  C_13
REMARK    6  A    between atoms: C_11  and  C_14
REMARK    7  A    between atoms: C_15  and  O_17
REMARK    8  A    between atoms: C_18  and  O_20
REMARK    9  A    between atoms: C_21  and  C_22
REMARK   10  A    between atoms: C_21  and  C_23
REMARK   11  A    between atoms: C_34  and  C_35
REMARK   12  A    between atoms: C_34  and  C_41
REMARK   13  A    between atoms: C_36  and  O_40
REMARK                            x       y       z     vdW  Elec       q    Type
REMARK                         _______ _______ _______ _____ _____    ______ ____
ROOT
ATOM      1  C   LIG A   1      -4.667  -1.628   0.741  0.00  0.00    +0.012 C 
ATOM      2  C   LIG A   1      -3.307  -1.468   1.507  0.00  0.00    -0.022 C 
ATOM      3  C   LIG A   1      -2.309  -0.783   0.459  0.00  0.00    +0.021 C 
ATOM      4  C   LIG A   1      -1.413  -1.740  -0.347  0.00  0.00    -0.063 C 
ATOM      5  C   LIG A   1      -0.510  -1.081  -1.440  0.00  0.00    -0.005 C 
ATOM      6  C   LIG A   1       0.233   0.239  -0.910  0.00  0.00    -0.020 C 
ATOM      7  C   LIG A   1      -0.249   1.515  -1.617  0.00  0.00    +0.012 C 
ATOM      8  C   LIG A   1       1.794  -0.057  -0.970  0.00  0.00    +0.001 C 
ATOM      9  C   LIG A   1       1.857  -1.588  -1.093  0.00  0.00    +0.005 C 
ATOM     10  C   LIG A   1       0.668  -1.955  -1.950  0.00  0.00    +0.012 C 
ATOM     11  C   LIG A   1      -0.070   0.442   0.605  0.00  0.00    +0.008 C 
ATOM     12  C   LIG A   1      -1.553   0.472   0.935  0.00  0.00    +0.009 C 
ATOM     13  C   LIG A   1      -1.430  -0.862  -2.669  0.00  0.00    +0.016 C 
ATOM     14  C   LIG A   1      -1.516  -3.071  -0.184  0.00  0.00    -0.026 C 
ATOM     15  C   LIG A   1      -2.449  -3.756   0.758  0.00  0.00    +0.031 C 
ATOM     16  C   LIG A   1      -2.853  -2.903   1.970  0.00  0.00    +0.007 C 
ATOM     17  C   LIG A   1      -1.863  -2.964   3.213  0.00  0.00    -0.005 C 
ATOM     18  C   LIG A   1      -0.564  -3.771   2.963  0.00  0.00    +0.014 C 
ATOM     19  C   LIG A   1      -1.454  -1.550   3.678  0.00  0.00    +0.120 C 
ATOM     20  C   LIG A   1      -2.639  -0.619   3.894  0.00  0.00    +0.032 C 
ATOM     21  C   LIG A   1      -3.659  -0.619   2.758  0.00  0.00    +0.010 C 
ATOM     22  C   LIG A   1      -2.597  -3.701   4.369  0.00  0.00    +0.014 C 
ENDROOT
BRANCH   8  23
ATOM     23  C   LIG A   1       2.816   0.651  -1.930  0.00  0.00    +0.021 C 
ATOM     24  C   LIG A   1       2.554   0.492  -3.429  0.00  0.00    +0.010 C 
BRANCH  23  25
ATOM     25  C   LIG A   1       3.127   2.109  -1.506  0.00  0.00    +0.153 C 
ATOM     26  C   LIG A   1       4.444   2.679  -2.049  0.00  0.00    +0.175 C 
ATOM     27  C   LIG A   1       4.251   4.171  -1.797  0.00  0.00    +0.177 C 
ATOM     28  C   LIG A   1       2.735   4.352  -2.032  0.00  0.00    +0.093 C 
ATOM     29  C   LIG A   1       2.441   4.862  -3.443  0.00  0.00    +0.044 C 
ATOM     30  C   LIG A   1       2.048   5.239  -0.994  0.00  0.00    +0.044 C 
ATOM     31  O   LIG A   1       2.138   3.036  -1.955  0.00  0.00    -0.365 OA
BRANCH  26  32
ATOM     32  O   LIG A   1       5.599   2.172  -1.392  0.00  0.00    -0.387 OA
ATOM     33  H   LIG A   1       5.450   2.302  -0.437  0.00  0.00    +0.210 HD
ENDBRANCH  26  32
BRANCH  27  34
ATOM     34  O   LIG A   1       4.649   4.465  -0.450  0.00  0.00    -0.386 OA
ATOM     35  H   LIG A   1       5.624   4.487  -0.458  0.00  0.00    +0.210 HD
ENDBRANCH  27  34
ENDBRANCH  23  25
ENDBRANCH   8  23
BRANCH  19  36
ATOM     36  O   LIG A   1      -0.701  -1.603   4.893  0.00  0.00    -0.391 OA
ATOM     37  H   LIG A   1      -0.373  -0.704   5.070  0.00  0.00    +0.210 HD
ENDBRANCH  19  36
TORSDOF 5
