@<TRIPOS>MOLECULE
NuBBE_1795
 59 59 0 0 0
SMALL
GASTEIGER

@<TRIPOS>ATOM
      1 C          -7.6395   -2.2595   -4.4165 C.1     1  LIG1       -0.1192
      2 C          -7.9651   -1.5261   -3.5333 C.1     1  LIG1       -0.1056
      3 C          -8.3260   -0.6417   -2.4097 C.3     1  LIG1        0.0089
      4 C          -7.8280   -1.1949   -1.0730 C.3     1  LIG1       -0.0422
      5 C          -6.3033   -1.3095   -1.0327 C.3     1  LIG1       -0.0522
      6 C          -5.8115   -1.8539    0.3073 C.3     1  LIG1       -0.0530
      7 C          -4.2893   -1.9951    0.3586 C.3     1  LIG1       -0.0531
      8 C          -3.5693   -0.6598    0.1749 C.3     1  LIG1       -0.0529
      9 C          -2.0562   -0.8330    0.2549 C.3     1  LIG1       -0.0497
     10 C          -1.3538    0.5080    0.0579 C.3     1  LIG1       -0.0156
     11 C           0.1649    0.3760    0.0951 C.3     1  LIG1        0.1038
     12 C           0.8271    1.7182   -0.1153 C.3     1  LIG1       -0.0026
     13 C           2.1363    1.5990    0.6410 C.3     1  LIG1        0.0632
     14 C           3.2992    1.2256   -0.2786 C.3     1  LIG1        0.0006
     15 C           4.6692    1.1112    0.4115 C.3     1  LIG1        0.1377
     16 O           5.6834    0.8002   -0.5793 O.3     1  LIG1       -0.4581
     17 C           5.8514   -0.5196   -0.8698 C.2     1  LIG1        0.3043
     18 C           7.2352   -0.7479   -1.3965 C.3     1  LIG1        0.0332
     19 O           5.0448   -1.4081   -0.6382 O.2     1  LIG1       -0.2512
     20 C           5.1236    2.4046    1.1202 C.3     1  LIG1        0.1293
     21 O           6.4477    2.2031    1.6609 O.3     1  LIG1       -0.4611
     22 C           6.4854    1.7806    2.9538 C.2     1  LIG1        0.3041
     23 C           7.8025    1.1361    3.2480 C.3     1  LIG1        0.0332
     24 O           5.5515    1.8136    3.7405 O.2     1  LIG1       -0.2512
     25 C           1.8030    0.5416    1.6656 C.2     1  LIG1        0.3107
     26 O           0.6239   -0.0747    1.3663 O.3     1  LIG1       -0.4611
     27 O           2.4805    0.2803    2.6455 O.2     1  LIG1       -0.2505
     28 H          -7.3329   -2.9309   -5.1906 H       1  LIG1        0.1228
     29 H          -9.4161   -0.5379   -2.3700 H       1  LIG1        0.0397
     30 H          -7.9148    0.3603   -2.5742 H       1  LIG1        0.0397
     31 H          -8.2774   -2.1761   -0.8803 H       1  LIG1        0.0274
     32 H          -8.1588   -0.5254   -0.2681 H       1  LIG1        0.0274
     33 H          -5.8834   -0.3166   -1.2235 H       1  LIG1        0.0266
     34 H          -5.9463   -1.9707   -1.8307 H       1  LIG1        0.0266
     35 H          -6.2587   -2.8398    0.4844 H       1  LIG1        0.0265
     36 H          -6.1470   -1.1997    1.1202 H       1  LIG1        0.0265
     37 H          -3.9580   -2.7042   -0.4101 H       1  LIG1        0.0265
     38 H          -4.0113   -2.4269    1.3279 H       1  LIG1        0.0265
     39 H          -3.9070    0.0472    0.9424 H       1  LIG1        0.0265
     40 H          -3.8141   -0.2226   -0.7991 H       1  LIG1        0.0265
     41 H          -1.7268   -1.5354   -0.5202 H       1  LIG1        0.0266
     42 H          -1.7897   -1.2632    1.2261 H       1  LIG1        0.0266
     43 H          -1.6892    1.2000    0.8412 H       1  LIG1        0.0301
     44 H          -1.6479    0.9393   -0.9074 H       1  LIG1        0.0301
     45 H           0.4971   -0.3467   -0.6600 H       1  LIG1        0.0734
     46 H           0.2370    2.5276    0.3337 H       1  LIG1        0.0309
     47 H           0.9251    1.9393   -1.1821 H       1  LIG1        0.0309
     48 H           2.3287    2.5432    1.1589 H       1  LIG1        0.0416
     49 H           3.3703    1.9654   -1.0881 H       1  LIG1        0.0310
     50 H           3.0764    0.2773   -0.7836 H       1  LIG1        0.0310
     51 H           4.6652    0.3036    1.1514 H       1  LIG1        0.0768
     52 H           7.4996    0.0258   -2.1210 H       1  LIG1        0.0342
     53 H           7.2891   -1.7200   -1.8933 H       1  LIG1        0.0342
     54 H           7.9357   -0.7324   -0.5564 H       1  LIG1        0.0342
     55 H           4.4238    2.6888    1.9103 H       1  LIG1        0.0735
     56 H           5.1882    3.2427    0.4170 H       1  LIG1        0.0735
     57 H           8.6302    1.7634    2.9100 H       1  LIG1        0.0342
     58 H           7.8284    0.1635    2.7489 H       1  LIG1        0.0342
     59 H           7.8969    0.9868    4.3271 H       1  LIG1        0.0342
@<TRIPOS>BOND
     1     1     2    3
     2     2     3    1
     3     3     4    1
     4     4     5    1
     5     5     6    1
     6     6     7    1
     7     7     8    1
     8     8     9    1
     9     9    10    1
    10    10    11    1
    11    11    12    1
    12    12    13    1
    13    13    14    1
    14    14    15    1
    15    15    16    1
    16    16    17    1
    17    17    18    1
    18    17    19    2
    19    15    20    1
    20    20    21    1
    21    21    22    1
    22    22    23    1
    23    22    24    2
    24    13    25    1
    25    25    26    1
    26    11    26    1
    27    25    27    2
    28     1    28    1
    29     3    29    1
    30     3    30    1
    31     4    31    1
    32     4    32    1
    33     5    33    1
    34     5    34    1
    35     6    35    1
    36     6    36    1
    37     7    37    1
    38     7    38    1
    39     8    39    1
    40     8    40    1
    41     9    41    1
    42     9    42    1
    43    10    43    1
    44    10    44    1
    45    11    45    1
    46    12    46    1
    47    12    47    1
    48    13    48    1
    49    14    49    1
    50    14    50    1
    51    15    51    1
    52    18    52    1
    53    18    53    1
    54    18    54    1
    55    20    55    1
    56    20    56    1
    57    23    57    1
    58    23    58    1
    59    23    59    1
