@<TRIPOS>MOLECULE
NuBBE_342
 41 41 0 0 0
SMALL
GASTEIGER

@<TRIPOS>ATOM
      1 O           3.5435   -1.8817   -2.0584 O.3     1  LIG1       -0.5061
      2 C           3.3309   -0.6737   -1.4524 C.ar    1  LIG1        0.1277
      3 C           2.0560   -0.1733   -1.1505 C.ar    1  LIG1        0.0638
      4 C           0.8064   -0.9045   -1.5184 C.2     1  LIG1        0.1895
      5 C          -0.3984   -0.0555   -1.8014 C.2     1  LIG1       -0.0152
      6 C          -1.7072   -0.3684   -1.7273 C.2     1  LIG1       -0.0687
      7 C          -2.7299    0.6940   -2.0700 C.3     1  LIG1       -0.0434
      8 C          -2.2865   -1.7109   -1.3319 C.3     1  LIG1       -0.0282
      9 C          -2.0329   -2.1611    0.1177 C.3     1  LIG1       -0.0308
     10 C          -2.6784   -1.2760    1.1528 C.2     1  LIG1       -0.0850
     11 C          -2.1015   -0.5817    2.1544 C.2     1  LIG1       -0.0796
     12 C          -0.6314   -0.5204    2.4676 C.3     1  LIG1       -0.0440
     13 C          -2.9510    0.2329    3.0962 C.3     1  LIG1       -0.0440
     14 O           0.8242   -2.1239   -1.6336 O.2     1  LIG1       -0.2872
     15 C           1.9565    1.0417   -0.4608 C.ar    1  LIG1       -0.0334
     16 C           3.1020    1.7664   -0.1172 C.ar    1  LIG1        0.0597
     17 C           2.9689    3.0262    0.6336 C.2     1  LIG1        0.3368
     18 O           1.8797    3.0203    1.4151 O.3     1  LIG1       -0.4771
     19 O           3.7523    3.9664    0.6182 O.2     1  LIG1       -0.2451
     20 C           4.3664    1.2927   -0.4791 C.ar    1  LIG1       -0.0443
     21 C           4.4778    0.0651   -1.1372 C.ar    1  LIG1       -0.0187
     22 H           2.7007   -2.3847   -2.0537 H       1  LIG1        0.2922
     23 H          -0.1488    0.9592   -2.1026 H       1  LIG1        0.0655
     24 H          -2.2622    1.6416   -2.3623 H       1  LIG1        0.0274
     25 H          -3.3721    0.9022   -1.2081 H       1  LIG1        0.0274
     26 H          -3.3587    0.3744   -2.9078 H       1  LIG1        0.0274
     27 H          -1.9049   -2.4764   -2.0190 H       1  LIG1        0.0313
     28 H          -3.3733   -1.6972   -1.5045 H       1  LIG1        0.0313
     29 H          -0.9639   -2.2883    0.2946 H       1  LIG1        0.0310
     30 H          -2.4748   -3.1601    0.2327 H       1  LIG1        0.0310
     31 H          -3.7648   -1.2349    1.0674 H       1  LIG1        0.0572
     32 H          -0.0135   -1.1411    1.8165 H       1  LIG1        0.0274
     33 H          -0.4547   -0.8497    3.4982 H       1  LIG1        0.0274
     34 H          -0.2753    0.5119    2.3791 H       1  LIG1        0.0274
     35 H          -4.0197    0.1469    2.8741 H       1  LIG1        0.0274
     36 H          -2.6790    1.2909    3.0258 H       1  LIG1        0.0274
     37 H          -2.7998   -0.0991    4.1288 H       1  LIG1        0.0274
     38 H           0.9867    1.4330   -0.1672 H       1  LIG1        0.0634
     39 H           1.9075    3.8646    1.9074 H       1  LIG1        0.2954
     40 H           5.2619    1.8577   -0.2246 H       1  LIG1        0.0627
     41 H           5.4614   -0.3255   -1.3924 H       1  LIG1        0.0654
@<TRIPOS>BOND
     1     1     2    1
     2     2     3   ar
     3     3     4    1
     4     4     5    1
     5     5     6    2
     6     6     7    1
     7     6     8    1
     8     8     9    1
     9     9    10    1
    10    10    11    2
    11    11    12    1
    12    11    13    1
    13     4    14    2
    14     3    15   ar
    15    15    16   ar
    16    16    17    1
    17    17    18    1
    18    17    19    2
    19    16    20   ar
    20    20    21   ar
    21     2    21   ar
    22     1    22    1
    23     5    23    1
    24     7    24    1
    25     7    25    1
    26     7    26    1
    27     8    27    1
    28     8    28    1
    29     9    29    1
    30     9    30    1
    31    10    31    1
    32    12    32    1
    33    12    33    1
    34    12    34    1
    35    13    35    1
    36    13    36    1
    37    13    37    1
    38    15    38    1
    39    18    39    1
    40    20    40    1
    41    21    41    1
