REMARK  Name = NuBBE_2455
REMARK  17 active torsions:
REMARK  status: ('A' for Active; 'I' for Inactive)
REMARK    1  A    between atoms: C_1  and  O_2
REMARK    2  A    between atoms: O_2  and  C_3
REMARK    3  A    between atoms: C_5  and  C_6
REMARK    4  A    between atoms: C_6  and  C_7
REMARK    5  A    between atoms: C_9  and  C_11
REMARK    6  A    between atoms: C_11  and  O_12
REMARK    7  A    between atoms: O_12  and  C_13
REMARK    8  A    between atoms: C_13  and  C_14
REMARK    9  A    between atoms: C_16  and  C_18
REMARK   10  A    between atoms: C_21  and  O_22
REMARK   11  A    between atoms: O_22  and  C_23
REMARK   12  A    between atoms: C_23  and  C_24
REMARK   13  A    between atoms: C_26  and  O_27
REMARK   14  A    between atoms: O_27  and  C_28
REMARK   15  A    between atoms: C_34  and  O_35
REMARK   16  A    between atoms: O_35  and  C_36
REMARK   17  A    between atoms: C_36  and  C_37
REMARK                            x       y       z     vdW  Elec       q    Type
REMARK                         _______ _______ _______ _____ _____    ______ ____
ROOT
ATOM      1  C   LIG A   1      -0.359   0.513  -0.621  0.00  0.00    +0.028 C 
ATOM      2  C   LIG A   1      -0.173  -0.980  -0.292  0.00  0.00    +0.066 C 
ATOM      3  C   LIG A   1      -1.030  -1.145   0.967  0.00  0.00    +0.155 C 
ATOM      4  O   LIG A   1      -1.030   0.164   1.597  0.00  0.00    -0.371 OA
ATOM      5  C   LIG A   1      -0.233   1.050   0.796  0.00  0.00    +0.165 C 
ENDROOT
BRANCH   3   6
ATOM      6  C   LIG A   1      -0.550  -2.183   1.960  0.00  0.00    -0.015 A 
ATOM      7  C   LIG A   1      -0.984  -3.514   1.858  0.00  0.00    +0.010 A 
ATOM      8  C   LIG A   1      -0.585  -4.472   2.795  0.00  0.00    +0.050 A 
ATOM      9  C   LIG A   1       0.253  -4.112   3.853  0.00  0.00    +0.173 A 
ATOM     10  C   LIG A   1       0.723  -2.801   3.953  0.00  0.00    +0.163 A 
ATOM     11  C   LIG A   1       0.305  -1.843   3.025  0.00  0.00    +0.055 A 
BRANCH  10  12
ATOM     12  O   LIG A   1       1.532  -2.358   4.966  0.00  0.00    -0.491 OA
ATOM     13  C   LIG A   1       2.829  -2.948   4.919  0.00  0.00    +0.277 C 
ENDBRANCH  10  12
BRANCH   9  14
ATOM     14  O   LIG A   1       0.756  -5.083   4.744  0.00  0.00    -0.422 OA
BRANCH  14  15
ATOM     15  C   LIG A   1      -0.027  -6.167   5.137  0.00  0.00    +0.309 C 
ATOM     16  C   LIG A   1       0.883  -7.272   5.593  0.00  0.00    +0.136 C 
ATOM     17  O   LIG A   1      -1.239  -6.240   5.107  0.00  0.00    -0.251 OA
ENDBRANCH  14  15
ENDBRANCH   9  14
ENDBRANCH   3   6
BRANCH   1  18
ATOM     18  C   LIG A   1      -1.730   0.889  -1.251  0.00  0.00    +0.041 C 
BRANCH  18  21
ATOM     19  C   LIG A   1      -1.153   4.151  -3.086  0.00  0.00    +0.163 A 
ATOM     20  C   LIG A   1      -1.338   2.800  -2.806  0.00  0.00    +0.053 A 
ATOM     21  C   LIG A   1      -1.810   2.368  -1.567  0.00  0.00    -0.043 A 
ATOM     22  C   LIG A   1      -2.262   3.328  -0.651  0.00  0.00    +0.007 A 
ATOM     23  C   LIG A   1      -2.097   4.693  -0.920  0.00  0.00    +0.050 A 
ATOM     24  C   LIG A   1      -1.479   5.101  -2.112  0.00  0.00    +0.173 A 
BRANCH  19  26
ATOM     25  C   LIG A   1       0.371   3.824  -4.815  0.00  0.00    +0.277 C 
ATOM     26  O   LIG A   1      -0.759   4.552  -4.331  0.00  0.00    -0.491 OA
ENDBRANCH  19  26
BRANCH  24  27
ATOM     27  O   LIG A   1      -1.320   6.491  -2.322  0.00  0.00    -0.422 OA
BRANCH  27  28
ATOM     28  C   LIG A   1      -0.315   7.045  -3.136  0.00  0.00    +0.309 C 
ATOM     29  C   LIG A   1      -0.706   8.454  -3.461  0.00  0.00    +0.136 C 
ATOM     30  O   LIG A   1       0.737   6.528  -3.484  0.00  0.00    -0.251 OA
ENDBRANCH  27  28
ENDBRANCH  24  27
ENDBRANCH  18  21
ENDBRANCH   1  18
BRANCH   2  31
ATOM     31  C   LIG A   1      -0.431  -1.958  -1.429  0.00  0.00    +0.238 C 
BRANCH  31  32
ATOM     32  O   LIG A   1       0.485  -1.625  -2.497  0.00  0.00    -0.464 OA
BRANCH  32  33
ATOM     33  C   LIG A   1       1.706  -2.221  -2.433  0.00  0.00    +0.304 C 
ATOM     34  C   LIG A   1       2.679  -1.456  -3.295  0.00  0.00    +0.136 C 
ATOM     35  O   LIG A   1       2.009  -3.146  -1.705  0.00  0.00    -0.251 OA
ENDBRANCH  32  33
ENDBRANCH  31  32
ENDBRANCH   2  31
TORSDOF 12
