@<TRIPOS>MOLECULE
NuBBE_2465
 48 51 0 0 0
SMALL
GASTEIGER

@<TRIPOS>ATOM
      1 C           5.3106   -4.4072   -1.0332 C.3     1  LIG1        0.0790
      2 O           4.1293   -3.7466   -0.5984 O.3     1  LIG1       -0.4914
      3 C           4.2084   -2.4129   -0.3006 C.ar    1  LIG1        0.1616
      4 C           2.9900   -1.8785    0.1548 C.ar    1  LIG1       -0.0107
      5 C           2.8576   -0.5256    0.5150 C.ar    1  LIG1       -0.0149
      6 C           1.5289    0.0100    1.0270 C.3     1  LIG1        0.0891
      7 H           1.3065   -0.5070    1.9687 H       1  LIG1        0.0650
      8 C           0.3959   -0.1321    0.0003 C.3     1  LIG1        0.0205
      9 H           0.7684   -0.4459   -0.9808 H       1  LIG1        0.0356
     10 C          -0.2535    1.2289   -0.0398 C.3     1  LIG1        0.0205
     11 H          -0.6031    1.4929   -1.0437 H       1  LIG1        0.0356
     12 C           0.8459    2.1555    0.4149 C.3     1  LIG1        0.0544
     13 O           1.6282    1.4134    1.3506 O.3     1  LIG1       -0.3712
     14 C          -1.4083    1.1396    0.9666 C.3     1  LIG1        0.0891
     15 H          -1.2043    1.6929    1.8918 H       1  LIG1        0.0650
     16 O          -1.5273   -0.2480    1.3463 O.3     1  LIG1       -0.3712
     17 C          -0.7198   -1.0339    0.4685 C.3     1  LIG1        0.0544
     18 C          -2.7169    1.6728    0.3970 C.ar    1  LIG1       -0.0149
     19 C          -3.8575    0.8513    0.3007 C.ar    1  LIG1       -0.0107
     20 C          -5.0575    1.3411   -0.2141 C.ar    1  LIG1        0.1616
     21 O          -6.2190    0.6266   -0.3704 O.3     1  LIG1       -0.4914
     22 C          -6.1907   -0.7303    0.0605 C.3     1  LIG1        0.0790
     23 C          -5.1189    2.6741   -0.6226 C.ar    1  LIG1        0.1585
     24 O          -6.2854    3.1898   -1.1187 O.3     1  LIG1       -0.5033
     25 C          -4.0139    3.5121   -0.5370 C.ar    1  LIG1       -0.0162
     26 C          -2.8148    3.0121   -0.0238 C.ar    1  LIG1       -0.0524
     27 C           3.9896    0.2914    0.4189 C.ar    1  LIG1       -0.0524
     28 C           5.2065   -0.2211   -0.0359 C.ar    1  LIG1       -0.0162
     29 C           5.3182   -1.5659   -0.3945 C.ar    1  LIG1        0.1585
     30 O           6.5325   -2.0163   -0.8320 O.3     1  LIG1       -0.5033
     31 H           5.0618   -5.4620   -1.1875 H       1  LIG1        0.0660
     32 H           6.0948   -4.3717   -0.2702 H       1  LIG1        0.0660
     33 H           5.6530   -4.0131   -1.9953 H       1  LIG1        0.0660
     34 H           2.1338   -2.5468    0.2259 H       1  LIG1        0.0659
     35 H           0.4820    3.0705    0.8915 H       1  LIG1        0.0564
     36 H           1.4943    2.4386   -0.4214 H       1  LIG1        0.0564
     37 H          -1.3483   -1.3515   -0.3711 H       1  LIG1        0.0564
     38 H          -0.3739   -1.9287    0.9941 H       1  LIG1        0.0564
     39 H          -3.7800   -0.1790    0.6358 H       1  LIG1        0.0659
     40 H          -7.1498   -1.1847   -0.2037 H       1  LIG1        0.0660
     41 H          -6.0773   -0.7897    1.1483 H       1  LIG1        0.0660
     42 H          -5.4071   -1.2999   -0.4511 H       1  LIG1        0.0660
     43 H          -6.9218    2.4485   -1.0772 H       1  LIG1        0.2923
     44 H          -4.0896    4.5438   -0.8626 H       1  LIG1        0.0655
     45 H          -1.9595    3.6788    0.0390 H       1  LIG1        0.0622
     46 H           3.9400    1.3411    0.7011 H       1  LIG1        0.0622
     47 H           6.0604    0.4485   -0.0955 H       1  LIG1        0.0655
     48 H           7.1618   -1.2757   -0.8365 H       1  LIG1        0.2923
@<TRIPOS>BOND
     1     1     2    1
     2     2     3    1
     3     3     4   ar
     4     4     5   ar
     5     6     8    1
     6     8     9    1
     7     8    10    1
     8    10    11    1
     9    10    12    1
    10    12    13    1
    11     6    13    1
    12    10    14    1
    13    14    15    1
    14    14    16    1
    15    16    17    1
    16     8    17    1
    17    14    18    1
    18    18    19   ar
    19    19    20   ar
    20    20    21    1
    21    21    22    1
    22    20    23   ar
    23    23    24    1
    24    23    25   ar
    25    25    26   ar
    26    18    26   ar
    27     5    27   ar
    28    27    28   ar
    29    28    29   ar
    30     3    29   ar
    31    29    30    1
    32     6     7    1
    33     6     5    1
    34     1    31    1
    35     1    32    1
    36     1    33    1
    37     4    34    1
    38    12    35    1
    39    12    36    1
    40    17    37    1
    41    17    38    1
    42    19    39    1
    43    22    40    1
    44    22    41    1
    45    22    42    1
    46    24    43    1
    47    25    44    1
    48    26    45    1
    49    27    46    1
    50    28    47    1
    51    30    48    1
