REMARK  Name = NuBBE_279
REMARK  18 active torsions:
REMARK  status: ('A' for Active; 'I' for Inactive)
REMARK    1  A    between atoms: O_1  and  C_2
REMARK    2  A    between atoms: C_3  and  C_4
REMARK    3  A    between atoms: C_5  and  C_6
REMARK    4  A    between atoms: C_9  and  C_10
REMARK    5  A    between atoms: C_9  and  C_28
REMARK    6  A    between atoms: C_10  and  C_11
REMARK    7  A    between atoms: C_11  and  C_12
REMARK    8  A    between atoms: C_13  and  C_14
REMARK    9  A    between atoms: C_13  and  C_15
REMARK   10  A    between atoms: C_15  and  C_16
REMARK   11  A    between atoms: C_16  and  C_17
REMARK   12  A    between atoms: C_18  and  C_19
REMARK   13  A    between atoms: C_18  and  C_22
REMARK   14  A    between atoms: C_19  and  O_20
REMARK   15  A    between atoms: C_22  and  C_23
REMARK   16  A    between atoms: C_23  and  C_24
REMARK   17  A    between atoms: C_25  and  C_26
REMARK   18  A    between atoms: C_25  and  C_27
REMARK                            x       y       z     vdW  Elec       q    Type
REMARK                         _______ _______ _______ _____ _____    ______ ____
ROOT
ATOM      1  C   LIG A   1      -2.562   0.254   1.266  0.00  0.00    +0.031 C 
ENDROOT
BRANCH   1   2
ATOM      2  C   LIG A   1      -1.408   0.086   2.239  0.00  0.00    -0.028 C 
ATOM      3  C   LIG A   1      -0.090   0.321   2.039  0.00  0.00    -0.076 C 
ATOM      4  C   LIG A   1       0.442   1.000   0.800  0.00  0.00    +0.038 C 
BRANCH   3   5
ATOM      5  C   LIG A   1       0.920   0.087   3.160  0.00  0.00    +0.034 C 
BRANCH   5   6
ATOM      6  C   LIG A   1       1.575  -1.300   3.320  0.00  0.00    +0.032 C 
BRANCH   6   7
ATOM      7  C   LIG A   1       2.433  -1.810   2.192  0.00  0.00    -0.016 C 
ATOM      8  C   LIG A   1       3.771  -1.693   2.056  0.00  0.00    +0.033 C 
BRANCH   8   9
ATOM      9  C   LIG A   1       4.593  -1.047   3.143  0.00  0.00    +0.333 C 
ATOM     10  O   LIG A   1       4.407  -1.092   4.313  0.00  0.00    -0.245 OA
BRANCH   9  11
ATOM     11  O   LIG A   1       5.695  -0.434   2.667  0.00  0.00    -0.477 OA
ATOM     12  H   LIG A   1       6.273  -0.235   3.427  0.00  0.00    +0.295 HD
ENDBRANCH   9  11
ENDBRANCH   8   9
BRANCH   8  13
ATOM     13  C   LIG A   1       4.495  -2.341   0.877  0.00  0.00    +0.046 C 
BRANCH  13  14
ATOM     14  C   LIG A   1       4.556  -1.487  -0.408  0.00  0.00    +0.032 C 
BRANCH  14  15
ATOM     15  C   LIG A   1       5.203  -0.163  -0.173  0.00  0.00    -0.028 C 
ATOM     16  C   LIG A   1       5.663   0.782  -0.993  0.00  0.00    -0.080 C 
ATOM     17  C   LIG A   1       5.755   0.599  -2.459  0.00  0.00    +0.038 C 
ATOM     18  C   LIG A   1       6.070   2.108  -0.397  0.00  0.00    +0.038 C 
ENDBRANCH  14  15
ENDBRANCH  13  14
ENDBRANCH   8  13
ENDBRANCH   6   7
ENDBRANCH   5   6
ENDBRANCH   3   5
ENDBRANCH   1   2
BRANCH   1  19
ATOM     19  C   LIG A   1      -3.395   1.550   1.414  0.00  0.00    +0.056 C 
BRANCH  19  27
ATOM     20  C   LIG A   1      -3.750  -2.175  -2.562  0.00  0.00    +0.121 A 
ATOM     21  C   LIG A   1      -3.057  -1.082  -3.102  0.00  0.00    -0.003 A 
ATOM     22  C   LIG A   1      -1.982  -1.272  -4.140  0.00  0.00    +0.048 C 
ATOM     23  C   LIG A   1      -3.388   0.206  -2.632  0.00  0.00    -0.002 A 
ATOM     24  C   LIG A   1      -2.876   1.446  -3.304  0.00  0.00    +0.048 C 
ATOM     25  C   LIG A   1      -4.203   0.345  -1.500  0.00  0.00    +0.132 A 
ATOM     26  O   LIG A   1      -4.237   1.590  -0.916  0.00  0.00    -0.481 OA
ATOM     27  C   LIG A   1      -4.645   1.661   0.469  0.00  0.00    +0.127 C 
ATOM     28  C   LIG A   1      -5.263   3.074   0.612  0.00  0.00    +0.060 C 
ATOM     29  C   LIG A   1      -5.721   0.640   0.789  0.00  0.00    +0.021 C 
ATOM     30  C   LIG A   1      -5.853  -0.500   0.096  0.00  0.00    +0.011 C 
ATOM     31  C   LIG A   1      -4.909  -0.744  -0.989  0.00  0.00    +0.020 A 
ATOM     32  C   LIG A   1      -4.704  -2.007  -1.552  0.00  0.00    +0.057 A 
BRANCH  20  33
ATOM     33  O   LIG A   1      -3.539  -3.458  -2.991  0.00  0.00    -0.506 OA
ATOM     34  H   LIG A   1      -2.812  -3.467  -3.634  0.00  0.00    +0.292 HD
ENDBRANCH  20  33
ENDBRANCH  19  27
ENDBRANCH   1  19
TORSDOF 12
