REMARK  Name = NuBBE_1027
REMARK  10 active torsions:
REMARK  status: ('A' for Active; 'I' for Inactive)
REMARK    1  A    between atoms: O_1  and  C_2
REMARK    2  A    between atoms: C_6  and  C_7
REMARK    3  A    between atoms: C_11  and  C_12
REMARK    4  A    between atoms: C_16  and  O_17
REMARK    5  A    between atoms: C_20  and  C_21
REMARK    6  A    between atoms: C_24  and  C_25
REMARK    7  A    between atoms: C_28  and  C_30
REMARK    8  A    between atoms: C_30  and  C_31
REMARK    9  A    between atoms: C_36  and  C_37
REMARK   10  A    between atoms: C_36  and  C_38
REMARK                            x       y       z     vdW  Elec       q    Type
REMARK                         _______ _______ _______ _____ _____    ______ ____
ROOT
ATOM      1  C   LIG A   1       3.922   0.728  -3.831  0.00  0.00    +0.120 C 
ATOM      2  C   LIG A   1       3.732   1.971  -2.966  0.00  0.00    +0.032 C 
ATOM      3  C   LIG A   1       2.526   1.875  -2.025  0.00  0.00    +0.010 C 
ATOM      4  C   LIG A   1       2.510   0.605  -1.115  0.00  0.00    -0.025 C 
ATOM      5  C   LIG A   1       3.622   0.787  -0.054  0.00  0.00    +0.012 C 
ATOM      6  C   LIG A   1       2.711  -0.651  -2.046  0.00  0.00    +0.003 C 
ATOM      7  C   LIG A   1       2.566  -1.963  -1.250  0.00  0.00    +0.005 C 
ATOM      8  C   LIG A   1       1.159  -2.082  -0.654  0.00  0.00    +0.008 C 
ATOM      9  C   LIG A   1       0.746  -0.909   0.281  0.00  0.00    -0.023 C 
ATOM     10  C   LIG A   1       1.583  -1.074   1.585  0.00  0.00    +0.012 C 
ATOM     11  C   LIG A   1       1.067   0.463  -0.446  0.00  0.00    +0.004 C 
ATOM     12  C   LIG A   1       0.639   1.664   0.433  0.00  0.00    +0.036 C 
ATOM     13  C   LIG A   1      -0.857   1.629   0.770  0.00  0.00    +0.119 C 
ATOM     14  C   LIG A   1      -1.260   0.311   1.459  0.00  0.00    +0.028 C 
ATOM     15  C   LIG A   1      -0.853  -0.970   0.635  0.00  0.00    -0.021 C 
ATOM     16  C   LIG A   1      -1.696  -1.110  -0.667  0.00  0.00    +0.012 C 
ATOM     17  C   LIG A   1      -1.190  -2.212   1.511  0.00  0.00    +0.008 C 
ATOM     18  C   LIG A   1      -2.654  -2.268   1.938  0.00  0.00    +0.007 C 
ATOM     19  C   LIG A   1      -3.102  -1.030   2.744  0.00  0.00    -0.028 C 
ATOM     20  C   LIG A   1      -2.559  -1.133   4.182  0.00  0.00    +0.011 C 
ATOM     21  C   LIG A   1      -2.693   0.328   2.093  0.00  0.00    +0.008 C 
ATOM     22  C   LIG A   1      -3.921   0.805   1.252  0.00  0.00    +0.018 C 
ATOM     23  C   LIG A   1      -5.011  -0.266   1.480  0.00  0.00    +0.009 C 
ATOM     24  C   LIG A   1      -4.637  -0.971   2.776  0.00  0.00    +0.007 C 
ATOM     25  C   LIG A   1       3.945  -0.604  -3.023  0.00  0.00    -0.006 C 
ATOM     26  C   LIG A   1       5.302  -0.750  -2.305  0.00  0.00    +0.014 C 
ATOM     27  C   LIG A   1       3.862  -1.781  -4.033  0.00  0.00    +0.014 C 
ENDROOT
BRANCH  22  28
ATOM     28  C   LIG A   1      -4.407   2.215   1.627  0.00  0.00    -0.076 C 
ATOM     29  C   LIG A   1      -4.097   3.317   0.647  0.00  0.00    +0.038 C 
ATOM     30  C   LIG A   1      -5.120   2.506   2.729  0.00  0.00    +0.007 C 
ENDBRANCH  22  28
BRANCH   1  31
ATOM     31  O   LIG A   1       2.897   0.717  -4.830  0.00  0.00    -0.391 OA
ATOM     32  H   LIG A   1       2.034   0.622  -4.394  0.00  0.00    +0.210 HD
ENDBRANCH   1  31
BRANCH  13  33
ATOM     33  O   LIG A   1      -1.588   1.835  -0.433  0.00  0.00    -0.392 OA
ATOM     34  H   LIG A   1      -1.326   2.699  -0.794  0.00  0.00    +0.210 HD
ENDBRANCH  13  33
TORSDOF 3
