REMARK  Name = NuBBE_62
REMARK  14 active torsions:
REMARK  status: ('A' for Active; 'I' for Inactive)
REMARK    1  A    between atoms: C_4  and  C_5
REMARK    2  A    between atoms: C_4  and  C_33
REMARK    3  A    between atoms: C_6  and  O_7
REMARK    4  A    between atoms: C_6  and  C_11
REMARK    5  A    between atoms: C_8  and  C_9
REMARK    6  A    between atoms: C_12  and  C_13
REMARK    7  A    between atoms: C_13  and  C_15
REMARK    8  A    between atoms: C_13  and  O_16
REMARK    9  A    between atoms: O_16  and  C_17
REMARK   10  A    between atoms: C_19  and  O_21
REMARK   11  A    between atoms: C_22  and  O_24
REMARK   12  A    between atoms: C_25  and  O_27
REMARK   13  A    between atoms: C_28  and  C_30
REMARK   14  A    between atoms: C_30  and  O_31
REMARK                            x       y       z     vdW  Elec       q    Type
REMARK                         _______ _______ _______ _____ _____    ______ ____
ROOT
ATOM      1  C   LIG A   1      -1.664   1.138  -1.307  0.00  0.00    +0.141 C 
ATOM      2  C   LIG A   1      -2.829   2.103  -1.537  0.00  0.00    +0.042 C 
ENDROOT
BRANCH   1   4
ATOM      3  C   LIG A   1       0.275   1.821   0.183  0.00  0.00    +0.010 C 
ATOM      4  C   LIG A   1      -1.014   1.457   0.013  0.00  0.00    +0.003 C 
BRANCH   3  10
ATOM      5  O   LIG A   1      -1.194  -0.193   4.118  0.00  0.00    -0.293 OA
ATOM      6  C   LIG A   1      -0.450   0.500   3.419  0.00  0.00    +0.157 C 
ATOM      7  C   LIG A   1       0.664  -0.115   2.609  0.00  0.00    +0.088 C 
ATOM      8  C   LIG A   1       1.711   0.928   2.162  0.00  0.00    +0.008 C 
ATOM      9  C   LIG A   1       2.537   1.354   3.411  0.00  0.00    +0.015 C 
ATOM     10  C   LIG A   1       0.969   2.154   1.503  0.00  0.00    +0.111 C 
ATOM     11  C   LIG A   1      -0.027   2.745   2.493  0.00  0.00    -0.034 C 
ATOM     12  C   LIG A   1      -0.289   4.226   2.458  0.00  0.00    +0.042 C 
ATOM     13  C   LIG A   1      -0.695   1.957   3.369  0.00  0.00    +0.048 C 
ATOM     14  C   LIG A   1       2.722   0.253   1.206  0.00  0.00    +0.015 C 
BRANCH  10  15
ATOM     15  O   LIG A   1       1.936   3.148   1.162  0.00  0.00    -0.380 OA
ATOM     16  H   LIG A   1       2.288   3.520   1.986  0.00  0.00    +0.211 HD
ENDBRANCH  10  15
ENDBRANCH   3  10
ENDBRANCH   1   4
BRANCH   1  17
ATOM     17  O   LIG A   1      -2.194  -0.195  -1.294  0.00  0.00    -0.342 OA
BRANCH  17  18
ATOM     18  C   LIG A   1      -1.196  -1.212  -1.123  0.00  0.00    +0.282 C 
ATOM     19  C   LIG A   1      -1.879  -2.610  -1.110  0.00  0.00    +0.201 C 
ATOM     20  C   LIG A   1      -1.779  -3.303  -2.478  0.00  0.00    +0.179 C 
ATOM     21  C   LIG A   1      -0.320  -3.347  -2.981  0.00  0.00    +0.177 C 
ATOM     22  C   LIG A   1       0.559  -2.274  -2.317  0.00  0.00    +0.178 C 
ATOM     23  O   LIG A   1      -0.188  -1.074  -2.127  0.00  0.00    -0.341 OA
BRANCH  19  24
ATOM     24  O   LIG A   1      -1.291  -3.451  -0.094  0.00  0.00    -0.384 OA
ATOM     25  H   LIG A   1      -0.625  -4.039  -0.497  0.00  0.00    +0.210 HD
ENDBRANCH  19  24
BRANCH  20  26
ATOM     26  O   LIG A   1      -2.599  -2.667  -3.459  0.00  0.00    -0.386 OA
ATOM     27  H   LIG A   1      -3.489  -2.551  -3.079  0.00  0.00    +0.210 HD
ENDBRANCH  20  26
BRANCH  21  28
ATOM     28  O   LIG A   1       0.248  -4.629  -2.682  0.00  0.00    -0.387 OA
ATOM     29  H   LIG A   1      -0.097  -5.251  -3.350  0.00  0.00    +0.210 HD
ENDBRANCH  21  28
BRANCH  22  30
ATOM     30  C   LIG A   1       1.768  -1.936  -3.196  0.00  0.00    +0.190 C 
BRANCH  30  31
ATOM     31  O   LIG A   1       2.567  -0.942  -2.550  0.00  0.00    -0.392 OA
ATOM     32  H   LIG A   1       1.943  -0.239  -2.286  0.00  0.00    +0.209 HD
ENDBRANCH  30  31
ENDBRANCH  22  30
ENDBRANCH  17  18
ENDBRANCH   1  17
TORSDOF 10
