@<TRIPOS>MOLECULE
NuBBE_1338
 35 36 0 0 0
SMALL
GASTEIGER

@<TRIPOS>ATOM
      1 C          -3.3456   -1.1641    0.0394 C.3     1  LIG1       -0.0394
      2 C          -1.8989   -1.1245   -0.3603 C.2     1  LIG1       -0.0469
      3 C          -1.2292   -2.2517   -0.6606 C.2     1  LIG1       -0.0799
      4 C           0.2166   -2.2615   -1.0559 C.3     1  LIG1       -0.0271
      5 C           1.0297   -1.0699   -0.5010 C.3     1  LIG1       -0.0095
      6 C           1.6415   -1.3799    0.9052 C.3     1  LIG1       -0.0396
      7 C           2.7071   -0.3588    1.3226 C.3     1  LIG1       -0.0621
      8 C           0.6246   -1.5402    2.0388 C.3     1  LIG1       -0.0621
      9 C           0.2137    0.2138   -0.5704 C.ar    1  LIG1       -0.0361
     10 C           0.8704    1.4478   -0.7363 C.ar    1  LIG1       -0.0548
     11 C           0.1585    2.6509   -0.7562 C.ar    1  LIG1       -0.0501
     12 C           0.8709    3.9547   -0.9586 C.3     1  LIG1       -0.0397
     13 C          -1.2311    2.6121   -0.6423 C.ar    1  LIG1       -0.0583
     14 C          -1.8972    1.3912   -0.4976 C.ar    1  LIG1       -0.0538
     15 C          -1.1941    0.1772   -0.4687 C.ar    1  LIG1       -0.0189
     16 H          -3.7029   -2.1916    0.1721 H       1  LIG1        0.0278
     17 H          -3.9760   -0.6986   -0.7253 H       1  LIG1        0.0278
     18 H          -3.4992   -0.6463    0.9923 H       1  LIG1        0.0278
     19 H          -1.7332   -3.2140   -0.6322 H       1  LIG1        0.0575
     20 H           0.2563   -2.2520   -2.1534 H       1  LIG1        0.0313
     21 H           0.6748   -3.2069   -0.7425 H       1  LIG1        0.0313
     22 H           1.8790   -0.9549   -1.1910 H       1  LIG1        0.0354
     23 H           2.1681   -2.3405    0.8145 H       1  LIG1        0.0301
     24 H           2.2668    0.6091    1.5807 H       1  LIG1        0.0233
     25 H           3.4417   -0.2081    0.5249 H       1  LIG1        0.0233
     26 H           3.2505   -0.7142    2.2053 H       1  LIG1        0.0233
     27 H           0.0437   -0.6265    2.1976 H       1  LIG1        0.0233
     28 H           1.1359   -1.7699    2.9807 H       1  LIG1        0.0233
     29 H          -0.0653   -2.3660    1.8463 H       1  LIG1        0.0233
     30 H           1.9530    1.4692   -0.8454 H       1  LIG1        0.0623
     31 H           1.8807    3.9181   -0.5365 H       1  LIG1        0.0278
     32 H           0.3400    4.7715   -0.4582 H       1  LIG1        0.0278
     33 H           0.9419    4.1806   -2.0269 H       1  LIG1        0.0278
     34 H          -1.8113    3.5315   -0.6738 H       1  LIG1        0.0620
     35 H          -2.9810    1.4123   -0.4272 H       1  LIG1        0.0624
@<TRIPOS>BOND
     1     1     2    1
     2     2     3    2
     3     3     4    1
     4     4     5    1
     5     5     6    1
     6     6     7    1
     7     6     8    1
     8     5     9    1
     9     9    10   ar
    10    10    11   ar
    11    11    12    1
    12    11    13   ar
    13    13    14   ar
    14    14    15   ar
    15     9    15   ar
    16     2    15    1
    17     1    16    1
    18     1    17    1
    19     1    18    1
    20     3    19    1
    21     4    20    1
    22     4    21    1
    23     5    22    1
    24     6    23    1
    25     7    24    1
    26     7    25    1
    27     7    26    1
    28     8    27    1
    29     8    28    1
    30     8    29    1
    31    10    30    1
    32    12    31    1
    33    12    32    1
    34    12    33    1
    35    13    34    1
    36    14    35    1
