REMARK  Name = NuBBE_856
REMARK  10 active torsions:
REMARK  status: ('A' for Active; 'I' for Inactive)
REMARK    1  A    between atoms: C_6  and  C_39
REMARK    2  A    between atoms: C_7  and  O_35
REMARK    3  A    between atoms: C_11  and  C_12
REMARK    4  A    between atoms: C_11  and  C_34
REMARK    5  A    between atoms: C_16  and  C_32
REMARK    6  A    between atoms: C_20  and  C_31
REMARK    7  A    between atoms: C_21  and  C_24
REMARK    8  A    between atoms: C_26  and  O_27
REMARK    9  A    between atoms: O_35  and  C_36
REMARK   10  A    between atoms: C_36  and  C_37
REMARK                            x       y       z     vdW  Elec       q    Type
REMARK                         _______ _______ _______ _____ _____    ______ ____
ROOT
ATOM      1  O   LIG A   1       4.309   2.223  -1.863  0.00  0.00    -0.248 OA
ATOM      2  C   LIG A   1       3.612   1.763  -0.952  0.00  0.00    +0.340 C 
ATOM      3  C   LIG A   1       2.323   1.103  -1.248  0.00  0.00    +0.260 C 
ATOM      4  C   LIG A   1       1.337   0.686  -0.188  0.00  0.00    +0.125 C 
ATOM      5  C   LIG A   1      -0.173   0.321  -0.507  0.00  0.00    +0.041 C 
ATOM      6  C   LIG A   1      -0.358  -0.364  -1.920  0.00  0.00    +0.186 C 
ATOM      7  C   LIG A   1      -1.769  -0.960  -2.131  0.00  0.00    +0.050 C 
ATOM      8  C   LIG A   1      -2.154  -1.966  -1.038  0.00  0.00    +0.016 C 
ATOM      9  C   LIG A   1      -3.455  -2.804  -1.327  0.00  0.00    +0.031 C 
ATOM     10  C   LIG A   1      -3.357  -3.510  -2.698  0.00  0.00    +0.019 C 
ATOM     11  C   LIG A   1      -3.561  -3.889  -0.245  0.00  0.00    +0.162 C 
ATOM     12  C   LIG A   1      -2.993  -3.614   1.097  0.00  0.00    +0.043 C 
ATOM     13  C   LIG A   1      -2.352  -2.472   1.387  0.00  0.00    -0.016 C 
ATOM     14  C   LIG A   1      -2.084  -1.333   0.402  0.00  0.00    -0.006 C 
ATOM     15  C   LIG A   1      -0.626  -0.730   0.596  0.00  0.00    +0.011 C 
ATOM     16  C   LIG A   1      -0.342  -0.191   2.023  0.00  0.00    +0.006 C 
ATOM     17  C   LIG A   1       1.139   0.109   2.244  0.00  0.00    +0.014 C 
ATOM     18  C   LIG A   1       1.736   1.109   1.237  0.00  0.00    +0.042 C 
ATOM     19  C   LIG A   1       3.312   1.092   1.365  0.00  0.00    +0.222 C 
ATOM     20  O   LIG A   1       3.936   1.921   0.344  0.00  0.00    -0.454 OA
ATOM     21  C   LIG A   1       1.238   2.548   1.519  0.00  0.00    +0.018 C 
ATOM     22  C   LIG A   1      -3.173  -0.273   0.681  0.00  0.00    +0.016 C 
ATOM     23  O   LIG A   1      -4.155  -4.953  -0.415  0.00  0.00    -0.292 OA
ATOM     24  C   LIG A   1      -4.776  -2.016  -1.321  0.00  0.00    +0.019 C 
ATOM     25  C   LIG A   1      -1.001   1.629  -0.512  0.00  0.00    +0.018 C 
ATOM     26  O   LIG A   1       2.240  -0.251  -0.804  0.00  0.00    -0.351 OA
ENDROOT
BRANCH  19  27
ATOM     27  C   LIG A   1       3.842   1.630   2.659  0.00  0.00    +0.079 C 
ATOM     28  C   LIG A   1       4.222   2.866   2.993  0.00  0.00    +0.061 C 
ATOM     29  C   LIG A   1       4.690   2.915   4.382  0.00  0.00    +0.334 C 
ATOM     30  O   LIG A   1       4.653   1.565   4.817  0.00  0.00    -0.428 OA
ATOM     31  C   LIG A   1       4.113   0.800   3.832  0.00  0.00    +0.341 C 
ATOM     32  O   LIG A   1       3.880  -0.393   3.909  0.00  0.00    -0.245 OA
BRANCH  29  33
ATOM     33  O   LIG A   1       5.993   3.447   4.449  0.00  0.00    -0.354 OA
ATOM     34  H   LIG A   1       6.468   3.164   3.651  0.00  0.00    +0.214 HD
ENDBRANCH  29  33
ENDBRANCH  19  27
BRANCH   6  35
ATOM     35  O   LIG A   1      -0.191   0.597  -2.999  0.00  0.00    -0.461 OA
BRANCH  35  36
ATOM     36  C   LIG A   1       0.707   0.296  -3.981  0.00  0.00    +0.304 C 
ATOM     37  C   LIG A   1       0.680   1.331  -5.066  0.00  0.00    +0.136 C 
ATOM     38  O   LIG A   1       1.458  -0.668  -3.985  0.00  0.00    -0.251 OA
ENDBRANCH  35  36
ENDBRANCH   6  35
TORSDOF 4
