REMARK  Name = NuBBE_2439
REMARK  7 active torsions:
REMARK  status: ('A' for Active; 'I' for Inactive)
REMARK    1  A    between atoms: O_1  and  C_2
REMARK    2  A    between atoms: C_6  and  C_10
REMARK    3  A    between atoms: C_7  and  O_8
REMARK    4  A    between atoms: O_8  and  C_9
REMARK    5  A    between atoms: C_10  and  C_11
REMARK    6  A    between atoms: C_12  and  C_13
REMARK    7  A    between atoms: C_12  and  C_14
REMARK                            x       y       z     vdW  Elec       q    Type
REMARK                         _______ _______ _______ _____ _____    ______ ____
ROOT
ATOM      1  C   LIG A   1      -2.132   1.016  -0.815  0.00  0.00    +0.203 A 
ATOM      2  C   LIG A   1      -1.370   2.186  -0.770  0.00  0.00    +0.184 A 
ATOM      3  C   LIG A   1       0.018   2.157  -0.726  0.00  0.00    +0.022 A 
ATOM      4  C   LIG A   1       0.661   0.920  -0.740  0.00  0.00    +0.019 A 
ATOM      5  C   LIG A   1      -0.082  -0.281  -0.786  0.00  0.00    +0.002 A 
ATOM      6  C   LIG A   1      -1.496  -0.232  -0.806  0.00  0.00    +0.169 A 
ATOM      7  C   LIG A   1       0.748   3.413  -0.659  0.00  0.00    +0.019 A 
ATOM      8  C   LIG A   1       0.074   4.567  -0.643  0.00  0.00    +0.092 A 
ATOM      9  C   LIG A   1      -1.397   4.627  -0.706  0.00  0.00    +0.337 A 
ATOM     10  O   LIG A   1      -1.985   5.697  -0.700  0.00  0.00    -0.245 OA
ATOM     11  O   LIG A   1      -2.070   3.414  -0.772  0.00  0.00    -0.418 OA
ENDROOT
BRANCH   1  12
ATOM     12  O   LIG A   1      -3.494   1.137  -0.891  0.00  0.00    -0.501 OA
ATOM     13  H   LIG A   1      -3.699   2.090  -0.926  0.00  0.00    +0.292 HD
ENDBRANCH   1  12
BRANCH   6  14
ATOM     14  O   LIG A   1      -2.127  -1.448  -0.872  0.00  0.00    -0.491 OA
ATOM     15  C   LIG A   1      -3.412  -1.536  -0.267  0.00  0.00    +0.277 C 
ENDBRANCH   6  14
BRANCH   5  16
ATOM     16  C   LIG A   1       0.674  -1.598  -0.776  0.00  0.00    +0.066 C 
BRANCH  16  17
ATOM     17  C   LIG A   1       0.916  -2.125   0.616  0.00  0.00    -0.023 C 
ATOM     18  C   LIG A   1       2.091  -2.361   1.235  0.00  0.00    -0.079 C 
ATOM     19  C   LIG A   1       3.454  -2.100   0.653  0.00  0.00    +0.038 C 
ATOM     20  C   LIG A   1       2.125  -2.946   2.625  0.00  0.00    +0.038 C 
ENDBRANCH  16  17
ENDBRANCH   5  16
TORSDOF 4
