REMARK  Name = NuBBE_547
REMARK  4 active torsions:
REMARK  status: ('A' for Active; 'I' for Inactive)
REMARK    1  A    between atoms: C_2  and  C_3
REMARK    2  A    between atoms: C_2  and  C_11
REMARK    3  A    between atoms: C_6  and  O_7
REMARK    4  A    between atoms: O_7  and  C_8
REMARK                            x       y       z     vdW  Elec       q    Type
REMARK                         _______ _______ _______ _____ _____    ______ ____
ROOT
ATOM      1  C   LIG A   1      -0.221  -0.692   0.554  0.00  0.00    +0.119 A 
ATOM      2  N   LIG A   1       0.481  -0.338   1.672  0.00  0.00    -0.251 NA
ATOM      3  C   LIG A   1       1.075  -1.317   2.373  0.00  0.00    +0.112 A 
ATOM      4  C   LIG A   1       1.020  -2.649   2.020  0.00  0.00    +0.028 A 
ATOM      5  C   LIG A   1       0.292  -3.022   0.889  0.00  0.00    -0.011 A 
ATOM      6  C   LIG A   1       0.236  -4.380   0.532  0.00  0.00    +0.058 A 
ATOM      7  C   LIG A   1      -0.494  -4.738  -0.577  0.00  0.00    +0.167 A 
ATOM      8  O   LIG A   1      -0.645  -6.003  -1.052  0.00  0.00    -0.453 OA
ATOM      9  C   LIG A   1      -1.484  -5.761  -2.200  0.00  0.00    +0.466 C 
ATOM     10  O   LIG A   1      -1.828  -4.370  -2.372  0.00  0.00    -0.453 OA
ATOM     11  C   LIG A   1      -1.162  -3.808  -1.329  0.00  0.00    +0.167 A 
ATOM     12  C   LIG A   1      -1.123  -2.463  -1.021  0.00  0.00    +0.060 A 
ATOM     13  C   LIG A   1      -0.380  -2.029   0.113  0.00  0.00    +0.015 A 
ENDROOT
BRANCH   1  15
ATOM     14  O   LIG A   1      -1.887   0.367  -0.775  0.00  0.00    -0.285 OA
ATOM     15  C   LIG A   1      -0.825   0.478  -0.166  0.00  0.00    +0.212 C 
BRANCH  15  16
ATOM     16  C   LIG A   1      -0.171   1.821  -0.127  0.00  0.00    +0.024 A 
ATOM     17  C   LIG A   1      -0.980   2.953  -0.293  0.00  0.00    +0.015 A 
ATOM     18  C   LIG A   1      -0.425   4.237  -0.252  0.00  0.00    +0.046 A 
ATOM     19  C   LIG A   1       0.943   4.402  -0.044  0.00  0.00    +0.120 A 
ATOM     20  C   LIG A   1       1.760   3.279   0.075  0.00  0.00    +0.046 A 
ATOM     21  C   LIG A   1       1.210   1.992   0.031  0.00  0.00    +0.015 A 
BRANCH  19  22
ATOM     22  O   LIG A   1       1.585   5.611   0.021  0.00  0.00    -0.495 OA
ATOM     23  C   LIG A   1       0.784   6.697   0.479  0.00  0.00    +0.277 C 
ENDBRANCH  19  22
ENDBRANCH  15  16
ENDBRANCH   1  15
TORSDOF 3
