REMARK  Name = NuBBE_2284
REMARK  8 active torsions:
REMARK  status: ('A' for Active; 'I' for Inactive)
REMARK    1  A    between atoms: C_1  and  C_2
REMARK    2  A    between atoms: C_1  and  C_4
REMARK    3  A    between atoms: C_6  and  O_7
REMARK    4  A    between atoms: O_7  and  C_8
REMARK    5  A    between atoms: C_11  and  O_14
REMARK    6  A    between atoms: O_14  and  C_15
REMARK    7  A    between atoms: C_17  and  C_22
REMARK    8  A    between atoms: C_19  and  C_21
REMARK                            x       y       z     vdW  Elec       q    Type
REMARK                         _______ _______ _______ _____ _____    ______ ____
ROOT
ATOM      1  C   LIG A   1      -0.899  -0.095  -0.967  0.00  0.00    +0.044 C 
ATOM      2  C   LIG A   1       0.513  -0.626  -1.099  0.00  0.00    +0.150 C 
ATOM      3  C   LIG A   1       1.282  -0.575  -2.193  0.00  0.00    +0.203 C 
ATOM      4  C   LIG A   1       0.693  -0.023  -3.464  0.00  0.00    +0.229 C 
ATOM      5  O   LIG A   1       1.335  -0.066  -4.518  0.00  0.00    -0.286 OA
ATOM      6  C   LIG A   1      -0.756   0.521  -3.435  0.00  0.00    +0.193 C 
ATOM      7  C   LIG A   1      -1.108   1.008  -2.022  0.00  0.00    +0.055 C 
ATOM      8  O   LIG A   1       1.032  -1.042   0.120  0.00  0.00    -0.484 OA
ATOM      9  C   LIG A   1       0.055  -0.728   1.135  0.00  0.00    +0.207 C 
ATOM     10  C   LIG A   1      -0.845   0.368   0.519  0.00  0.00    +0.045 C 
ATOM     11  C   LIG A   1      -0.310   1.790   0.731  0.00  0.00    +0.012 C 
ENDROOT
BRANCH   9  12
ATOM     12  C   LIG A   1       0.706  -0.486   2.484  0.00  0.00    -0.003 A 
ATOM     13  C   LIG A   1      -0.082  -0.167   3.605  0.00  0.00    +0.056 A 
ATOM     14  C   LIG A   1       0.532  -0.092   4.840  0.00  0.00    +0.167 A 
ATOM     15  C   LIG A   1       1.879  -0.316   4.997  0.00  0.00    +0.166 A 
ATOM     16  C   LIG A   1       2.691  -0.615   3.929  0.00  0.00    +0.050 A 
ATOM     17  C   LIG A   1       2.096  -0.702   2.667  0.00  0.00    +0.011 A 
ATOM     18  O   LIG A   1       2.275  -0.230   6.295  0.00  0.00    -0.453 OA
ATOM     19  C   LIG A   1       1.015   0.040   6.943  0.00  0.00    +0.466 C 
ATOM     20  O   LIG A   1      -0.089   0.170   6.021  0.00  0.00    -0.453 OA
ENDBRANCH   9  12
BRANCH   3  21
ATOM     21  O   LIG A   1       2.587  -1.061  -2.130  0.00  0.00    -0.489 OA
ATOM     22  C   LIG A   1       3.545  -0.421  -2.964  0.00  0.00    +0.277 C 
ENDBRANCH   3  21
BRANCH   6  23
ATOM     23  O   LIG A   1      -1.036   1.613  -4.315  0.00  0.00    -0.372 OA
ATOM     24  C   LIG A   1      -0.867   1.309  -5.697  0.00  0.00    +0.195 C 
ENDBRANCH   6  23
BRANCH   1  25
ATOM     25  C   LIG A   1      -1.924  -1.266  -1.143  0.00  0.00    +0.041 C 
BRANCH  25  26
ATOM     26  C   LIG A   1      -3.368  -0.848  -1.039  0.00  0.00    -0.034 C 
ATOM     27  C   LIG A   1      -4.082  -0.877   0.094  0.00  0.00    +0.004 C 
ENDBRANCH  25  26
ENDBRANCH   1  25
TORSDOF 5
