REMARK  Name = NuBBE_1349
REMARK  11 active torsions:
REMARK  status: ('A' for Active; 'I' for Inactive)
REMARK    1  A    between atoms: C_1  and  C_2
REMARK    2  A    between atoms: C_2  and  C_3
REMARK    3  A    between atoms: C_4  and  O_5
REMARK    4  A    between atoms: C_9  and  C_10
REMARK    5  A    between atoms: C_14  and  C_15
REMARK    6  A    between atoms: C_17  and  O_19
REMARK    7  A    between atoms: C_22  and  C_23
REMARK    8  A    between atoms: C_25  and  O_27
REMARK    9  A    between atoms: C_28  and  C_29
REMARK   10  A    between atoms: C_31  and  C_33
REMARK   11  A    between atoms: C_34  and  C_36
REMARK                            x       y       z     vdW  Elec       q    Type
REMARK                         _______ _______ _______ _____ _____    ______ ____
ROOT
ATOM      1  C   LIG A   1      -5.914  -2.074   0.020  0.00  0.00    +0.014 C 
ATOM      2  C   LIG A   1      -4.939  -1.521   1.106  0.00  0.00    -0.006 C 
ATOM      3  C   LIG A   1      -5.628  -0.226   1.605  0.00  0.00    +0.014 C 
ATOM      4  C   LIG A   1      -4.831  -2.596   2.229  0.00  0.00    +0.120 C 
ATOM      5  C   LIG A   1      -3.672  -2.400   3.205  0.00  0.00    +0.032 C 
ATOM      6  C   LIG A   1      -2.308  -2.112   2.534  0.00  0.00    +0.010 C 
ATOM      7  C   LIG A   1      -2.339  -0.882   1.562  0.00  0.00    -0.023 C 
ATOM      8  C   LIG A   1      -2.545   0.326   2.517  0.00  0.00    +0.012 C 
ATOM      9  C   LIG A   1      -3.496  -1.270   0.514  0.00  0.00    +0.003 C 
ATOM     10  C   LIG A   1      -3.521  -0.498  -0.808  0.00  0.00    +0.005 C 
ATOM     11  C   LIG A   1      -2.128  -0.327  -1.420  0.00  0.00    +0.008 C 
ATOM     12  C   LIG A   1      -1.089   0.354  -0.470  0.00  0.00    -0.017 C 
ATOM     13  C   LIG A   1      -1.757   1.708  -0.126  0.00  0.00    +0.012 C 
ATOM     14  C   LIG A   1      -0.956  -0.680   0.731  0.00  0.00    +0.035 C 
ATOM     15  C   LIG A   1       0.357  -0.401   1.497  0.00  0.00    +0.142 C 
ATOM     16  C   LIG A   1       1.613  -0.488   0.632  0.00  0.00    +0.004 C 
ATOM     17  C   LIG A   1       1.668   0.053  -0.631  0.00  0.00    -0.061 C 
ATOM     18  C   LIG A   1       0.379   0.685  -1.187  0.00  0.00    -0.003 C 
ATOM     19  C   LIG A   1       0.321   0.100  -2.634  0.00  0.00    +0.016 C 
ATOM     20  C   LIG A   1       0.804   2.253  -1.060  0.00  0.00    +0.043 C 
ATOM     21  C   LIG A   1       1.973   2.526  -0.010  0.00  0.00    +0.122 C 
ATOM     22  C   LIG A   1       3.338   1.985  -0.582  0.00  0.00    +0.001 C 
ATOM     23  C   LIG A   1       3.913   3.093  -1.513  0.00  0.00    +0.014 C 
ATOM     24  C   LIG A   1       2.943   0.701  -1.363  0.00  0.00    +0.027 C 
ATOM     25  C   LIG A   1       4.107  -0.065  -2.039  0.00  0.00    -0.003 C 
ATOM     26  C   LIG A   1       4.435   0.540  -3.444  0.00  0.00    +0.008 C 
ATOM     27  C   LIG A   1       5.412  -0.031  -1.223  0.00  0.00    -0.011 C 
ATOM     28  C   LIG A   1       6.193  -1.330  -1.463  0.00  0.00    +0.008 C 
ATOM     29  C   LIG A   1       5.139   0.261   0.251  0.00  0.00    +0.004 C 
ATOM     30  C   LIG A   1       4.422   1.624   0.479  0.00  0.00    +0.010 C 
ENDROOT
BRANCH   4  31
ATOM     31  O   LIG A   1      -4.694  -3.909   1.668  0.00  0.00    -0.391 OA
ATOM     32  H   LIG A   1      -3.837  -3.967   1.215  0.00  0.00    +0.210 HD
ENDBRANCH   4  31
BRANCH  15  33
ATOM     33  O   LIG A   1       0.556  -1.301   2.575  0.00  0.00    -0.387 OA
ATOM     34  H   LIG A   1       0.289  -0.831   3.385  0.00  0.00    +0.210 HD
ENDBRANCH  15  33
BRANCH  21  35
ATOM     35  O   LIG A   1       2.019   3.907   0.333  0.00  0.00    -0.391 OA
ATOM     36  H   LIG A   1       2.654   3.990   1.067  0.00  0.00    +0.210 HD
ENDBRANCH  21  35
TORSDOF 3
