REMARK  Name = NuBBE_1411
REMARK  6 active torsions:
REMARK  status: ('A' for Active; 'I' for Inactive)
REMARK    1  A    between atoms: C_1  and  C_2
REMARK    2  A    between atoms: C_2  and  C_4
REMARK    3  A    between atoms: C_18  and  O_19
REMARK    4  A    between atoms: O_19  and  C_20
REMARK    5  A    between atoms: C_21  and  O_22
REMARK    6  A    between atoms: O_22  and  C_23
REMARK                            x       y       z     vdW  Elec       q    Type
REMARK                         _______ _______ _______ _____ _____    ______ ____
ROOT
ATOM      1  C   LIG A   1      -4.892   2.620   2.940  0.00  0.00    +0.060 C 
ATOM      2  C   LIG A   1      -3.461   2.154   3.230  0.00  0.00    +0.123 C 
ATOM      3  O   LIG A   1      -2.612   3.292   2.959  0.00  0.00    -0.481 OA
ATOM      4  C   LIG A   1      -3.316   1.825   4.721  0.00  0.00    +0.060 C 
ATOM      5  C   LIG A   1      -3.165   0.914   2.417  0.00  0.00    +0.020 C 
ATOM      6  C   LIG A   1      -2.066   0.775   1.671  0.00  0.00    +0.015 C 
ATOM      7  C   LIG A   1      -1.125   1.882   1.643  0.00  0.00    +0.059 A 
ATOM      8  C   LIG A   1      -1.445   3.090   2.276  0.00  0.00    +0.132 A 
ATOM      9  C   LIG A   1      -0.566   4.190   2.224  0.00  0.00    +0.047 A 
ATOM     10  C   LIG A   1       0.654   4.096   1.552  0.00  0.00    +0.019 A 
ATOM     11  C   LIG A   1       0.946   2.889   0.950  0.00  0.00    +0.065 A 
ATOM     12  C   LIG A   1       0.095   1.801   0.991  0.00  0.00    +0.144 A 
ATOM     13  O   LIG A   1       0.573   0.670   0.376  0.00  0.00    -0.465 OA
ATOM     14  C   LIG A   1       1.863   1.030  -0.190  0.00  0.00    +0.267 C 
ATOM     15  C   LIG A   1       1.771   0.800  -1.676  0.00  0.00    +0.221 C 
ATOM     16  C   LIG A   1       1.925  -0.608  -2.099  0.00  0.00    +0.067 A 
ATOM     17  C   LIG A   1       1.597  -1.002  -3.397  0.00  0.00    +0.064 A 
ATOM     18  C   LIG A   1       1.621  -2.358  -3.751  0.00  0.00    +0.162 A 
ATOM     19  C   LIG A   1       2.000  -3.322  -2.800  0.00  0.00    +0.165 A 
ATOM     20  C   LIG A   1       2.371  -2.905  -1.513  0.00  0.00    +0.095 A 
ATOM     21  C   LIG A   1       2.336  -1.555  -1.163  0.00  0.00    +0.135 A 
ATOM     22  O   LIG A   1       2.692  -1.264   0.126  0.00  0.00    -0.486 OA
ATOM     23  C   LIG A   1       2.954   0.127   0.365  0.00  0.00    +0.293 C 
ATOM     24  O   LIG A   1       1.503   1.674  -2.494  0.00  0.00    -0.287 OA
ATOM     25  C   LIG A   1       2.115   2.453   0.231  0.00  0.00    +0.221 C 
ATOM     26  O   LIG A   1       3.127   3.118   0.089  0.00  0.00    -0.287 OA
ENDROOT
BRANCH  18  27
ATOM     27  O   LIG A   1       1.269  -2.579  -5.058  0.00  0.00    -0.491 OA
ATOM     28  C   LIG A   1       0.637  -3.818  -5.354  0.00  0.00    +0.277 C 
ENDBRANCH  18  27
BRANCH  19  29
ATOM     29  O   LIG A   1       2.063  -4.636  -3.180  0.00  0.00    -0.491 OA
ATOM     30  C   LIG A   1       1.803  -5.596  -2.160  0.00  0.00    +0.277 C 
ENDBRANCH  19  29
TORSDOF 2
