REMARK  Name = NuBBE_1072
REMARK  11 active torsions:
REMARK  status: ('A' for Active; 'I' for Inactive)
REMARK    1  A    between atoms: O_1  and  C_2
REMARK    2  A    between atoms: C_6  and  C_7
REMARK    3  A    between atoms: C_11  and  C_12
REMARK    4  A    between atoms: C_17  and  C_18
REMARK    5  A    between atoms: C_21  and  C_22
REMARK    6  A    between atoms: C_24  and  C_26
REMARK    7  A    between atoms: C_26  and  C_27
REMARK    8  A    between atoms: C_26  and  O_28
REMARK    9  A    between atoms: C_26  and  C_29
REMARK   10  A    between atoms: C_32  and  C_33
REMARK   11  A    between atoms: C_32  and  C_34
REMARK                            x       y       z     vdW  Elec       q    Type
REMARK                         _______ _______ _______ _____ _____    ______ ____
ROOT
ATOM      1  C   LIG A   1       4.044  -0.304  -4.019  0.00  0.00    +0.120 C 
ATOM      2  C   LIG A   1       3.800   1.117  -3.519  0.00  0.00    +0.032 C 
ATOM      3  C   LIG A   1       2.603   1.225  -2.568  0.00  0.00    +0.010 C 
ATOM      4  C   LIG A   1       2.651   0.248  -1.351  0.00  0.00    -0.025 C 
ATOM      5  C   LIG A   1       3.753   0.764  -0.394  0.00  0.00    +0.012 C 
ATOM      6  C   LIG A   1       2.911  -1.204  -1.906  0.00  0.00    +0.003 C 
ATOM      7  C   LIG A   1       2.837  -2.252  -0.778  0.00  0.00    +0.005 C 
ATOM      8  C   LIG A   1       1.450  -2.263  -0.123  0.00  0.00    +0.008 C 
ATOM      9  C   LIG A   1       0.986  -0.892   0.452  0.00  0.00    -0.023 C 
ATOM     10  C   LIG A   1       1.839  -0.633   1.729  0.00  0.00    +0.012 C 
ATOM     11  C   LIG A   1       1.220   0.218  -0.650  0.00  0.00    +0.002 C 
ATOM     12  C   LIG A   1       0.707   1.581  -0.162  0.00  0.00    +0.005 C 
ATOM     13  C   LIG A   1      -0.772   1.539   0.229  0.00  0.00    +0.005 C 
ATOM     14  C   LIG A   1      -1.100   0.488   1.296  0.00  0.00    -0.000 C 
ATOM     15  C   LIG A   1      -0.600  -0.930   0.854  0.00  0.00    -0.023 C 
ATOM     16  C   LIG A   1      -1.448  -1.437  -0.348  0.00  0.00    +0.012 C 
ATOM     17  C   LIG A   1      -0.836  -1.856   2.074  0.00  0.00    +0.008 C 
ATOM     18  C   LIG A   1      -2.299  -2.067   2.403  0.00  0.00    +0.007 C 
ATOM     19  C   LIG A   1      -3.144  -0.779   2.503  0.00  0.00    -0.029 C 
ATOM     20  C   LIG A   1      -3.500  -0.562   3.996  0.00  0.00    +0.011 C 
ATOM     21  C   LIG A   1      -2.553   0.569   1.933  0.00  0.00    +0.004 C 
ATOM     22  C   LIG A   1      -3.722   1.254   1.123  0.00  0.00    +0.024 C 
ATOM     23  C   LIG A   1      -4.961   0.362   1.377  0.00  0.00    +0.007 C 
ATOM     24  C   LIG A   1      -4.443  -1.011   1.707  0.00  0.00    +0.007 C 
ATOM     25  C   LIG A   1       4.135  -1.365  -2.882  0.00  0.00    -0.006 C 
ATOM     26  C   LIG A   1       5.501  -1.250  -2.178  0.00  0.00    +0.014 C 
ATOM     27  C   LIG A   1       4.103  -2.774  -3.537  0.00  0.00    +0.014 C 
ENDROOT
BRANCH  22  28
ATOM     28  C   LIG A   1      -4.104   2.734   1.508  0.00  0.00    +0.064 C 
ATOM     29  C   LIG A   1      -5.307   3.220   0.675  0.00  0.00    +0.041 C 
ATOM     30  C   LIG A   1      -2.986   3.760   1.351  0.00  0.00    +0.041 C 
BRANCH  28  31
ATOM     31  O   LIG A   1      -4.488   2.768   2.890  0.00  0.00    -0.389 OA
ATOM     32  H   LIG A   1      -4.795   3.667   3.099  0.00  0.00    +0.210 HD
ENDBRANCH  28  31
ENDBRANCH  22  28
BRANCH   1  33
ATOM     33  O   LIG A   1       3.014  -0.631  -4.958  0.00  0.00    -0.391 OA
ATOM     34  H   LIG A   1       2.159  -0.625  -4.500  0.00  0.00    +0.210 HD
ENDBRANCH   1  33
TORSDOF 3
