REMARK  Name = NuBBE_2338
REMARK  6 active torsions:
REMARK  status: ('A' for Active; 'I' for Inactive)
REMARK    1  A    between atoms: C_2  and  C_3
REMARK    2  A    between atoms: C_4  and  O_5
REMARK    3  A    between atoms: C_6  and  O_7
REMARK    4  A    between atoms: O_7  and  C_8
REMARK    5  A    between atoms: C_11  and  C_13
REMARK    6  A    between atoms: C_16  and  C_18
REMARK                            x       y       z     vdW  Elec       q    Type
REMARK                         _______ _______ _______ _____ _____    ______ ____
ROOT
ATOM      1  C   LIG A   1      -1.831  -0.853  -0.865  0.00  0.00    +0.061 A 
ATOM      2  C   LIG A   1      -2.016  -2.075  -0.174  0.00  0.00    +0.169 A 
ATOM      3  C   LIG A   1      -1.739  -2.184   1.212  0.00  0.00    +0.162 A 
ATOM      4  C   LIG A   1      -1.317  -1.055   1.929  0.00  0.00    +0.057 A 
ATOM      5  C   LIG A   1      -1.144   0.139   1.258  0.00  0.00    +0.005 A 
ATOM      6  C   LIG A   1      -0.689   1.459   1.775  0.00  0.00    +0.065 C 
ATOM      7  C   LIG A   1      -1.836   2.229   2.430  0.00  0.00    +0.016 C 
ATOM      8  C   LIG A   1      -1.387   0.227  -0.105  0.00  0.00    +0.136 A 
ATOM      9  O   LIG A   1      -1.102   1.484  -0.603  0.00  0.00    -0.483 OA
ATOM     10  C   LIG A   1      -0.265   2.091   0.426  0.00  0.00    +0.211 C 
ENDROOT
BRANCH  10  11
ATOM     11  C   LIG A   1       1.224   1.928   0.100  0.00  0.00    -0.003 A 
ATOM     12  C   LIG A   1       2.204   2.473   0.968  0.00  0.00    +0.011 A 
ATOM     13  C   LIG A   1       3.572   2.355   0.688  0.00  0.00    +0.050 A 
ATOM     14  C   LIG A   1       3.937   1.701  -0.468  0.00  0.00    +0.166 A 
ATOM     15  C   LIG A   1       3.001   1.173  -1.322  0.00  0.00    +0.167 A 
ATOM     16  O   LIG A   1       3.562   0.574  -2.406  0.00  0.00    -0.453 OA
ATOM     17  C   LIG A   1       4.961   0.803  -2.146  0.00  0.00    +0.466 C 
ATOM     18  O   LIG A   1       5.209   1.505  -0.908  0.00  0.00    -0.453 OA
ATOM     19  C   LIG A   1       1.650   1.270  -1.070  0.00  0.00    +0.056 A 
ENDBRANCH  10  11
BRANCH   1  21
ATOM     20  C   LIG A   1      -1.795  -1.435  -3.309  0.00  0.00    +0.009 C 
ATOM     21  C   LIG A   1      -2.121  -0.629  -2.298  0.00  0.00    +0.007 C 
ENDBRANCH   1  21
BRANCH   2  22
ATOM     22  O   LIG A   1      -2.498  -3.175  -0.842  0.00  0.00    -0.503 OA
ATOM     23  H   LIG A   1      -2.821  -2.892  -1.711  0.00  0.00    +0.292 HD
ENDBRANCH   2  22
BRANCH   3  24
ATOM     24  O   LIG A   1      -1.836  -3.291   2.016  0.00  0.00    -0.491 OA
ATOM     25  C   LIG A   1      -2.224  -4.525   1.433  0.00  0.00    +0.277 C 
ENDBRANCH   3  24
TORSDOF 4
