@<TRIPOS>MOLECULE
NuBBE_1643
 148 151 0 0 0
SMALL
GASTEIGER

@<TRIPOS>ATOM
      1 O          -1.3942   -1.1355    3.8464 O.3     1  LIG1       -0.4519
      2 C          -1.4368   -0.7514    5.1901 C.ar    1  LIG1        0.1762
      3 C          -0.2725   -0.2698    5.8247 C.ar    1  LIG1        0.0405
      4 C          -0.3328    0.4616    7.0481 C.ar    1  LIG1        0.1311
      5 O           0.8468    1.0836    7.5101 O.3     1  LIG1       -0.4853
      6 C           1.4138    1.9286    6.4561 C.3     1  LIG1        0.1082
      7 C           1.4824    1.1122    5.1416 C.3     1  LIG1       -0.0090
      8 C           1.1174   -0.3560    5.3148 C.3     1  LIG1       -0.0170
      9 C           2.8578    2.4752    6.7816 C.3     1  LIG1       -0.0132
     10 C           3.5256    3.4271    5.7259 C.3     1  LIG1       -0.0492
     11 C           3.8713    2.9813    4.2814 C.3     1  LIG1       -0.0503
     12 C           5.0849    2.0602    3.9248 C.3     1  LIG1       -0.0439
     13 C           6.4573    2.6073    4.3663 C.3     1  LIG1       -0.0505
     14 C           6.7632    3.8884    3.6287 C.3     1  LIG1       -0.0526
     15 C           7.8319    4.7709    4.2555 C.3     1  LIG1       -0.0505
     16 C           8.0060    6.0448    3.4069 C.3     1  LIG1       -0.0439
     17 C           8.4696    5.6529    1.9923 C.3     1  LIG1       -0.0505
     18 C           8.6685    6.8074    1.0418 C.3     1  LIG1       -0.0526
     19 C           9.7308    7.7848    1.5151 C.3     1  LIG1       -0.0507
     20 C           9.9096    8.9171    0.5007 C.3     1  LIG1       -0.0467
     21 C          10.9941    9.8688    0.9944 C.3     1  LIG1       -0.0627
     22 C          10.1982    8.3450   -0.8894 C.3     1  LIG1       -0.0627
     23 C           6.7149    6.8837    3.3717 C.3     1  LIG1       -0.0624
     24 C           5.0261    0.5927    4.3405 C.3     1  LIG1       -0.0624
     25 C           0.4705    3.1544    6.4373 C.3     1  LIG1       -0.0249
     26 C          -1.5266    0.6544    7.7153 C.ar    1  LIG1       -0.0048
     27 C          -2.6401   -0.0583    7.2148 C.ar    1  LIG1       -0.0101
     28 C          -2.5512   -0.8129    6.0099 C.ar    1  LIG1        0.1598
     29 O          -3.5832   -1.6297    5.6752 O.3     1  LIG1       -0.5033
     30 C          -1.6811    1.6187    8.8357 C.3     1  LIG1       -0.0361
     31 C          -2.4902   -1.0593    2.9515 C.ar    1  LIG1        0.1294
     32 C          -2.3700   -1.7095    1.7004 C.ar    1  LIG1       -0.0127
     33 C          -3.4900   -1.8748    0.8467 C.ar    1  LIG1       -0.0018
     34 C          -4.7108   -1.2622    1.1425 C.ar    1  LIG1        0.1276
     35 C          -4.8180   -0.4784    2.2797 C.ar    1  LIG1       -0.0050
     36 C          -3.7195   -0.3946    3.1791 C.ar    1  LIG1       -0.0129
     37 C          -6.1511    0.1462    2.6136 C.3     1  LIG1       -0.0361
     38 O          -5.7965   -1.4542    0.3202 O.3     1  LIG1       -0.4854
     39 C          -6.0716   -2.8591    0.0326 C.3     1  LIG1        0.1082
     40 C          -4.7680   -3.5975   -0.3717 C.3     1  LIG1       -0.0091
     41 C          -3.4919   -2.7470   -0.3725 C.3     1  LIG1       -0.0205
     42 C          -7.1576   -2.8860   -1.0991 C.3     1  LIG1       -0.0132
     43 C          -7.7754   -4.2272   -1.5642 C.3     1  LIG1       -0.0492
     44 C          -6.8700   -5.2782   -2.2311 C.3     1  LIG1       -0.0503
     45 C          -6.1340   -4.8561   -3.5376 C.3     1  LIG1       -0.0439
     46 C          -5.2744   -6.0553   -4.0319 C.3     1  LIG1       -0.0505
     47 C          -4.3561   -5.8827   -5.2620 C.3     1  LIG1       -0.0526
     48 C          -5.0347   -5.6279   -6.6368 C.3     1  LIG1       -0.0505
     49 C          -4.0304   -5.4625   -7.8204 C.3     1  LIG1       -0.0439
     50 C          -4.7127   -5.1561   -9.1905 C.3     1  LIG1       -0.0505
     51 C          -3.7937   -5.1623  -10.4642 C.3     1  LIG1       -0.0526
     52 C          -2.6753   -4.1018  -10.5154 C.3     1  LIG1       -0.0507
     53 C          -1.7336   -4.0207  -11.7294 C.3     1  LIG1       -0.0467
     54 C          -0.8870   -5.2813  -11.8865 C.3     1  LIG1       -0.0627
     55 C          -2.4332   -3.6604  -13.0297 C.3     1  LIG1       -0.0627
     56 C          -3.0655   -4.3437   -7.4226 C.3     1  LIG1       -0.0624
     57 C          -7.1285   -4.4029   -4.6007 C.3     1  LIG1       -0.0624
     58 C          -6.6987   -3.4547    1.3165 C.3     1  LIG1       -0.0249
     59 H           2.4851    1.0900    4.7701 H       1  LIG1        0.0307
     60 H           0.8385    1.5730    4.3861 H       1  LIG1        0.0307
     61 H           1.7578   -0.8410    6.0629 H       1  LIG1        0.0317
     62 H           1.2261   -0.9367    4.3871 H       1  LIG1        0.0317
     63 H           3.5467    1.6613    7.0323 H       1  LIG1        0.0304
     64 H           2.7778    3.0623    7.7125 H       1  LIG1        0.0304
     65 H           4.4138    3.8891    6.1750 H       1  LIG1        0.0267
     66 H           2.8455    4.2811    5.5938 H       1  LIG1        0.0267
     67 H           4.0344    3.9257    3.7446 H       1  LIG1        0.0268
     68 H           2.9803    2.6267    3.7578 H       1  LIG1        0.0268
     69 H           5.0886    2.0405    2.8217 H       1  LIG1        0.0298
     70 H           7.2435    1.8836    4.1007 H       1  LIG1        0.0268
     71 H           6.4941    2.7364    5.4502 H       1  LIG1        0.0268
     72 H           5.8669    4.4949    3.5346 H       1  LIG1        0.0265
     73 H           7.0414    3.5934    2.6137 H       1  LIG1        0.0265
     74 H           8.7876    4.2386    4.3379 H       1  LIG1        0.0268
     75 H           7.5389    5.0550    5.2743 H       1  LIG1        0.0268
     76 H           8.7850    6.6436    3.8930 H       1  LIG1        0.0298
     77 H           7.7296    5.0182    1.4950 H       1  LIG1        0.0268
     78 H           9.3917    5.0607    2.0551 H       1  LIG1        0.0268
     79 H           7.7247    7.3346    0.8639 H       1  LIG1        0.0265
     80 H           8.9543    6.3556    0.0858 H       1  LIG1        0.0265
     81 H          10.6775    7.2487    1.6638 H       1  LIG1        0.0268
     82 H           9.4554    8.2159    2.4844 H       1  LIG1        0.0268
     83 H           8.9726    9.4861    0.4417 H       1  LIG1        0.0295
     84 H          10.6629   10.3650    1.9148 H       1  LIG1        0.0232
     85 H          11.2037   10.6470    0.2556 H       1  LIG1        0.0232
     86 H          11.9260    9.3406    1.2207 H       1  LIG1        0.0232
     87 H          10.5494    9.1035   -1.5901 H       1  LIG1        0.0232
     88 H           9.2783    7.9257   -1.3174 H       1  LIG1        0.0232
     89 H          10.9350    7.5348   -0.8408 H       1  LIG1        0.0232
     90 H           6.0254    6.6174    4.1798 H       1  LIG1        0.0232
     91 H           6.1708    6.7611    2.4279 H       1  LIG1        0.0232
     92 H           6.9466    7.9467    3.4861 H       1  LIG1        0.0232
     93 H           5.3270    0.4581    5.3824 H       1  LIG1        0.0232
     94 H           5.7288    0.0151    3.7225 H       1  LIG1        0.0232
     95 H           4.0558    0.1312    4.1733 H       1  LIG1        0.0232
     96 H          -0.5013    2.9151    5.9968 H       1  LIG1        0.0268
     97 H           0.8688    4.0122    5.9054 H       1  LIG1        0.0268
     98 H           0.2734    3.4768    7.4719 H       1  LIG1        0.0268
     99 H          -3.5888    0.0148    7.7202 H       1  LIG1        0.0659
    100 H          -4.2412   -1.6125    6.4199 H       1  LIG1        0.2923
    101 H          -1.6203    2.6387    8.4487 H       1  LIG1        0.0279
    102 H          -0.8961    1.4668    9.5825 H       1  LIG1        0.0279
    103 H          -2.6518    1.5170    9.3313 H       1  LIG1        0.0279
    104 H          -1.4113   -2.1284    1.3949 H       1  LIG1        0.0658
    105 H          -3.8630    0.1723    4.0852 H       1  LIG1        0.0658
    106 H          -6.7532   -0.5636    3.1896 H       1  LIG1        0.0279
    107 H          -6.6938    0.4386    1.7242 H       1  LIG1        0.0279
    108 H          -6.0085    1.0568    3.2185 H       1  LIG1        0.0279
    109 H          -4.8400   -4.0187   -1.3649 H       1  LIG1        0.0307
    110 H          -4.6248   -4.4544    0.2981 H       1  LIG1        0.0307
    111 H          -3.4374   -2.1413   -1.2864 H       1  LIG1        0.0316
    112 H          -2.6257   -3.4166   -0.3683 H       1  LIG1        0.0316
    113 H          -6.7886   -2.3370   -1.9731 H       1  LIG1        0.0304
    114 H          -8.0073   -2.2786   -0.7435 H       1  LIG1        0.0304
    115 H          -8.5895   -3.9878   -2.2599 H       1  LIG1        0.0267
    116 H          -8.2938   -4.7072   -0.7251 H       1  LIG1        0.0267
    117 H          -7.4957   -6.1507   -2.4657 H       1  LIG1        0.0268
    118 H          -6.1541   -5.6490   -1.4882 H       1  LIG1        0.0268
    119 H          -5.4710   -4.0105   -3.3221 H       1  LIG1        0.0298
    120 H          -5.9335   -6.9108   -4.2165 H       1  LIG1        0.0268
    121 H          -4.6221   -6.3538   -3.1965 H       1  LIG1        0.0268
    122 H          -3.7763   -6.8121   -5.3558 H       1  LIG1        0.0265
    123 H          -3.6225   -5.1041   -5.0245 H       1  LIG1        0.0265
    124 H          -5.5946   -4.6962   -6.6020 H       1  LIG1        0.0268
    125 H          -5.7543   -6.4291   -6.8379 H       1  LIG1        0.0268
    126 H          -3.4927   -6.4129   -7.9351 H       1  LIG1        0.0298
    127 H          -5.2392   -4.1947   -9.1324 H       1  LIG1        0.0268
    128 H          -5.4940   -5.9121   -9.3618 H       1  LIG1        0.0268
    129 H          -4.4493   -5.0103  -11.3310 H       1  LIG1        0.0265
    130 H          -3.3568   -6.1606  -10.5715 H       1  LIG1        0.0265
    131 H          -1.9819   -4.3007   -9.6968 H       1  LIG1        0.0268
    132 H          -3.1258   -3.1119  -10.3648 H       1  LIG1        0.0268
    133 H          -1.0290   -3.2033  -11.5113 H       1  LIG1        0.0295
    134 H          -1.4915   -6.1330  -12.2088 H       1  LIG1        0.0232
    135 H          -0.3918   -5.5425  -10.9445 H       1  LIG1        0.0232
    136 H          -0.1001   -5.1180  -12.6313 H       1  LIG1        0.0232
    137 H          -2.8468   -2.6481  -12.9750 H       1  LIG1        0.0232
    138 H          -3.2427   -4.3568  -13.2592 H       1  LIG1        0.0232
    139 H          -1.7212   -3.6804  -13.8627 H       1  LIG1        0.0232
    140 H          -3.4779   -3.6961   -6.6450 H       1  LIG1        0.0232
    141 H          -2.8616   -3.6345   -8.2117 H       1  LIG1        0.0232
    142 H          -2.1231   -4.7740   -7.0738 H       1  LIG1        0.0232
    143 H          -6.6384   -3.7249   -5.3018 H       1  LIG1        0.0232
    144 H          -7.9645   -3.8281   -4.2042 H       1  LIG1        0.0232
    145 H          -7.5365   -5.2619   -5.1422 H       1  LIG1        0.0232
    146 H          -5.9475   -3.5777    2.1036 H       1  LIG1        0.0268
    147 H          -7.1608   -4.4299    1.1509 H       1  LIG1        0.0268
    148 H          -7.4602   -2.7760    1.7257 H       1  LIG1        0.0268
@<TRIPOS>BOND
     1     1     2    1
     2     2     3   ar
     3     3     4   ar
     4     4     5    1
     5     5     6    1
     6     6     7    1
     7     7     8    1
     8     3     8    1
     9     6     9    1
    10     9    10    1
    11    10    11    1
    12    11    12    1
    13    12    13    1
    14    13    14    1
    15    14    15    1
    16    15    16    1
    17    16    17    1
    18    17    18    1
    19    18    19    1
    20    19    20    1
    21    20    21    1
    22    20    22    1
    23    16    23    1
    24    12    24    1
    25     6    25    1
    26     4    26   ar
    27    26    27   ar
    28    27    28   ar
    29     2    28   ar
    30    28    29    1
    31    26    30    1
    32     1    31    1
    33    31    32   ar
    34    32    33   ar
    35    33    34   ar
    36    34    35   ar
    37    35    36   ar
    38    31    36   ar
    39    35    37    1
    40    34    38    1
    41    38    39    1
    42    39    40    1
    43    40    41    1
    44    33    41    1
    45    39    42    1
    46    42    43    1
    47    43    44    1
    48    44    45    1
    49    45    46    1
    50    46    47    1
    51    47    48    1
    52    48    49    1
    53    49    50    1
    54    50    51    1
    55    51    52    1
    56    52    53    1
    57    53    54    1
    58    53    55    1
    59    49    56    1
    60    45    57    1
    61    39    58    1
    62     7    59    1
    63     7    60    1
    64     8    61    1
    65     8    62    1
    66     9    63    1
    67     9    64    1
    68    10    65    1
    69    10    66    1
    70    11    67    1
    71    11    68    1
    72    12    69    1
    73    13    70    1
    74    13    71    1
    75    14    72    1
    76    14    73    1
    77    15    74    1
    78    15    75    1
    79    16    76    1
    80    17    77    1
    81    17    78    1
    82    18    79    1
    83    18    80    1
    84    19    81    1
    85    19    82    1
    86    20    83    1
    87    21    84    1
    88    21    85    1
    89    21    86    1
    90    22    87    1
    91    22    88    1
    92    22    89    1
    93    23    90    1
    94    23    91    1
    95    23    92    1
    96    24    93    1
    97    24    94    1
    98    24    95    1
    99    25    96    1
   100    25    97    1
   101    25    98    1
   102    27    99    1
   103    29   100    1
   104    30   101    1
   105    30   102    1
   106    30   103    1
   107    32   104    1
   108    36   105    1
   109    37   106    1
   110    37   107    1
   111    37   108    1
   112    40   109    1
   113    40   110    1
   114    41   111    1
   115    41   112    1
   116    42   113    1
   117    42   114    1
   118    43   115    1
   119    43   116    1
   120    44   117    1
   121    44   118    1
   122    45   119    1
   123    46   120    1
   124    46   121    1
   125    47   122    1
   126    47   123    1
   127    48   124    1
   128    48   125    1
   129    49   126    1
   130    50   127    1
   131    50   128    1
   132    51   129    1
   133    51   130    1
   134    52   131    1
   135    52   132    1
   136    53   133    1
   137    54   134    1
   138    54   135    1
   139    54   136    1
   140    55   137    1
   141    55   138    1
   142    55   139    1
   143    56   140    1
   144    56   141    1
   145    56   142    1
   146    57   143    1
   147    57   144    1
   148    57   145    1
   149    58   146    1
   150    58   147    1
   151    58   148    1
