@<TRIPOS>MOLECULE
NuBBE_2058
 39 40 0 0 0
SMALL
GASTEIGER

@<TRIPOS>ATOM
      1 O          -6.5753    2.0981   -1.3488 O.2     1  LIG1       -0.2452
      2 C          -5.3664    2.2479   -1.1794 C.ar    1  LIG1        0.3372
      3 O          -4.4514    1.2207   -1.3794 O.2     1  LIG1       -0.4220
      4 C          -3.0839    1.3974   -1.0824 C.ar    1  LIG1        0.1428
      5 C          -2.2300    0.3047   -1.2307 C.ar    1  LIG1        0.0267
      6 C          -0.8747    0.4237   -0.8870 C.ar    1  LIG1        0.1655
      7 O          -0.1595   -0.7396   -1.0559 O.3     1  LIG1       -0.4855
      8 C           0.9717   -0.9334   -0.1863 C.3     1  LIG1        0.1183
      9 C           1.2370   -2.4474   -0.0470 C.3     1  LIG1        0.1171
     10 O           1.5332   -3.0104   -1.3339 O.3     1  LIG1       -0.3856
     11 C           2.3799   -2.7753    0.9550 C.3     1  LIG1        0.0894
     12 C           3.7265   -2.1657    0.5438 C.3     1  LIG1       -0.0338
     13 O           2.0319   -2.2450    2.2421 O.3     1  LIG1       -0.3865
     14 C           2.5463   -4.2948    1.1007 C.3     1  LIG1       -0.0338
     15 C          -0.3834    1.6661   -0.4368 C.ar    1  LIG1        0.1623
     16 C          -1.2604    2.7589   -0.3272 C.ar    1  LIG1       -0.0056
     17 C          -2.6133    2.6249   -0.6371 C.ar    1  LIG1        0.0213
     18 C          -3.5319    3.7430   -0.5117 C.ar    1  LIG1       -0.0442
     19 C          -4.8288    3.5539   -0.7617 C.ar    1  LIG1        0.0236
     20 O           0.9604    1.8047   -0.1986 O.3     1  LIG1       -0.4914
     21 C           1.3185    2.7382    0.8185 C.3     1  LIG1        0.0790
     22 H          -2.6185   -0.6428   -1.5944 H       1  LIG1        0.0692
     23 H           0.7771   -0.5115    0.8055 H       1  LIG1        0.0724
     24 H           1.8355   -0.4552   -0.6583 H       1  LIG1        0.0724
     25 H           0.3075   -2.9190    0.2991 H       1  LIG1        0.0656
     26 H           0.8750   -2.6354   -1.9492 H       1  LIG1        0.2100
     27 H           3.6728   -1.0738    0.4869 H       1  LIG1        0.0258
     28 H           4.0732   -2.5516   -0.4198 H       1  LIG1        0.0258
     29 H           4.4945   -2.3832    1.2959 H       1  LIG1        0.0258
     30 H           2.7493   -2.4726    2.8595 H       1  LIG1        0.2102
     31 H           2.8471   -4.7659    0.1591 H       1  LIG1        0.0258
     32 H           1.6132   -4.7583    1.4395 H       1  LIG1        0.0258
     33 H           3.3026   -4.5350    1.8573 H       1  LIG1        0.0258
     34 H          -0.8999    3.7342   -0.0192 H       1  LIG1        0.0662
     35 H          -3.1525    4.7128   -0.2098 H       1  LIG1        0.0627
     36 H          -5.5508    4.3574   -0.6645 H       1  LIG1        0.0689
     37 H           0.7779    2.5360    1.7499 H       1  LIG1        0.0660
     38 H           1.1620    3.7708    0.4906 H       1  LIG1        0.0660
     39 H           2.3880    2.6226    1.0158 H       1  LIG1        0.0660
@<TRIPOS>BOND
     1     1     2    2
     2     2     3   ar
     3     3     4   ar
     4     4     5   ar
     5     5     6   ar
     6     6     7    1
     7     7     8    1
     8     8     9    1
     9     9    10    1
    10     9    11    1
    11    11    12    1
    12    11    13    1
    13    11    14    1
    14     6    15   ar
    15    15    16   ar
    16    16    17   ar
    17     4    17   ar
    18    17    18   ar
    19    18    19   ar
    20     2    19   ar
    21    15    20    1
    22    20    21    1
    23     5    22    1
    24     8    23    1
    25     8    24    1
    26     9    25    1
    27    10    26    1
    28    12    27    1
    29    12    28    1
    30    12    29    1
    31    13    30    1
    32    14    31    1
    33    14    32    1
    34    14    33    1
    35    16    34    1
    36    18    35    1
    37    19    36    1
    38    21    37    1
    39    21    38    1
    40    21    39    1
