@<TRIPOS>MOLECULE
NuBBE_2416
 33 35 0 0 0
SMALL
GASTEIGER

@<TRIPOS>ATOM
      1 O          -1.3689   -1.4896   -0.0677 O.2     1  LIG1       -0.2864
      2 C          -0.1478   -1.4371   -0.1269 C.ar    1  LIG1        0.2001
      3 C           0.6145   -0.1500   -0.2078 C.ar    1  LIG1        0.0644
      4 C           1.9541   -0.2587   -0.2490 C.ar    1  LIG1        0.1038
      5 O           2.6999   -1.4122   -0.2494 O.2     1  LIG1       -0.4620
      6 C           2.0309   -2.6047   -0.1874 C.ar    1  LIG1        0.1419
      7 C           0.6437   -2.6832   -0.1202 C.ar    1  LIG1        0.0648
      8 C           0.0126   -3.9319   -0.0483 C.ar    1  LIG1       -0.0439
      9 C           0.7788   -5.1000   -0.0471 C.ar    1  LIG1       -0.0193
     10 C           2.1665   -5.0061   -0.1186 C.ar    1  LIG1        0.1204
     11 C           2.7985   -3.7687   -0.1888 C.ar    1  LIG1        0.0228
     12 O           2.9533   -6.1193   -0.1216 O.3     1  LIG1       -0.5066
     13 C          -0.0426    1.1822   -0.2193 C.ar    1  LIG1       -0.0076
     14 C          -1.2262    1.4189    0.4976 C.ar    1  LIG1       -0.0086
     15 C          -1.8530    2.6747    0.4801 C.ar    1  LIG1        0.1590
     16 O          -3.0275    2.8237    1.1663 O.3     1  LIG1       -0.5033
     17 C          -1.2983    3.7340   -0.2405 C.ar    1  LIG1        0.1613
     18 C          -0.1305    3.5027   -0.9698 C.ar    1  LIG1       -0.0157
     19 C           0.4888    2.2479   -0.9626 C.ar    1  LIG1       -0.0501
     20 O          -1.7828    5.0064   -0.3728 O.3     1  LIG1       -0.4915
     21 C          -2.6046    5.4930    0.6799 C.3     1  LIG1        0.0790
     22 H           2.6333    0.5850   -0.2831 H       1  LIG1        0.1037
     23 H          -1.0725   -3.9953    0.0060 H       1  LIG1        0.0627
     24 H           0.2800   -6.0629    0.0087 H       1  LIG1        0.0654
     25 H           3.8819   -3.7138   -0.2435 H       1  LIG1        0.0691
     26 H           2.3875   -6.9076   -0.0710 H       1  LIG1        0.2921
     27 H          -1.6725    0.6141    1.0766 H       1  LIG1        0.0661
     28 H          -3.3297    1.9488    1.4630 H       1  LIG1        0.2923
     29 H           0.3050    4.3124   -1.5514 H       1  LIG1        0.0655
     30 H           1.3889    2.1246   -1.5604 H       1  LIG1        0.0625
     31 H          -2.6729    6.5799    0.5660 H       1  LIG1        0.0660
     32 H          -2.1663    5.2943    1.6631 H       1  LIG1        0.0660
     33 H          -3.6220    5.0985    0.5999 H       1  LIG1        0.0660
@<TRIPOS>BOND
     1     1     2    2
     2     2     3   ar
     3     3     4   ar
     4     4     5   ar
     5     5     6   ar
     6     6     7   ar
     7     2     7   ar
     8     7     8   ar
     9     8     9   ar
    10     9    10   ar
    11    10    11   ar
    12     6    11   ar
    13    10    12    1
    14     3    13    1
    15    13    14   ar
    16    14    15   ar
    17    15    16    1
    18    15    17   ar
    19    17    18   ar
    20    18    19   ar
    21    13    19   ar
    22    17    20    1
    23    20    21    1
    24     4    22    1
    25     8    23    1
    26     9    24    1
    27    11    25    1
    28    12    26    1
    29    14    27    1
    30    16    28    1
    31    18    29    1
    32    19    30    1
    33    21    31    1
    34    21    32    1
    35    21    33    1
