REMARK  Name = NuBBE_1240
REMARK  4 active torsions:
REMARK  status: ('A' for Active; 'I' for Inactive)
REMARK    1  A    between atoms: C_4  and  C_5
REMARK    2  A    between atoms: N_11  and  C_12
REMARK    3  A    between atoms: C_15  and  O_16
REMARK    4  A    between atoms: O_16  and  C_17
REMARK                            x       y       z     vdW  Elec       q    Type
REMARK                         _______ _______ _______ _____ _____    ______ ____
ROOT
ATOM      1  O   LIG A   1      -3.587   0.589  -0.575  0.00  0.00    -0.287 OA
ATOM      2  C   LIG A   1      -2.388   0.441  -0.370  0.00  0.00    +0.190 A 
ATOM      3  C   LIG A   1      -1.499   1.611  -0.280  0.00  0.00    +0.077 A 
ATOM      4  C   LIG A   1      -0.201   1.419  -0.004  0.00  0.00    +0.053 A 
ATOM      5  N   LIG A   1       0.385   0.170   0.218  0.00  0.00    -0.343 N 
ATOM      6  C   LIG A   1       1.790  -0.015   0.596  0.00  0.00    +0.149 C 
ATOM      7  C   LIG A   1      -0.399  -1.005   0.052  0.00  0.00    +0.056 A 
ATOM      8  C   LIG A   1       0.125  -2.307   0.143  0.00  0.00    +0.072 A 
ATOM      9  C   LIG A   1      -0.675  -3.449  -0.025  0.00  0.00    +0.122 A 
ATOM     10  C   LIG A   1      -2.034  -3.306  -0.289  0.00  0.00    +0.046 A 
ATOM     11  C   LIG A   1      -2.585  -2.030  -0.393  0.00  0.00    +0.017 A 
ATOM     12  C   LIG A   1      -1.774  -0.897  -0.229  0.00  0.00    +0.045 A 
ENDROOT
BRANCH   4  13
ATOM     13  C   LIG A   1       0.630   2.638   0.026  0.00  0.00    -0.001 A 
ATOM     14  C   LIG A   1       1.266   3.081  -1.143  0.00  0.00    +0.010 A 
ATOM     15  C   LIG A   1       2.049   4.235  -1.123  0.00  0.00    +0.001 A 
ATOM     16  C   LIG A   1       2.203   4.953   0.063  0.00  0.00    +0.000 A 
ATOM     17  C   LIG A   1       1.571   4.521   1.229  0.00  0.00    +0.001 A 
ATOM     18  C   LIG A   1       0.783   3.369   1.211  0.00  0.00    +0.010 A 
ENDBRANCH   4  13
BRANCH   9  19
ATOM     19  O   LIG A   1      -0.001  -4.635   0.093  0.00  0.00    -0.495 OA
ATOM     20  C   LIG A   1      -0.760  -5.827  -0.075  0.00  0.00    +0.277 C 
ENDBRANCH   9  19
TORSDOF 2
