REMARK  Name = NuBBE_2
REMARK  12 active torsions:
REMARK  status: ('A' for Active; 'I' for Inactive)
REMARK    1  A    between atoms: C_2  and  C_3
REMARK    2  A    between atoms: C_2  and  O_21
REMARK    3  A    between atoms: C_5  and  O_6
REMARK    4  A    between atoms: C_7  and  O_10
REMARK    5  A    between atoms: O_10  and  C_11
REMARK    6  A    between atoms: C_11  and  C_12
REMARK    7  A    between atoms: C_13  and  C_14
REMARK    8  A    between atoms: C_13  and  C_20
REMARK    9  A    between atoms: C_14  and  C_15
REMARK   10  A    between atoms: C_15  and  C_16
REMARK   11  A    between atoms: C_17  and  C_18
REMARK   12  A    between atoms: C_17  and  C_19
REMARK                            x       y       z     vdW  Elec       q    Type
REMARK                         _______ _______ _______ _____ _____    ______ ____
ROOT
ATOM      1  C   LIG A   1      -3.823  -2.213   2.481  0.00  0.00    +0.062 A 
ATOM      2  C   LIG A   1      -2.908  -2.368   3.529  0.00  0.00    +0.064 A 
ATOM      3  C   LIG A   1      -1.587  -2.703   3.244  0.00  0.00    +0.159 A 
ATOM      4  C   LIG A   1      -1.129  -2.853   1.927  0.00  0.00    +0.162 A 
ATOM      5  C   LIG A   1      -2.042  -2.691   0.884  0.00  0.00    +0.050 A 
ATOM      6  C   LIG A   1      -3.376  -2.364   1.159  0.00  0.00    +0.019 A 
ENDROOT
BRANCH   1   8
ATOM      7  O   LIG A   1      -5.936  -1.292   1.883  0.00  0.00    -0.245 OA
ATOM      8  C   LIG A   1      -5.240  -1.871   2.727  0.00  0.00    +0.337 C 
BRANCH   8   9
ATOM      9  O   LIG A   1      -5.732  -2.271   3.917  0.00  0.00    -0.477 OA
ATOM     10  H   LIG A   1      -5.135  -2.820   4.458  0.00  0.00    +0.295 HD
ENDBRANCH   8   9
ENDBRANCH   1   8
BRANCH   3  11
ATOM     11  O   LIG A   1      -0.765  -2.856   4.328  0.00  0.00    -0.503 OA
ATOM     12  H   LIG A   1       0.096  -3.164   3.991  0.00  0.00    +0.292 HD
ENDBRANCH   3  11
BRANCH   4  13
ATOM     13  O   LIG A   1       0.199  -3.148   1.766  0.00  0.00    -0.484 OA
BRANCH  13  14
ATOM     14  C   LIG A   1       0.818  -2.781   0.517  0.00  0.00    +0.257 C 
BRANCH  14  15
ATOM     15  C   LIG A   1       0.975  -1.286   0.403  0.00  0.00    +0.012 C 
ATOM     16  C   LIG A   1       1.083  -0.524  -0.709  0.00  0.00    -0.073 C 
ATOM     17  C   LIG A   1       0.918  -1.042  -2.113  0.00  0.00    +0.038 C 
BRANCH  16  18
ATOM     18  C   LIG A   1       1.538   0.929  -0.556  0.00  0.00    +0.034 C 
BRANCH  18  19
ATOM     19  C   LIG A   1       1.037   1.941  -1.603  0.00  0.00    +0.031 C 
BRANCH  19  20
ATOM     20  C   LIG A   1       1.613   3.324  -1.369  0.00  0.00    -0.028 C 
ATOM     21  C   LIG A   1       2.365   4.037  -2.234  0.00  0.00    -0.080 C 
ATOM     22  C   LIG A   1       2.705   3.591  -3.630  0.00  0.00    +0.038 C 
ATOM     23  C   LIG A   1       2.988   5.359  -1.856  0.00  0.00    +0.038 C 
ENDBRANCH  19  20
ENDBRANCH  18  19
ENDBRANCH  16  18
ENDBRANCH  14  15
ENDBRANCH  13  14
ENDBRANCH   4  13
TORSDOF 9
