REMARK  Name = NuBBE_1583
REMARK  10 active torsions:
REMARK  status: ('A' for Active; 'I' for Inactive)
REMARK    1  A    between atoms: C_1  and  C_2
REMARK    2  A    between atoms: C_6  and  C_10
REMARK    3  A    between atoms: C_13  and  C_18
REMARK    4  A    between atoms: C_16  and  O_17
REMARK    5  A    between atoms: C_20  and  C_22
REMARK    6  A    between atoms: C_20  and  C_23
REMARK    7  A    between atoms: C_28  and  C_29
REMARK    8  A    between atoms: C_33  and  O_35
REMARK    9  A    between atoms: C_36  and  C_37
REMARK   10  A    between atoms: C_36  and  C_38
REMARK                            x       y       z     vdW  Elec       q    Type
REMARK                         _______ _______ _______ _____ _____    ______ ____
ROOT
ATOM      1  C   LIG A   1      -0.765  -2.388   0.766  0.00  0.00    +0.014 C 
ATOM      2  C   LIG A   1      -0.337  -1.429  -0.377  0.00  0.00    +0.003 C 
ATOM      3  C   LIG A   1       0.471  -0.247   0.246  0.00  0.00    -0.015 C 
ATOM      4  C   LIG A   1      -0.304   0.838   0.939  0.00  0.00    -0.019 C 
ATOM      5  C   LIG A   1       0.434   1.157  -0.347  0.00  0.00    +0.016 C 
ATOM      6  C   LIG A   1       0.366   1.070   2.306  0.00  0.00    +0.004 C 
ATOM      7  C   LIG A   1       1.814   0.581   2.097  0.00  0.00    +0.005 C 
ATOM      8  C   LIG A   1       1.704  -0.568   1.082  0.00  0.00    +0.008 C 
ATOM      9  C   LIG A   1      -1.811   0.762   0.929  0.00  0.00    +0.008 C 
ATOM     10  C   LIG A   1      -2.448   0.120  -0.314  0.00  0.00    +0.005 C 
ATOM     11  C   LIG A   1      -1.573  -0.850  -1.157  0.00  0.00    +0.004 C 
ATOM     12  C   LIG A   1      -2.396  -1.882  -2.044  0.00  0.00    -0.025 C 
ATOM     13  C   LIG A   1      -3.216  -2.858  -1.169  0.00  0.00    +0.012 C 
ATOM     14  C   LIG A   1      -1.375  -2.601  -3.004  0.00  0.00    +0.010 C 
ATOM     15  C   LIG A   1      -0.215  -3.251  -2.209  0.00  0.00    +0.036 C 
ATOM     16  C   LIG A   1       0.565  -2.220  -1.375  0.00  0.00    +0.122 C 
ATOM     17  C   LIG A   1      -2.004  -3.514  -4.115  0.00  0.00    +0.027 C 
ATOM     18  C   LIG A   1      -0.920  -3.888  -5.157  0.00  0.00    +0.019 C 
ATOM     19  C   LIG A   1      -2.623  -4.825  -3.613  0.00  0.00    +0.019 C 
ATOM     20  C   LIG A   1      -3.098  -2.716  -4.849  0.00  0.00    +0.139 C 
ATOM     21  O   LIG A   1      -3.279  -2.812  -6.063  0.00  0.00    -0.297 OA
ATOM     22  C   LIG A   1      -4.073  -1.916  -4.015  0.00  0.00    +0.075 C 
ATOM     23  C   LIG A   1      -3.380  -1.081  -2.947  0.00  0.00    +0.015 C 
ENDROOT
BRANCH   6  24
ATOM     24  C   LIG A   1       0.174   2.497   2.853  0.00  0.00    +0.051 C 
ATOM     25  C   LIG A   1       0.736   3.644   2.022  0.00  0.00    +0.043 C 
ATOM     26  C   LIG A   1       1.776   4.318   2.901  0.00  0.00    +0.153 C 
ATOM     27  O   LIG A   1       1.382   4.030   4.247  0.00  0.00    -0.345 OA
ATOM     28  C   LIG A   1       0.699   2.779   4.266  0.00  0.00    +0.251 C 
BRANCH  26  29
ATOM     29  C   LIG A   1       3.176   3.855   2.595  0.00  0.00    +0.179 C 
ATOM     30  C   LIG A   1       4.406   4.285   3.381  0.00  0.00    +0.093 C 
ATOM     31  O   LIG A   1       3.803   2.995   3.561  0.00  0.00    -0.363 OA
ATOM     32  C   LIG A   1       5.739   4.235   2.699  0.00  0.00    +0.044 C 
ATOM     33  C   LIG A   1       4.299   5.190   4.568  0.00  0.00    +0.044 C 
ENDBRANCH  26  29
BRANCH  28  34
ATOM     34  O   LIG A   1       1.573   1.798   4.772  0.00  0.00    -0.367 OA
ATOM     35  H   LIG A   1       2.462   2.127   4.531  0.00  0.00    +0.212 HD
ENDBRANCH  28  34
ENDBRANCH   6  24
BRANCH  16  36
ATOM     36  O   LIG A   1       1.196  -1.339  -2.315  0.00  0.00    -0.391 OA
ATOM     37  H   LIG A   1       1.721  -0.698  -1.808  0.00  0.00    +0.210 HD
ENDBRANCH  16  36
TORSDOF 4
