@<TRIPOS>MOLECULE
NuBBE_1821
 85 88 0 0 0
SMALL
GASTEIGER

@<TRIPOS>ATOM
      1 O           0.9028    0.6175    2.1441 O.3     1  LIG1       -0.4249
      2 C           0.0119    1.5587    1.6014 C.2     1  LIG1        0.3092
      3 O           0.2658    2.4363    0.7901 O.2     1  LIG1       -0.2507
      4 C          -1.3670    1.2228    2.0722 C.3     1  LIG1        0.0336
      5 C           2.1024    0.4229    1.4224 C.ar    1  LIG1        0.1491
      6 C           2.0322    0.2141    0.0031 C.ar    1  LIG1        0.0668
      7 C           3.2738    0.2926   -0.6640 C.ar    1  LIG1       -0.0067
      8 C           4.4849    0.3655    0.0247 C.ar    1  LIG1       -0.0426
      9 C           4.5105    0.4922    1.4094 C.ar    1  LIG1        0.0297
     10 C           3.3224    0.5345    2.1440 C.ar    1  LIG1        0.0345
     11 C           3.3890    0.7818    3.6361 C.3     1  LIG1        0.0858
     12 C           2.9959    2.2091    4.0149 C.3     1  LIG1       -0.0343
     13 O           4.6833    0.4612    4.1809 O.3     1  LIG1       -0.3613
     14 C           5.7719    1.1083    3.5277 C.3     1  LIG1        0.1190
     15 C           5.8214    0.7285    2.0589 C.2     1  LIG1        0.1918
     16 O           6.8572    0.6950    1.3996 O.2     1  LIG1       -0.2893
     17 C           7.0669    0.7036    4.2221 C.3     1  LIG1       -0.0314
     18 C           3.3270    0.4069   -2.0440 C.ar    1  LIG1       -0.0111
     19 C           2.1606    0.5691   -2.7742 C.ar    1  LIG1        0.1357
     20 C           0.9229    0.3321   -2.1830 C.ar    1  LIG1        0.0234
     21 C           0.8561    0.0327   -0.8172 C.ar    1  LIG1        0.1388
     22 O          -0.3329   -0.3443   -0.2064 O.3     1  LIG1       -0.4588
     23 C          -1.2877   -1.0907   -0.9994 C.3     1  LIG1        0.2432
     24 C          -2.1395   -2.0583   -0.1284 C.3     1  LIG1        0.2048
     25 O          -1.3177   -2.5803    0.9452 O.3     1  LIG1       -0.4513
     26 C          -0.5748   -3.6740    0.6391 C.2     1  LIG1        0.3045
     27 O          -0.7922   -4.4319   -0.3029 O.2     1  LIG1       -0.2512
     28 C           0.5801   -3.8019    1.5798 C.3     1  LIG1        0.0332
     29 C          -3.4015   -1.4055    0.4602 C.3     1  LIG1        0.1848
     30 O          -4.1608   -2.4328    1.1305 O.3     1  LIG1       -0.4537
     31 C          -3.9712   -2.5275    2.4743 C.2     1  LIG1        0.3044
     32 O          -3.8166   -1.6107    3.2635 O.2     1  LIG1       -0.2512
     33 C          -3.8011   -3.9901    2.8253 C.3     1  LIG1        0.0332
     34 C          -4.2078   -0.6709   -0.6342 C.3     1  LIG1        0.1726
     35 C          -3.2319    0.3758   -1.2485 C.3     1  LIG1        0.1371
     36 O          -2.0930   -0.2678   -1.8441 O.3     1  LIG1       -0.3282
     37 C          -3.8666    1.2499   -2.3435 C.3     1  LIG1        0.1223
     38 O          -2.9407    2.2019   -2.9213 O.3     1  LIG1       -0.4621
     39 C          -2.5837    3.2609   -2.1517 C.2     1  LIG1        0.3040
     40 O          -2.8325    3.3774   -0.9519 O.2     1  LIG1       -0.2512
     41 C          -1.9850    4.3423   -2.9978 C.3     1  LIG1        0.0332
     42 O          -4.7086   -1.5040   -1.7208 O.3     1  LIG1       -0.4549
     43 C          -5.8644   -2.1886   -1.5564 C.2     1  LIG1        0.3044
     44 O          -6.2895   -2.6554   -0.4835 O.2     1  LIG1       -0.2512
     45 C          -6.6802   -2.1550   -2.8163 C.3     1  LIG1        0.0332
     46 O           2.2151    0.8759   -4.1471 O.3     1  LIG1       -0.4259
     47 C           3.2619    1.6867   -4.6148 C.2     1  LIG1        0.3092
     48 O           4.0027    2.3983   -3.9532 O.2     1  LIG1       -0.2507
     49 C           3.3661    1.5309   -6.0997 C.3     1  LIG1        0.0336
     50 H          -1.8564    2.0874    2.5112 H       1  LIG1        0.0342
     51 H          -1.3510    0.3832    2.7712 H       1  LIG1        0.0342
     52 H          -1.9298    0.9046    1.2054 H       1  LIG1        0.0342
     53 H           5.4243    0.4125   -0.5280 H       1  LIG1        0.0631
     54 H           2.7044    0.0873    4.1369 H       1  LIG1        0.0645
     55 H           3.5543    2.9505    3.4331 H       1  LIG1        0.0258
     56 H           3.2074    2.4012    5.0722 H       1  LIG1        0.0258
     57 H           1.9324    2.3903    3.8367 H       1  LIG1        0.0258
     58 H           5.6708    2.1971    3.5989 H       1  LIG1        0.0676
     59 H           7.2315   -0.3772    4.1493 H       1  LIG1        0.0259
     60 H           7.0294    0.9544    5.2869 H       1  LIG1        0.0259
     61 H           7.9332    1.2076    3.7784 H       1  LIG1        0.0259
     62 H           4.2911    0.4873   -2.5386 H       1  LIG1        0.0660
     63 H           0.0210    0.4263   -2.7768 H       1  LIG1        0.0691
     64 H          -0.7044   -1.7368   -1.6642 H       1  LIG1        0.1097
     65 H          -2.4917   -2.8781   -0.7696 H       1  LIG1        0.0837
     66 H           0.2728   -4.2810    2.5112 H       1  LIG1        0.0342
     67 H           0.9966   -2.8097    1.7791 H       1  LIG1        0.0342
     68 H           1.3654   -4.3928    1.0988 H       1  LIG1        0.0342
     69 H          -3.1184   -0.6701    1.2120 H       1  LIG1        0.0813
     70 H          -4.5915   -4.5846    2.3631 H       1  LIG1        0.0342
     71 H          -3.8367   -4.1299    3.9083 H       1  LIG1        0.0342
     72 H          -2.8231   -4.3208    2.4628 H       1  LIG1        0.0342
     73 H          -5.0726   -0.1598   -0.1922 H       1  LIG1        0.0801
     74 H          -2.8931    1.0462   -0.4626 H       1  LIG1        0.0670
     75 H          -4.7386    1.7989   -1.9720 H       1  LIG1        0.0725
     76 H          -4.1917    0.6305   -3.1847 H       1  LIG1        0.0725
     77 H          -1.6631    3.9425   -3.9640 H       1  LIG1        0.0342
     78 H          -1.1160    4.7754   -2.4984 H       1  LIG1        0.0342
     79 H          -2.7455    5.1100   -3.1745 H       1  LIG1        0.0342
     80 H          -6.0357   -2.1219   -3.6937 H       1  LIG1        0.0342
     81 H          -7.3145   -1.2596   -2.7902 H       1  LIG1        0.0342
     82 H          -7.3217   -3.0402   -2.8930 H       1  LIG1        0.0342
     83 H           3.3897    0.4670   -6.3498 H       1  LIG1        0.0342
     84 H           4.3054    1.9749   -6.4449 H       1  LIG1        0.0342
     85 H           2.5277    2.0320   -6.5840 H       1  LIG1        0.0342
@<TRIPOS>BOND
     1     1     2    1
     2     2     3    2
     3     2     4    1
     4     1     5    1
     5     5     6   ar
     6     6     7   ar
     7     7     8   ar
     8     8     9   ar
     9     9    10   ar
    10     5    10   ar
    11    10    11    1
    12    11    12    1
    13    11    13    1
    14    13    14    1
    15    14    15    1
    16     9    15    1
    17    15    16    2
    18    14    17    1
    19     7    18   ar
    20    18    19   ar
    21    19    20   ar
    22    20    21   ar
    23     6    21   ar
    24    21    22    1
    25    22    23    1
    26    23    24    1
    27    24    25    1
    28    25    26    1
    29    26    27    2
    30    26    28    1
    31    24    29    1
    32    29    30    1
    33    30    31    1
    34    31    32    2
    35    31    33    1
    36    29    34    1
    37    34    35    1
    38    35    36    1
    39    23    36    1
    40    35    37    1
    41    37    38    1
    42    38    39    1
    43    39    40    2
    44    39    41    1
    45    34    42    1
    46    42    43    1
    47    43    44    2
    48    43    45    1
    49    19    46    1
    50    46    47    1
    51    47    48    2
    52    47    49    1
    53     4    50    1
    54     4    51    1
    55     4    52    1
    56     8    53    1
    57    11    54    1
    58    12    55    1
    59    12    56    1
    60    12    57    1
    61    14    58    1
    62    17    59    1
    63    17    60    1
    64    17    61    1
    65    18    62    1
    66    20    63    1
    67    23    64    1
    68    24    65    1
    69    28    66    1
    70    28    67    1
    71    28    68    1
    72    29    69    1
    73    33    70    1
    74    33    71    1
    75    33    72    1
    76    34    73    1
    77    35    74    1
    78    37    75    1
    79    37    76    1
    80    41    77    1
    81    41    78    1
    82    41    79    1
    83    45    80    1
    84    45    81    1
    85    45    82    1
    86    49    83    1
    87    49    84    1
    88    49    85    1
