@<TRIPOS>MOLECULE
NuBBE_1423
 59 63 0 0 0
SMALL
GASTEIGER

@<TRIPOS>ATOM
      1 O           3.6834   -0.2118    1.8097 O.3     1  LIG1       -0.4914
      2 C           4.3044   -1.1737    2.6483 C.3     1  LIG1        0.0790
      3 C           2.4160   -0.4636    1.3487 C.ar    1  LIG1        0.1619
      4 C           1.8459    0.6653    0.7279 C.ar    1  LIG1       -0.0107
      5 C           0.5546    0.6418    0.1848 C.ar    1  LIG1       -0.0149
      6 C          -0.1502   -0.5638    0.2463 C.ar    1  LIG1       -0.0524
      7 C           0.3998   -1.6925    0.8597 C.ar    1  LIG1       -0.0159
      8 C           1.6836   -1.6608    1.4191 C.ar    1  LIG1        0.1624
      9 O           2.2786   -2.7778    1.9392 O.3     1  LIG1       -0.4843
     10 C           1.4267   -3.7604    2.5257 C.3     1  LIG1        0.1082
     11 C           2.2927   -4.8745    3.0353 C.2     1  LIG1       -0.0484
     12 C           1.9627   -6.1866    3.1191 C.2     1  LIG1       -0.0765
     13 C           0.6335   -6.7560    2.7545 C.3     1  LIG1       -0.0439
     14 C           2.9545   -7.2007    3.6306 C.3     1  LIG1       -0.0439
     15 C          -0.0873    1.8151   -0.5182 C.3     1  LIG1        0.0891
     16 H          -1.1742    1.6623   -0.5069 H       1  LIG1        0.0650
     17 C           0.2327    3.2149    0.0087 C.3     1  LIG1        0.0205
     18 H           1.2314    3.2812    0.4486 H       1  LIG1        0.0356
     19 C           0.1253    4.0608   -1.2331 C.3     1  LIG1        0.0205
     20 H           0.7518    4.9575   -1.1443 H       1  LIG1        0.0356
     21 C           0.6614    3.1297   -2.2925 C.3     1  LIG1        0.0544
     22 O           0.3098    1.7985   -1.9038 O.3     1  LIG1       -0.3712
     23 C          -1.3480    4.5018   -1.2475 C.3     1  LIG1        0.0891
     24 H          -1.3925    5.5550   -1.5529 H       1  LIG1        0.0650
     25 O          -1.7647    4.4869    0.1412 O.3     1  LIG1       -0.3712
     26 C          -0.8062    3.7822    0.9389 C.3     1  LIG1        0.0544
     27 C          -2.3804    3.7833   -2.1082 C.ar    1  LIG1       -0.0149
     28 C          -2.2899    3.8237   -3.5129 C.ar    1  LIG1       -0.0105
     29 C          -3.2769    3.2129   -4.2642 C.ar    1  LIG1        0.1666
     30 C          -4.3572    2.5983   -3.6819 C.ar    1  LIG1        0.1662
     31 C          -4.5066    2.5535   -2.3161 C.ar    1  LIG1       -0.0158
     32 C          -3.5115    3.1499   -1.5310 C.ar    1  LIG1       -0.0524
     33 O          -5.2212    2.0841   -4.5968 O.3     1  LIG1       -0.4526
     34 C          -4.5421    2.4160   -5.8254 C.3     1  LIG1        0.2332
     35 O          -3.3200    3.1572   -5.6233 O.3     1  LIG1       -0.4526
     36 H           4.5517   -2.0829    2.0927 H       1  LIG1        0.0660
     37 H           3.6975   -1.3839    3.5354 H       1  LIG1        0.0660
     38 H           5.2510   -0.7468    2.9951 H       1  LIG1        0.0660
     39 H           2.4582    1.5621    0.6652 H       1  LIG1        0.0659
     40 H          -1.1331   -0.6452   -0.2160 H       1  LIG1        0.0622
     41 H          -0.1980   -2.5964    0.8408 H       1  LIG1        0.0655
     42 H           0.7285   -4.1493    1.7841 H       1  LIG1        0.0742
     43 H           0.8877   -3.3158    3.3715 H       1  LIG1        0.0742
     44 H           3.2955   -4.5686    3.3469 H       1  LIG1        0.0605
     45 H          -0.0577   -6.0339    2.3039 H       1  LIG1        0.0274
     46 H           0.1341   -7.1646    3.6397 H       1  LIG1        0.0274
     47 H           0.7474   -7.5741    2.0259 H       1  LIG1        0.0274
     48 H           3.9170   -6.7434    3.8932 H       1  LIG1        0.0274
     49 H           3.1464   -7.9612    2.8681 H       1  LIG1        0.0274
     50 H           2.5615   -7.6927    4.5242 H       1  LIG1        0.0274
     51 H           1.7569    3.1714   -2.3145 H       1  LIG1        0.0564
     52 H           0.3211    3.3353   -3.3070 H       1  LIG1        0.0564
     53 H          -1.3139    3.0188    1.5369 H       1  LIG1        0.0564
     54 H          -0.3603    4.5073    1.6281 H       1  LIG1        0.0564
     55 H          -1.4780    4.3322   -4.0220 H       1  LIG1        0.0659
     56 H          -5.3716    2.0830   -1.8623 H       1  LIG1        0.0655
     57 H          -3.6385    3.1378   -0.4498 H       1  LIG1        0.0622
     58 H          -5.2155    3.0149   -6.4496 H       1  LIG1        0.1166
     59 H          -4.3079    1.4862   -6.3577 H       1  LIG1        0.1166
@<TRIPOS>BOND
     1     1     2    1
     2     1     3    1
     3     3     4   ar
     4     4     5   ar
     5     5     6   ar
     6     6     7   ar
     7     7     8   ar
     8     3     8   ar
     9     8     9    1
    10     9    10    1
    11    10    11    1
    12    11    12    2
    13    12    13    1
    14    12    14    1
    15    15    17    1
    16    17    19    1
    17    19    21    1
    18    21    22    1
    19    15    22    1
    20    19    23    1
    21    23    25    1
    22    25    26    1
    23    17    26    1
    24    27    28   ar
    25    28    29   ar
    26    29    30   ar
    27    30    31   ar
    28    31    32   ar
    29    27    32   ar
    30    30    33    1
    31    33    34    1
    32    34    35    1
    33    29    35    1
    34     5    15    1
    35    15    16    1
    36    17    18    1
    37    19    20    1
    38    23    24    1
    39    23    27    1
    40     2    36    1
    41     2    37    1
    42     2    38    1
    43     4    39    1
    44     6    40    1
    45     7    41    1
    46    10    42    1
    47    10    43    1
    48    11    44    1
    49    13    45    1
    50    13    46    1
    51    13    47    1
    52    14    48    1
    53    14    49    1
    54    14    50    1
    55    21    51    1
    56    21    52    1
    57    26    53    1
    58    26    54    1
    59    28    55    1
    60    31    56    1
    61    32    57    1
    62    34    58    1
    63    34    59    1
