@<TRIPOS>MOLECULE
NuBBE_965
 32 34 0 0 0
SMALL
GASTEIGER

@<TRIPOS>ATOM
      1 C          -0.2939   -3.9220    0.8245 C.3     1  LIG1        0.0788
      2 O          -0.1223   -2.5873    1.2867 O.3     1  LIG1       -0.4937
      3 C           0.3295   -1.6785    0.3361 C.ar    1  LIG1        0.1418
      4 C           1.2108   -1.9904   -0.7235 C.ar    1  LIG1        0.0820
      5 C           1.5906   -0.9183   -1.5220 C.ar    1  LIG1        0.2312
      6 O           2.4348   -1.3222   -2.5086 O.2     1  LIG1       -0.4449
      7 C           2.6028   -2.6547   -2.3667 C.ar    1  LIG1        0.0952
      8 C           1.8855   -3.1140   -1.2857 C.ar    1  LIG1       -0.0109
      9 N           1.2096    0.3446   -1.4111 N.ar    1  LIG1       -0.2082
     10 C           0.3495    0.6464   -0.4357 C.ar    1  LIG1        0.1200
     11 C          -0.1071   -0.3221    0.4931 C.ar    1  LIG1        0.0499
     12 C          -1.0001    0.0958    1.5195 C.ar    1  LIG1       -0.0070
     13 C          -1.4482    1.4173    1.6217 C.ar    1  LIG1        0.1244
     14 O          -2.3111    1.6823    2.6517 O.3     1  LIG1       -0.4950
     15 C          -2.7297    3.0385    2.8018 C.3     1  LIG1        0.0788
     16 C          -1.0130    2.3386    0.6863 C.ar    1  LIG1        0.0239
     17 C          -0.1276    1.9606   -0.3346 C.ar    1  LIG1        0.1496
     18 O           0.1567    3.0268   -1.1672 O.3     1  LIG1       -0.4928
     19 C           0.9901    2.8064   -2.3000 C.3     1  LIG1        0.0789
     20 H          -0.9195   -4.4540    1.5471 H       1  LIG1        0.0660
     21 H           0.6646   -4.4471    0.7933 H       1  LIG1        0.0660
     22 H          -0.8017   -3.9554   -0.1457 H       1  LIG1        0.0660
     23 H           3.2456   -3.1209   -3.1003 H       1  LIG1        0.1030
     24 H           1.8586   -4.1464   -0.9746 H       1  LIG1        0.0657
     25 H          -1.3607   -0.6287    2.2490 H       1  LIG1        0.0662
     26 H          -3.3968    3.0962    3.6675 H       1  LIG1        0.0660
     27 H          -3.2958    3.3797    1.9276 H       1  LIG1        0.0660
     28 H          -1.8760    3.6973    2.9973 H       1  LIG1        0.0660
     29 H          -1.3430    3.3720    0.7053 H       1  LIG1        0.0692
     30 H           1.0340    3.7392   -2.8689 H       1  LIG1        0.0660
     31 H           0.5700    2.0497   -2.9717 H       1  LIG1        0.0660
     32 H           2.0141    2.5707   -1.9919 H       1  LIG1        0.0660
@<TRIPOS>BOND
     1     1     2    1
     2     2     3    1
     3     3     4   ar
     4     4     5   ar
     5     5     6   ar
     6     6     7   ar
     7     7     8   ar
     8     4     8   ar
     9     5     9   ar
    10     9    10   ar
    11    10    11   ar
    12     3    11   ar
    13    11    12   ar
    14    12    13   ar
    15    13    14    1
    16    14    15    1
    17    13    16   ar
    18    16    17   ar
    19    10    17   ar
    20    17    18    1
    21    18    19    1
    22     1    20    1
    23     1    21    1
    24     1    22    1
    25     7    23    1
    26     8    24    1
    27    12    25    1
    28    15    26    1
    29    15    27    1
    30    15    28    1
    31    16    29    1
    32    19    30    1
    33    19    31    1
    34    19    32    1
