REMARK  Name = NuBBE_1915
REMARK  3 active torsions:
REMARK  status: ('A' for Active; 'I' for Inactive)
REMARK    1  A    between atoms: C_1  and  C_2
REMARK    2  A    between atoms: C_3  and  C_4
REMARK    3  A    between atoms: C_3  and  C_5
REMARK                            x       y       z     vdW  Elec       q    Type
REMARK                         _______ _______ _______ _____ _____    ______ ____
ROOT
ATOM      1  C   LIG A   1      -1.999  -1.062  -0.335  0.00  0.00    +0.012 C 
ATOM      2  C   LIG A   1      -0.576  -0.661  -0.191  0.00  0.00    -0.021 C 
ATOM      3  C   LIG A   1      -0.171   0.759   0.205  0.00  0.00    -0.026 C 
ATOM      4  C   LIG A   1      -0.675   1.166   1.595  0.00  0.00    +0.012 C 
ATOM      5  C   LIG A   1      -0.627   1.812  -0.812  0.00  0.00    +0.012 C 
ATOM      6  C   LIG A   1       1.390   0.470   0.156  0.00  0.00    -0.004 C 
ATOM      7  C   LIG A   1       1.537  -0.807   1.054  0.00  0.00    +0.008 C 
ATOM      8  C   LIG A   1       0.464  -1.605   0.346  0.00  0.00    -0.000 C 
ATOM      9  C   LIG A   1       0.493  -1.213  -1.092  0.00  0.00    -0.000 C 
ATOM     10  C   LIG A   1       1.589  -0.185  -1.253  0.00  0.00    +0.008 C 
ENDROOT
TORSDOF 0
