@<TRIPOS>MOLECULE
NuBBE_472
 32 33 0 0 0
SMALL
GASTEIGER

@<TRIPOS>ATOM
      1 O          -1.5208    2.0852    2.7418 O.2     1  LIG1       -0.2452
      2 C          -0.7987    1.1827    2.3583 C.2     1  LIG1        0.3381
      3 O          -0.3418    0.1482    3.1072 O.3     1  LIG1       -0.4646
      4 C          -0.6809    0.2336    4.4882 C.3     1  LIG1        0.0820
      5 C          -0.2024    1.0876    1.0034 C.2     1  LIG1        0.0744
      6 C          -0.1858    2.2073    0.2648 C.2     1  LIG1        0.0981
      7 O           0.4294    2.3373   -0.9557 O.2     1  LIG1       -0.4705
      8 C           1.4290    1.3430   -1.1874 C.3     1  LIG1        0.2021
      9 H           2.2824    1.5442   -0.5246 H       1  LIG1        0.1056
     10 O           1.9023    1.4639   -2.5177 O.3     1  LIG1       -0.3575
     11 C           0.9160   -0.0741   -0.9367 C.3     1  LIG1        0.0335
     12 H           1.7463   -0.7779   -1.0912 H       1  LIG1        0.0370
     13 C           0.3924   -0.2095    0.5089 C.3     1  LIG1        0.0050
     14 H           1.2265   -0.4833    1.1672 H       1  LIG1        0.0358
     15 C          -0.6470   -1.3543    0.4541 C.3     1  LIG1       -0.0190
     16 C          -0.7529   -1.7699   -1.0130 C.3     1  LIG1        0.0588
     17 H          -1.7716   -2.0736   -1.2741 H       1  LIG1        0.0596
     18 O           0.1126   -2.8817   -1.2196 O.3     1  LIG1       -0.3915
     19 C          -0.2839   -0.5354   -1.7896 C.3     1  LIG1       -0.0087
     20 H          -1.0828    0.2173   -1.7591 H       1  LIG1        0.0328
     21 C           0.0490   -0.8190   -3.2471 C.3     1  LIG1       -0.0596
     22 H          -1.7632    0.1574    4.6248 H       1  LIG1        0.0661
     23 H          -0.2958    1.1651    4.9144 H       1  LIG1        0.0661
     24 H          -0.2005   -0.6037    5.0013 H       1  LIG1        0.0661
     25 H          -0.6601    3.1403    0.5508 H       1  LIG1        0.1029
     26 H           2.3036    2.3475   -2.5612 H       1  LIG1        0.2135
     27 H          -1.6289   -1.0259    0.8146 H       1  LIG1        0.0296
     28 H          -0.3241   -2.1897    1.0865 H       1  LIG1        0.0296
     29 H          -0.0301   -3.1996   -2.1280 H       1  LIG1        0.2098
     30 H           0.9551   -1.4243   -3.3494 H       1  LIG1        0.0233
     31 H           0.2023    0.1125   -3.7999 H       1  LIG1        0.0233
     32 H          -0.7759   -1.3511   -3.7322 H       1  LIG1        0.0233
@<TRIPOS>BOND
     1     1     2    2
     2     2     3    1
     3     3     4    1
     4     5     6    2
     5     6     7    1
     6     7     8    1
     7     8    11    1
     8    11    13    1
     9     5    13    1
    10    13    15    1
    11    15    16    1
    12    16    19    1
    13    11    19    1
    14     2     5    1
    15    11    12    1
    16    13    14    1
    17     8    10    1
    18     8     9    1
    19    16    18    1
    20    16    17    1
    21    19    21    1
    22    19    20    1
    23     4    22    1
    24     4    23    1
    25     4    24    1
    26     6    25    1
    27    10    26    1
    28    15    27    1
    29    15    28    1
    30    18    29    1
    31    21    30    1
    32    21    31    1
    33    21    32    1
