REMARK  Name = NuBBE_515
REMARK  8 active torsions:
REMARK  status: ('A' for Active; 'I' for Inactive)
REMARK    1  A    between atoms: C_1  and  O_2
REMARK    2  A    between atoms: O_2  and  C_3
REMARK    3  A    between atoms: C_6  and  O_7
REMARK    4  A    between atoms: O_7  and  C_8
REMARK    5  A    between atoms: C_9  and  C_10
REMARK    6  A    between atoms: C_10  and  O_11
REMARK    7  A    between atoms: C_10  and  C_12
REMARK    8  A    between atoms: C_12  and  N_13
REMARK                            x       y       z     vdW  Elec       q    Type
REMARK                         _______ _______ _______ _____ _____    ______ ____
ROOT
ATOM      1  C   LIG A   1      -0.267   1.608   1.749  0.00  0.00    +0.121 A 
ATOM      2  C   LIG A   1       0.070   2.550   0.790  0.00  0.00    +0.049 A 
ATOM      3  C   LIG A   1       0.482   2.156  -0.486  0.00  0.00    +0.049 A 
ATOM      4  C   LIG A   1       0.527   0.795  -0.827  0.00  0.00    +0.126 A 
ATOM      5  C   LIG A   1       0.149  -0.172   0.120  0.00  0.00    +0.027 A 
ATOM      6  C   LIG A   1      -0.226   0.253   1.412  0.00  0.00    +0.055 A 
ENDROOT
BRANCH   1   8
ATOM      7  C   LIG A   1      -0.532   1.223   4.072  0.00  0.00    +0.277 C 
ATOM      8  O   LIG A   1      -0.666   2.101   2.959  0.00  0.00    -0.495 OA
ENDBRANCH   1   8
BRANCH   4   9
ATOM      9  O   LIG A   1       0.936   0.327  -2.049  0.00  0.00    -0.495 OA
ATOM     10  C   LIG A   1       1.271   1.286  -3.046  0.00  0.00    +0.277 C 
ENDBRANCH   4   9
BRANCH   5  11
ATOM     11  C   LIG A   1       0.158  -1.661  -0.211  0.00  0.00    +0.162 C 
BRANCH  11  12
ATOM     12  O   LIG A   1      -0.219  -2.450   0.935  0.00  0.00    -0.386 OA
ATOM     13  H   LIG A   1      -0.533  -3.296   0.551  0.00  0.00    +0.210 HD
ENDBRANCH  11  12
BRANCH  11  14
ATOM     14  C   LIG A   1      -0.799  -2.053  -1.366  0.00  0.00    +0.114 C 
BRANCH  14  15
ATOM     15  N   LIG A   1      -0.766  -3.514  -1.597  0.00  0.00    -0.327 NA
ATOM     16  H   LIG A   1       0.154  -3.758  -1.971  0.00  0.00    +0.118 HD
ATOM     17  H   LIG A   1      -1.424  -3.732  -2.347  0.00  0.00    +0.118 HD
ENDBRANCH  14  15
ENDBRANCH  11  14
ENDBRANCH   5  11
TORSDOF 6
