REMARK  Name = NuBBE_1895
REMARK  11 active torsions:
REMARK  status: ('A' for Active; 'I' for Inactive)
REMARK    1  A    between atoms: C_1  and  O_2
REMARK    2  A    between atoms: O_2  and  C_3
REMARK    3  A    between atoms: C_4  and  C_5
REMARK    4  A    between atoms: C_9  and  O_10
REMARK    5  A    between atoms: O_10  and  C_11
REMARK    6  A    between atoms: C_12  and  O_13
REMARK    7  A    between atoms: O_13  and  C_14
REMARK    8  A    between atoms: C_22  and  O_23
REMARK    9  A    between atoms: O_23  and  C_24
REMARK   10  A    between atoms: C_25  and  O_26
REMARK   11  A    between atoms: O_26  and  C_27
REMARK                            x       y       z     vdW  Elec       q    Type
REMARK                         _______ _______ _______ _____ _____    ______ ____
ROOT
ATOM      1  C   LIG A   1      -0.023  -2.154  -0.494  0.00  0.00    +0.131 C 
ATOM      2  C   LIG A   1       0.285  -1.720  -1.922  0.00  0.00    +0.177 C 
ATOM      3  C   LIG A   1       1.500  -0.872  -2.040  0.00  0.00    +0.063 A 
ATOM      4  C   LIG A   1       1.512   0.160  -2.975  0.00  0.00    +0.064 A 
ATOM      5  C   LIG A   1       2.416   1.224  -2.792  0.00  0.00    +0.162 A 
ATOM      6  C   LIG A   1       3.324   1.186  -1.717  0.00  0.00    +0.165 A 
ATOM      7  C   LIG A   1       3.411   0.036  -0.932  0.00  0.00    +0.095 A 
ATOM      8  C   LIG A   1       2.452  -0.956  -1.042  0.00  0.00    +0.135 A 
ATOM      9  O   LIG A   1       2.421  -1.817   0.020  0.00  0.00    -0.490 OA
ATOM     10  C   LIG A   1       1.310  -2.715   0.047  0.00  0.00    +0.245 C 
ATOM     11  O   LIG A   1      -0.363  -2.006  -2.873  0.00  0.00    -0.291 OA
ENDROOT
BRANCH   1  13
ATOM     12  C   LIG A   1      -2.019  -1.314   0.981  0.00  0.00    +0.169 A 
ATOM     13  C   LIG A   1      -0.732  -1.082   0.389  0.00  0.00    +0.012 A 
ATOM     14  C   LIG A   1      -0.128   0.168   0.615  0.00  0.00    +0.012 A 
ATOM     15  C   LIG A   1      -0.727   1.170   1.372  0.00  0.00    +0.050 A 
ATOM     16  C   LIG A   1      -1.939   0.966   2.013  0.00  0.00    +0.165 A 
ATOM     17  C   LIG A   1      -2.602  -0.275   1.832  0.00  0.00    +0.204 A 
BRANCH  12  19
ATOM     18  C   LIG A   1      -3.402  -3.470   0.980  0.00  0.00    +0.277 C 
ATOM     19  O   LIG A   1      -2.555  -2.464   0.440  0.00  0.00    -0.491 OA
ENDBRANCH  12  19
BRANCH  16  20
ATOM     20  O   LIG A   1      -2.375   2.131   2.596  0.00  0.00    -0.491 OA
ATOM     21  C   LIG A   1      -3.181   2.173   3.764  0.00  0.00    +0.277 C 
ENDBRANCH  16  20
BRANCH  17  22
ATOM     22  O   LIG A   1      -3.827  -0.271   2.465  0.00  0.00    -0.488 OA
ATOM     23  C   LIG A   1      -4.795  -0.910   1.683  0.00  0.00    +0.277 C 
ENDBRANCH  17  22
ENDBRANCH   1  13
BRANCH   5  24
ATOM     24  O   LIG A   1       2.214   2.278  -3.652  0.00  0.00    -0.491 OA
ATOM     25  C   LIG A   1       3.365   3.073  -3.915  0.00  0.00    +0.277 C 
ENDBRANCH   5  24
BRANCH   6  26
ATOM     26  O   LIG A   1       4.088   2.285  -1.423  0.00  0.00    -0.491 OA
ATOM     27  C   LIG A   1       4.420   2.487  -0.050  0.00  0.00    +0.277 C 
ENDBRANCH   6  26
TORSDOF 6
