REMARK  Name = NuBBE_647
REMARK  2 active torsions:
REMARK  status: ('A' for Active; 'I' for Inactive)
REMARK    1  A    between atoms: C_1  and  C_2
REMARK    2  A    between atoms: C_2  and  C_3
REMARK                            x       y       z     vdW  Elec       q    Type
REMARK                         _______ _______ _______ _____ _____    ______ ____
ROOT
ATOM      1  C   LIG A   1      -3.013   0.221   2.127  0.00  0.00    +0.060 C 
ATOM      2  C   LIG A   1      -1.483   0.256   2.043  0.00  0.00    +0.123 C 
ATOM      3  C   LIG A   1      -0.880   0.195   3.451  0.00  0.00    +0.060 C 
ATOM      4  O   LIG A   1      -1.092  -0.963   1.377  0.00  0.00    -0.481 OA
ATOM      5  C   LIG A   1      -0.270  -0.890   0.289  0.00  0.00    +0.132 A 
ATOM      6  C   LIG A   1       0.130  -2.119  -0.245  0.00  0.00    +0.047 A 
ATOM      7  C   LIG A   1       0.965  -2.168  -1.363  0.00  0.00    +0.015 A 
ATOM      8  C   LIG A   1       1.402  -0.982  -1.955  0.00  0.00    +0.018 A 
ATOM      9  C   LIG A   1       0.993   0.239  -1.413  0.00  0.00    +0.150 A 
ATOM     10  O   LIG A   1       1.426   1.450  -2.004  0.00  0.00    -0.421 OA
ATOM     11  C   LIG A   1       2.250   1.472  -3.118  0.00  0.00    +0.337 A 
ATOM     12  C   LIG A   1       2.661   0.168  -3.663  0.00  0.00    +0.092 A 
ATOM     13  C   LIG A   1       2.268  -0.989  -3.124  0.00  0.00    +0.018 A 
ATOM     14  O   LIG A   1       2.628   2.515  -3.636  0.00  0.00    -0.245 OA
ATOM     15  C   LIG A   1       0.156   0.307  -0.290  0.00  0.00    +0.059 A 
ATOM     16  C   LIG A   1      -0.285   1.573   0.280  0.00  0.00    +0.015 C 
ATOM     17  C   LIG A   1      -1.052   1.538   1.372  0.00  0.00    +0.020 C 
ENDROOT
TORSDOF 0
