@<TRIPOS>MOLECULE
NuBBE_2442
 20 22 0 0 0
SMALL
GASTEIGER

@<TRIPOS>ATOM
      1 O          -4.4093   -1.0834    0.1916 O.2     1  LIG1       -0.2452
      2 C          -3.1885   -1.0106    0.1991 C.ar    1  LIG1        0.3372
      3 O          -2.5132    0.1939    0.3421 O.2     1  LIG1       -0.4220
      4 C          -1.1059    0.2645    0.2407 C.ar    1  LIG1        0.1426
      5 C          -0.3439   -0.8965    0.0855 C.ar    1  LIG1        0.0184
      6 C          -1.0254   -2.1812    0.0316 C.ar    1  LIG1       -0.0443
      7 C          -2.3604   -2.2229    0.0678 C.ar    1  LIG1        0.0236
      8 C           1.0488   -0.8043   -0.0602 C.ar    1  LIG1       -0.0403
      9 C           1.6400    0.4742   -0.0984 C.ar    1  LIG1        0.0209
     10 C           0.8288    1.5935    0.0626 C.ar    1  LIG1        0.1383
     11 C          -0.5468    1.5439    0.2605 C.ar    1  LIG1        0.0243
     12 O           1.5717    2.7309   -0.0269 O.2     1  LIG1       -0.4628
     13 C           2.8540    2.3495   -0.2617 C.ar    1  LIG1        0.0931
     14 C           2.9533    0.9775   -0.2976 C.ar    1  LIG1       -0.0161
     15 H          -0.4397   -3.0887   -0.0671 H       1  LIG1        0.0627
     16 H          -2.9052   -3.1563   -0.0029 H       1  LIG1        0.0689
     17 H           1.6628   -1.6912   -0.1850 H       1  LIG1        0.0632
     18 H          -1.1415    2.4405    0.3752 H       1  LIG1        0.0692
     19 H           3.5639    3.1558   -0.3845 H       1  LIG1        0.1029
     20 H           3.8566    0.4109   -0.4726 H       1  LIG1        0.0655
@<TRIPOS>BOND
     1     1     2    2
     2     2     3   ar
     3     3     4   ar
     4     4     5   ar
     5     5     6   ar
     6     6     7   ar
     7     2     7   ar
     8     5     8   ar
     9     8     9   ar
    10     9    10   ar
    11    10    11   ar
    12     4    11   ar
    13    10    12   ar
    14    12    13   ar
    15    13    14   ar
    16     9    14   ar
    17     6    15    1
    18     7    16    1
    19     8    17    1
    20    11    18    1
    21    13    19    1
    22    14    20    1
