REMARK  Name = NuBBE_1252
REMARK  18 active torsions:
REMARK  status: ('A' for Active; 'I' for Inactive)
REMARK    1  A    between atoms: C_1  and  C_2
REMARK    2  A    between atoms: C_7  and  C_18
REMARK    3  A    between atoms: C_9  and  O_11
REMARK    4  A    between atoms: C_12  and  O_14
REMARK    5  A    between atoms: C_15  and  C_16
REMARK    6  A    between atoms: C_15  and  C_17
REMARK    7  A    between atoms: C_24  and  C_25
REMARK    8  A    between atoms: C_28  and  C_29
REMARK    9  A    between atoms: C_29  and  O_30
REMARK   10  A    between atoms: O_30  and  O_31
REMARK   11  A    between atoms: O_31  and  C_32
REMARK   12  A    between atoms: C_32  and  C_33
REMARK   13  A    between atoms: C_35  and  O_47
REMARK   14  A    between atoms: C_37  and  O_46
REMARK   15  A    between atoms: C_39  and  O_45
REMARK   16  A    between atoms: C_41  and  O_44
REMARK   17  A    between atoms: C_52  and  C_53
REMARK   18  A    between atoms: C_52  and  C_54
REMARK                            x       y       z     vdW  Elec       q    Type
REMARK                         _______ _______ _______ _____ _____    ______ ____
ROOT
ATOM      1  C   LIG A   1      -0.658  -4.983   0.582  0.00  0.00    +0.012 C 
ATOM      2  C   LIG A   1      -0.064  -3.767   1.332  0.00  0.00    -0.019 C 
ATOM      3  C   LIG A   1       0.036  -4.079   2.837  0.00  0.00    +0.008 C 
ATOM      4  C   LIG A   1      -1.015  -3.461   3.735  0.00  0.00    +0.005 C 
ATOM      5  C   LIG A   1      -1.342  -1.992   3.417  0.00  0.00    +0.003 C 
ATOM      6  C   LIG A   1      -1.695  -1.798   1.876  0.00  0.00    -0.023 C 
ATOM      7  C   LIG A   1      -2.475  -0.458   1.645  0.00  0.00    +0.041 C 
ATOM      8  C   LIG A   1      -3.396   0.099   2.746  0.00  0.00    +0.144 C 
ATOM      9  C   LIG A   1      -2.745   0.048   4.122  0.00  0.00    +0.149 C 
ATOM     10  C   LIG A   1      -2.303  -1.380   4.525  0.00  0.00    -0.003 C 
ATOM     11  C   LIG A   1      -3.529  -2.258   4.867  0.00  0.00    +0.014 C 
ATOM     12  C   LIG A   1      -1.515  -1.248   5.867  0.00  0.00    +0.014 C 
ATOM     13  C   LIG A   1      -2.865  -2.834   1.518  0.00  0.00    +0.012 C 
ATOM     14  C   LIG A   1      -0.340  -2.318   0.771  0.00  0.00    +0.006 C 
ATOM     15  C   LIG A   1       1.388  -1.700  -0.280  0.00  0.00    +0.031 C 
ATOM     16  C   LIG A   1       1.814  -2.518  -1.474  0.00  0.00    -0.026 C 
ATOM     17  C   LIG A   1       0.696  -3.017  -1.051  0.00  0.00    -0.063 C 
ATOM     18  C   LIG A   1       1.204  -3.344   0.803  0.00  0.00    -0.005 C 
ATOM     19  C   LIG A   1       2.406  -4.292   0.931  0.00  0.00    +0.016 C 
ATOM     20  C   LIG A   1       1.458  -1.698   1.839  0.00  0.00    +0.012 C 
ATOM     21  C   LIG A   1       0.581  -0.161   1.146  0.00  0.00    +0.019 C 
ATOM     22  C   LIG A   1      -0.150  -0.017  -0.611  0.00  0.00    +0.077 C 
ATOM     23  C   LIG A   1      -0.400  -1.571  -1.542  0.00  0.00    +0.033 C 
ATOM     24  C   LIG A   1      -0.529  -1.281  -3.053  0.00  0.00    +0.015 C 
ATOM     25  C   LIG A   1      -1.694  -0.284  -3.352  0.00  0.00    -0.034 C 
ATOM     26  C   LIG A   1      -1.561   0.197  -4.811  0.00  0.00    +0.011 C 
ATOM     27  C   LIG A   1      -3.048  -1.027  -3.230  0.00  0.00    +0.011 C 
ATOM     28  C   LIG A   1      -1.713   0.981  -2.438  0.00  0.00    +0.007 C 
ATOM     29  C   LIG A   1      -1.456   0.759  -0.926  0.00  0.00    +0.019 C 
ENDROOT
BRANCH   8  30
ATOM     30  O   LIG A   1      -4.675  -0.520   2.713  0.00  0.00    -0.389 OA
ATOM     31  H   LIG A   1      -5.245  -0.072   3.362  0.00  0.00    +0.210 HD
ENDBRANCH   8  30
BRANCH   9  32
ATOM     32  O   LIG A   1      -1.612   0.927   4.125  0.00  0.00    -0.389 OA
ATOM     33  H   LIG A   1      -1.942   1.839   4.058  0.00  0.00    +0.210 HD
ENDBRANCH   9  32
BRANCH  22  34
ATOM     34  C   LIG A   1       0.879   0.988  -1.327  0.00  0.00    +0.350 C 
ATOM     35  O   LIG A   1       1.403   0.831  -2.425  0.00  0.00    -0.247 OA
BRANCH  34  36
ATOM     36  O   LIG A   1       1.067   2.106  -0.544  0.00  0.00    -0.296 OA
BRANCH  36  37
ATOM     37  O   LIG A   1       2.097   2.929  -1.195  0.00  0.00    -0.181 OA
BRANCH  37  38
ATOM     38  C   LIG A   1       1.397   4.026  -1.784  0.00  0.00    +0.249 C 
BRANCH  38  39
ATOM     39  C   LIG A   1       2.350   4.993  -2.503  0.00  0.00    +0.182 C 
ATOM     40  C   LIG A   1       3.410   4.296  -3.385  0.00  0.00    +0.177 C 
ATOM     41  C   LIG A   1       4.401   5.337  -3.944  0.00  0.00    +0.179 C 
ATOM     42  C   LIG A   1       4.930   6.249  -2.839  0.00  0.00    +0.201 C 
ATOM     43  C   LIG A   1       3.731   6.870  -2.111  0.00  0.00    +0.279 C 
ATOM     44  O   LIG A   1       2.969   5.828  -1.512  0.00  0.00    -0.341 OA
BRANCH  43  45
ATOM     45  O   LIG A   1       4.180   7.775  -1.113  0.00  0.00    -0.365 OA
ATOM     46  H   LIG A   1       5.002   8.160  -1.473  0.00  0.00    +0.213 HD
ENDBRANCH  43  45
BRANCH  42  47
ATOM     47  O   LIG A   1       5.769   7.277  -3.388  0.00  0.00    -0.384 OA
ATOM     48  H   LIG A   1       6.414   6.798  -3.946  0.00  0.00    +0.210 HD
ENDBRANCH  42  47
BRANCH  41  49
ATOM     49  O   LIG A   1       5.514   4.693  -4.585  0.00  0.00    -0.386 OA
ATOM     50  H   LIG A   1       5.120   4.065  -5.222  0.00  0.00    +0.210 HD
ENDBRANCH  41  49
BRANCH  40  51
ATOM     51  O   LIG A   1       2.802   3.628  -4.500  0.00  0.00    -0.387 OA
ATOM     52  H   LIG A   1       2.383   2.812  -4.163  0.00  0.00    +0.210 HD
ENDBRANCH  40  51
ENDBRANCH  38  39
ENDBRANCH  37  38
ENDBRANCH  36  37
ENDBRANCH  34  36
ENDBRANCH  22  34
TORSDOF 11
