REMARK  Name = NuBBE_2187
REMARK  7 active torsions:
REMARK  status: ('A' for Active; 'I' for Inactive)
REMARK    1  A    between atoms: C_1  and  C_2
REMARK    2  A    between atoms: C_2  and  C_3
REMARK    3  A    between atoms: C_4  and  C_6
REMARK    4  A    between atoms: C_6  and  C_7
REMARK    5  A    between atoms: C_7  and  C_8
REMARK    6  A    between atoms: C_19  and  C_20
REMARK    7  A    between atoms: C_19  and  O_21
REMARK                            x       y       z     vdW  Elec       q    Type
REMARK                         _______ _______ _______ _____ _____    ______ ____
ROOT
ATOM      1  C   LIG A   1       0.329   0.434   0.285  0.00  0.00    +0.008 C 
ENDROOT
BRANCH   1   5
ATOM      2  C   LIG A   1      -0.110   3.390  -0.143  0.00  0.00    +0.011 C 
ATOM      3  C   LIG A   1       1.317   2.818  -0.278  0.00  0.00    -0.029 C 
ATOM      4  C   LIG A   1       2.039   3.115   1.065  0.00  0.00    +0.011 C 
ATOM      5  C   LIG A   1       1.339   1.254  -0.595  0.00  0.00    +0.026 C 
ATOM      6  C   LIG A   1       1.241   0.889  -2.122  0.00  0.00    +0.067 C 
ATOM      7  C   LIG A   1      -0.194   0.798  -2.665  0.00  0.00    +0.041 C 
ATOM      8  C   LIG A   1       2.065   1.828  -3.014  0.00  0.00    +0.035 C 
ATOM      9  C   LIG A   1       1.736   3.285  -2.775  0.00  0.00    +0.003 C 
ATOM     10  C   LIG A   1       2.091   3.640  -1.345  0.00  0.00    +0.007 C 
BRANCH   6  11
ATOM     11  O   LIG A   1       1.822  -0.414  -2.322  0.00  0.00    -0.389 OA
ATOM     12  H   LIG A   1       2.729  -0.394  -1.969  0.00  0.00    +0.210 HD
ENDBRANCH   6  11
ENDBRANCH   1   5
BRANCH   1  13
ATOM     13  C   LIG A   1       0.383  -1.105   0.107  0.00  0.00    +0.015 C 
BRANCH  13  14
ATOM     14  C   LIG A   1      -0.621  -1.910   0.956  0.00  0.00    +0.033 C 
ATOM     15  C   LIG A   1      -0.617  -3.403   0.574  0.00  0.00    +0.022 C 
ATOM     16  C   LIG A   1      -2.098  -1.528   0.707  0.00  0.00    +0.044 C 
ATOM     17  C   LIG A   1      -2.850  -2.811   0.999  0.00  0.00    -0.073 C 
ATOM     18  C   LIG A   1      -1.864  -3.914   1.303  0.00  0.00    +0.016 C 
ATOM     19  C   LIG A   1      -1.576  -3.984   2.811  0.00  0.00    +0.015 C 
ATOM     20  C   LIG A   1      -1.162  -2.634   3.402  0.00  0.00    +0.075 C 
ATOM     21  C   LIG A   1      -0.262  -1.860   2.454  0.00  0.00    +0.140 C 
ATOM     22  O   LIG A   1       0.688  -1.222   2.890  0.00  0.00    -0.297 OA
ATOM     23  C   LIG A   1      -4.180  -2.955   0.966  0.00  0.00    +0.008 C 
ENDBRANCH  13  14
ENDBRANCH   1  13
TORSDOF 4
