REMARK  Name = NuBBE_850
REMARK  1 active torsions:
REMARK  status: ('A' for Active; 'I' for Inactive)
REMARK    1  A    between atoms: CB_9  and  CG2_10
REMARK                            x       y       z     vdW  Elec       q    Type
REMARK                         _______ _______ _______ _____ _____    ______ ____
ROOT
ATOM      1  O   GLY A   1      -1.552   1.588   2.448  0.00  0.00    -0.274 OA
ATOM      2  C   GLY A   1      -0.883   1.488   1.423  0.00  0.00    +0.233 C 
ATOM      3  CA  GLY A   1      -0.478   2.718   0.594  0.00  0.00    +0.200 C 
ATOM      4  N   GLY A   1       0.463   2.513  -0.499  0.00  0.00    -0.305 N 
ATOM      5  C   ILE A   2       0.597   1.282  -1.105  0.00  0.00    +0.234 C 
ATOM      6  O   ILE A   2       1.039   1.196  -2.246  0.00  0.00    -0.274 OA
ATOM      7  N   ILE A   2      -0.632   0.287   0.803  0.00  0.00    -0.288 N 
ATOM      8  CA  ILE A   2       0.464   0.106  -0.136  0.00  0.00    +0.165 C 
ATOM      9  CB  ILE A   2       0.150  -1.254  -0.757  0.00  0.00    +0.017 C 
ATOM     10  CG2 ILE A   2       1.345  -1.944  -1.393  0.00  0.00    +0.010 C 
ATOM     11  CG1 ILE A   2      -0.395  -2.030   0.456  0.00  0.00    +0.024 C 
ATOM     12  CD1 ILE A   2      -1.161  -0.981   1.258  0.00  0.00    +0.109 C 
ATOM     13  H   GLY A   1       0.621   3.290  -1.129  0.00  0.00    +0.149 HD
ENDROOT
TORSDOF 0
