REMARK  Name = NuBBE_2457
REMARK  12 active torsions:
REMARK  status: ('A' for Active; 'I' for Inactive)
REMARK    1  A    between atoms: C_1  and  O_2
REMARK    2  A    between atoms: O_2  and  C_3
REMARK    3  A    between atoms: C_4  and  O_5
REMARK    4  A    between atoms: O_5  and  C_6
REMARK    5  A    between atoms: C_9  and  C_11
REMARK    6  A    between atoms: C_14  and  O_15
REMARK    7  A    between atoms: C_16  and  O_17
REMARK    8  A    between atoms: O_17  and  C_18
REMARK    9  A    between atoms: C_20  and  C_22
REMARK   10  A    between atoms: C_22  and  O_23
REMARK   11  A    between atoms: C_24  and  C_26
REMARK   12  A    between atoms: C_26  and  O_27
REMARK                            x       y       z     vdW  Elec       q    Type
REMARK                         _______ _______ _______ _____ _____    ______ ____
ROOT
ATOM      1  C   LIG A   1      -0.384  -1.422  -3.013  0.00  0.00    +0.162 A 
ATOM      2  C   LIG A   1       0.046  -2.163  -1.902  0.00  0.00    +0.162 A 
ATOM      3  C   LIG A   1       0.579  -1.492  -0.801  0.00  0.00    +0.053 A 
ATOM      4  C   LIG A   1       0.651  -0.084  -0.754  0.00  0.00    -0.033 A 
ATOM      5  C   LIG A   1       1.220   0.585   0.497  0.00  0.00    +0.055 C 
ATOM      6  C   LIG A   1       1.415   2.128   0.392  0.00  0.00    +0.032 C 
ATOM      7  C   LIG A   1       0.411   2.833  -0.563  0.00  0.00    +0.025 C 
ATOM      8  C   LIG A   1       0.360   2.149  -1.931  0.00  0.00    +0.041 C 
ATOM      9  C   LIG A   1       0.212   0.654  -1.862  0.00  0.00    -0.040 A 
ATOM     10  C   LIG A   1      -0.297  -0.025  -2.984  0.00  0.00    +0.053 A 
ENDROOT
BRANCH   5  11
ATOM     11  C   LIG A   1       0.565   0.146   1.815  0.00  0.00    -0.036 A 
ATOM     12  C   LIG A   1       1.347   0.102   2.983  0.00  0.00    +0.008 A 
ATOM     13  C   LIG A   1       0.834  -0.424   4.171  0.00  0.00    +0.049 A 
ATOM     14  C   LIG A   1      -0.469  -0.917   4.202  0.00  0.00    +0.159 A 
ATOM     15  C   LIG A   1      -1.279  -0.869   3.063  0.00  0.00    +0.162 A 
ATOM     16  C   LIG A   1      -0.766  -0.307   1.887  0.00  0.00    +0.053 A 
BRANCH  14  17
ATOM     17  O   LIG A   1      -0.956  -1.486   5.349  0.00  0.00    -0.503 OA
ATOM     18  H   LIG A   1      -0.259  -1.489   6.023  0.00  0.00    +0.292 HD
ENDBRANCH  14  17
BRANCH  15  19
ATOM     19  O   LIG A   1      -2.550  -1.369   3.182  0.00  0.00    -0.491 OA
ATOM     20  C   LIG A   1      -3.131  -1.884   1.989  0.00  0.00    +0.277 C 
ENDBRANCH  15  19
ENDBRANCH   5  11
BRANCH   1  22
ATOM     21  C   LIG A   1      -0.902  -1.495  -5.332  0.00  0.00    +0.277 C 
ATOM     22  O   LIG A   1      -0.904  -2.136  -4.064  0.00  0.00    -0.491 OA
ENDBRANCH   1  22
BRANCH   2  23
ATOM     23  O   LIG A   1      -0.060  -3.530  -2.000  0.00  0.00    -0.491 OA
ATOM     24  C   LIG A   1       0.068  -4.279  -0.800  0.00  0.00    +0.277 C 
ENDBRANCH   2  23
BRANCH   6  25
ATOM     25  C   LIG A   1       2.873   2.404  -0.045  0.00  0.00    +0.160 C 
BRANCH  25  26
ATOM     26  O   LIG A   1       3.146   3.795  -0.139  0.00  0.00    -0.395 OA
ATOM     27  H   LIG A   1       2.914   4.199   0.717  0.00  0.00    +0.209 HD
ENDBRANCH  25  26
ENDBRANCH   6  25
BRANCH   7  28
ATOM     28  C   LIG A   1      -0.996   2.990   0.025  0.00  0.00    +0.160 C 
BRANCH  28  29
ATOM     29  O   LIG A   1      -0.931   3.805   1.189  0.00  0.00    -0.395 OA
ATOM     30  H   LIG A   1      -1.848   3.975   1.468  0.00  0.00    +0.209 HD
ENDBRANCH  28  29
ENDBRANCH   7  28
TORSDOF 9
