@<TRIPOS>MOLECULE
NuBBE_1913
 34 36 0 0 0
SMALL
GASTEIGER

@<TRIPOS>ATOM
      1 C          -2.4808   -0.6028   -2.5040 C.3     1  LIG1        0.0790
      2 O          -2.9782    0.6396   -2.0067 O.3     1  LIG1       -0.4905
      3 C          -2.1355    1.4080   -1.2455 C.ar    1  LIG1        0.1794
      4 C          -2.3245    2.7875   -1.4281 C.ar    1  LIG1        0.2018
      5 O          -3.3260    3.2647   -2.2393 O.3     1  LIG1       -0.5009
      6 C          -1.5186    3.7285   -0.7936 C.ar    1  LIG1        0.1655
      7 O          -1.7078    5.0612   -1.0150 O.3     1  LIG1       -0.5031
      8 C          -0.5152    3.3239    0.0653 C.ar    1  LIG1        0.0268
      9 C          -0.3355    1.9588    0.2996 C.ar    1  LIG1        0.1465
     10 O           0.6817    1.6493    1.1754 O.2     1  LIG1       -0.4542
     11 C           1.0791    0.3408    1.2553 C.ar    1  LIG1        0.1430
     12 C           2.2840    0.0827    1.9027 C.ar    1  LIG1       -0.0149
     13 C           2.7565   -1.2301    2.0055 C.ar    1  LIG1       -0.0128
     14 C           2.0267   -2.2928    1.4595 C.ar    1  LIG1        0.1622
     15 O           2.4175   -3.6037    1.5289 O.3     1  LIG1       -0.4914
     16 C           3.8198   -3.8315    1.5800 C.3     1  LIG1        0.0790
     17 C           0.7947   -2.0315    0.8492 C.ar    1  LIG1        0.1731
     18 O           0.0788   -3.0841    0.3322 O.3     1  LIG1       -0.5027
     19 C           0.3317   -0.7140    0.7494 C.ar    1  LIG1        0.1096
     20 C          -1.1598    0.9999   -0.3217 C.ar    1  LIG1        0.1101
     21 C          -0.9488   -0.3887    0.1260 C.ar    1  LIG1        0.2075
     22 O          -1.7912   -1.2797    0.0254 O.2     1  LIG1       -0.2861
     23 H          -2.9760   -1.4212   -1.9734 H       1  LIG1        0.0660
     24 H          -1.3909   -0.7001   -2.4569 H       1  LIG1        0.0660
     25 H          -2.7641   -0.6947   -3.5566 H       1  LIG1        0.0660
     26 H          -3.8648    2.4799   -2.4668 H       1  LIG1        0.2924
     27 H          -2.4437    5.1094   -1.6587 H       1  LIG1        0.2923
     28 H           0.1115    4.0614    0.5582 H       1  LIG1        0.0692
     29 H           2.8581    0.9001    2.3320 H       1  LIG1        0.0656
     30 H           3.6893   -1.3987    2.5337 H       1  LIG1        0.0656
     31 H           3.9915   -4.9000    1.4196 H       1  LIG1        0.0660
     32 H           4.2222   -3.5755    2.5647 H       1  LIG1        0.0660
     33 H           4.3420   -3.2849    0.7869 H       1  LIG1        0.0660
     34 H          -0.8235   -2.7617    0.1167 H       1  LIG1        0.2923
@<TRIPOS>BOND
     1     1     2    1
     2     2     3    1
     3     3     4   ar
     4     4     5    1
     5     4     6   ar
     6     6     7    1
     7     6     8   ar
     8     8     9   ar
     9     9    10   ar
    10    10    11   ar
    11    11    12   ar
    12    12    13   ar
    13    13    14   ar
    14    14    15    1
    15    15    16    1
    16    14    17   ar
    17    17    18    1
    18    17    19   ar
    19    11    19   ar
    20     9    20   ar
    21     3    20   ar
    22    20    21   ar
    23    19    21   ar
    24    21    22    2
    25     1    23    1
    26     1    24    1
    27     1    25    1
    28     5    26    1
    29     7    27    1
    30     8    28    1
    31    12    29    1
    32    13    30    1
    33    16    31    1
    34    16    32    1
    35    16    33    1
    36    18    34    1
