REMARK  Name = NuBBE_44
REMARK  4 active torsions:
REMARK  status: ('A' for Active; 'I' for Inactive)
REMARK    1  A    between atoms: N_4  and  C_5
REMARK    2  A    between atoms: C_5  and  C_6
REMARK    3  A    between atoms: C_7  and  C_8
REMARK    4  A    between atoms: C_7  and  C_9
REMARK                            x       y       z     vdW  Elec       q    Type
REMARK                         _______ _______ _______ _____ _____    ______ ____
ROOT
ATOM      1  N   LIG A   1      -0.562  -2.637  -2.314  0.00  0.00    -0.130 NA
ATOM      2  C   LIG A   1      -1.246  -1.603  -1.988  0.00  0.00    +0.377 C 
ATOM      3  N   LIG A   1      -2.399  -1.259  -2.594  0.00  0.00    -0.289 N 
ATOM      4  N   LIG A   1      -0.902  -0.694  -1.051  0.00  0.00    -0.273 N 
ATOM      5  H   LIG A   1      -1.053  -3.155  -3.042  0.00  0.00    +0.306 HD
ATOM      6  H   LIG A   1      -2.530  -1.678  -3.506  0.00  0.00    +0.255 HD
ATOM      7  H   LIG A   1      -2.514  -0.253  -2.646  0.00  0.00    +0.255 HD
ATOM      8  H   LIG A   1      -1.687  -0.361  -0.504  0.00  0.00    +0.258 HD
ENDROOT
BRANCH   4   9
ATOM      9  C   LIG A   1       0.302  -0.829  -0.259  0.00  0.00    +0.223 C 
BRANCH   9  10
ATOM     10  C   LIG A   1       0.721   0.568   0.102  0.00  0.00    +0.008 C 
ATOM     11  C   LIG A   1       0.929   1.111   1.319  0.00  0.00    -0.077 C 
ATOM     12  C   LIG A   1       0.777   0.393   2.629  0.00  0.00    +0.038 C 
ATOM     13  C   LIG A   1       1.371   2.547   1.449  0.00  0.00    +0.038 C 
ENDBRANCH   9  10
ENDBRANCH   4   9
TORSDOF 2
