REMARK  Name = NuBBE_1770
REMARK  6 active torsions:
REMARK  status: ('A' for Active; 'I' for Inactive)
REMARK    1  A    between atoms: C_1  and  C_3
REMARK    2  A    between atoms: C_1  and  C_15
REMARK    3  A    between atoms: C_10  and  O_14
REMARK    4  A    between atoms: C_11  and  O_13
REMARK    5  A    between atoms: C_16  and  O_17
REMARK    6  A    between atoms: C_19  and  O_22
REMARK                            x       y       z     vdW  Elec       q    Type
REMARK                         _______ _______ _______ _____ _____    ______ ____
ROOT
ATOM      1  C   LIG A   1      -0.220  -0.565   0.059  0.00  0.00    +0.169 C 
ATOM      2  C   LIG A   1      -1.516  -0.623   0.408  0.00  0.00    +0.058 C 
ATOM      3  C   LIG A   1      -2.346   0.574   0.314  0.00  0.00    -0.011 A 
ATOM      4  C   LIG A   1      -1.708   1.801   0.073  0.00  0.00    +0.001 A 
ATOM      5  C   LIG A   1      -0.205   1.824   0.028  0.00  0.00    +0.265 C 
ATOM      6  O   LIG A   1       0.410   0.590  -0.365  0.00  0.00    -0.483 OA
ATOM      7  C   LIG A   1      -2.462   2.978  -0.045  0.00  0.00    +0.056 A 
ATOM      8  C   LIG A   1      -3.846   2.907   0.062  0.00  0.00    +0.159 A 
ATOM      9  C   LIG A   1      -4.473   1.686   0.301  0.00  0.00    +0.159 A 
ATOM     10  C   LIG A   1      -3.736   0.517   0.434  0.00  0.00    +0.057 A 
ENDROOT
BRANCH   1  11
ATOM     11  C   LIG A   1       0.547  -1.855   0.033  0.00  0.00    +0.231 C 
ATOM     12  O   LIG A   1      -0.014  -2.951  -0.014  0.00  0.00    -0.283 OA
BRANCH  11  13
ATOM     13  C   LIG A   1       2.031  -1.822  -0.016  0.00  0.00    +0.067 A 
ATOM     14  C   LIG A   1       2.717  -2.827  -0.716  0.00  0.00    +0.131 A 
ATOM     15  C   LIG A   1       4.107  -2.805  -0.820  0.00  0.00    +0.091 A 
ATOM     16  C   LIG A   1       4.818  -1.789  -0.191  0.00  0.00    +0.120 A 
ATOM     17  C   LIG A   1       4.162  -0.812   0.551  0.00  0.00    +0.046 A 
ATOM     18  C   LIG A   1       2.768  -0.830   0.645  0.00  0.00    +0.019 A 
BRANCH  14  19
ATOM     19  O   LIG A   1       2.080  -3.874  -1.331  0.00  0.00    -0.506 OA
ATOM     20  H   LIG A   1       1.150  -3.888  -1.012  0.00  0.00    +0.292 HD
ENDBRANCH  14  19
BRANCH  16  21
ATOM     21  O   LIG A   1       6.177  -1.718  -0.269  0.00  0.00    -0.507 OA
ATOM     22  H   LIG A   1       6.492  -2.438  -0.841  0.00  0.00    +0.292 HD
ENDBRANCH  16  21
ENDBRANCH  11  13
ENDBRANCH   1  11
BRANCH   9  23
ATOM     23  O   LIG A   1      -5.834   1.629   0.402  0.00  0.00    -0.503 OA
ATOM     24  H   LIG A   1      -6.130   2.551   0.261  0.00  0.00    +0.292 HD
ENDBRANCH   9  23
BRANCH   8  25
ATOM     25  O   LIG A   1      -4.638   4.014  -0.057  0.00  0.00    -0.503 OA
ATOM     26  H   LIG A   1      -4.069   4.782  -0.237  0.00  0.00    +0.292 HD
ENDBRANCH   8  25
TORSDOF 6
