REMARK  Name = NuBBE_433
REMARK  12 active torsions:
REMARK  status: ('A' for Active; 'I' for Inactive)
REMARK    1  A    between atoms: C_1  and  C_2
REMARK    2  A    between atoms: C_2  and  C_3
REMARK    3  A    between atoms: C_7  and  C_8
REMARK    4  A    between atoms: C_11  and  C_12
REMARK    5  A    between atoms: C_13  and  C_36
REMARK    6  A    between atoms: C_16  and  C_25
REMARK    7  A    between atoms: C_18  and  C_19
REMARK    8  A    between atoms: C_18  and  C_20
REMARK    9  A    between atoms: C_20  and  C_21
REMARK   10  A    between atoms: C_21  and  C_22
REMARK   11  A    between atoms: C_22  and  O_23
REMARK   12  A    between atoms: C_25  and  C_26
REMARK                            x       y       z     vdW  Elec       q    Type
REMARK                         _______ _______ _______ _____ _____    ______ ____
ROOT
ATOM      1  C   LIG A   1       1.674  -3.960  -0.425  0.00  0.00    +0.018 C 
ATOM      2  C   LIG A   1       1.043  -5.262  -0.937  0.00  0.00    +0.009 C 
ATOM      3  C   LIG A   1      -0.388  -4.873  -1.282  0.00  0.00    +0.007 C 
ATOM      4  C   LIG A   1      -0.267  -3.472  -1.923  0.00  0.00    -0.028 C 
ATOM      5  C   LIG A   1       0.167  -3.665  -3.404  0.00  0.00    +0.011 C 
ATOM      6  C   LIG A   1      -1.595  -2.697  -1.954  0.00  0.00    +0.007 C 
ATOM      7  C   LIG A   1      -1.524  -1.259  -1.420  0.00  0.00    +0.008 C 
ATOM      8  C   LIG A   1      -0.888  -1.147  -0.004  0.00  0.00    -0.023 C 
ATOM      9  C   LIG A   1      -1.637  -2.152   0.928  0.00  0.00    +0.012 C 
ATOM     10  C   LIG A   1      -1.006   0.354   0.693  0.00  0.00    -0.023 C 
ATOM     11  C   LIG A   1      -2.441   0.945   0.525  0.00  0.00    +0.008 C 
ATOM     12  C   LIG A   1      -2.543   2.470   0.452  0.00  0.00    +0.009 C 
ATOM     13  C   LIG A   1      -1.512   3.257   1.281  0.00  0.00    +0.020 C 
ATOM     14  C   LIG A   1      -0.044   2.898   0.732  0.00  0.00    -0.022 C 
ATOM     15  C   LIG A   1       1.095   3.105   1.767  0.00  0.00    +0.012 C 
ATOM     16  C   LIG A   1       0.009   1.395   0.104  0.00  0.00    +0.002 C 
ATOM     17  C   LIG A   1       1.431   0.819   0.113  0.00  0.00    +0.005 C 
ATOM     18  C   LIG A   1       1.522  -0.464  -0.674  0.00  0.00    +0.005 C 
ATOM     19  C   LIG A   1       0.609  -1.600  -0.164  0.00  0.00    -0.000 C 
ATOM     20  C   LIG A   1       0.895  -2.805  -1.137  0.00  0.00    +0.006 C 
ATOM     21  C   LIG A   1      -0.727   0.188   2.220  0.00  0.00    +0.012 C 
ENDROOT
BRANCH   1  23
ATOM     22  C   LIG A   1       3.751  -4.007  -2.008  0.00  0.00    +0.038 C 
ATOM     23  C   LIG A   1       3.190  -3.916  -0.610  0.00  0.00    -0.076 C 
ATOM     24  C   LIG A   1       4.031  -3.807   0.433  0.00  0.00    +0.007 C 
ENDBRANCH   1  23
BRANCH  13  25
ATOM     25  C   LIG A   1      -1.836   3.331   2.794  0.00  0.00    -0.076 C 
ATOM     26  C   LIG A   1      -3.076   2.652   3.331  0.00  0.00    +0.038 C 
ATOM     27  C   LIG A   1      -1.173   4.125   3.657  0.00  0.00    +0.007 C 
ENDBRANCH  13  25
BRANCH  14  28
ATOM     28  C   LIG A   1       0.303   3.885  -0.473  0.00  0.00    +0.018 C 
BRANCH  28  29
ATOM     29  C   LIG A   1       0.335   5.392  -0.154  0.00  0.00    +0.121 C 
BRANCH  29  30
ATOM     30  C   LIG A   1       0.672   6.221  -1.363  0.00  0.00    +0.305 C 
ATOM     31  O   LIG A   1       1.417   5.918  -2.280  0.00  0.00    -0.251 OA
BRANCH  30  32
ATOM     32  O   LIG A   1       0.090   7.429  -1.334  0.00  0.00    -0.481 OA
ATOM     33  H   LIG A   1       0.390   7.880  -2.146  0.00  0.00    +0.295 HD
ENDBRANCH  30  32
ENDBRANCH  29  30
ENDBRANCH  28  29
ENDBRANCH  14  28
TORSDOF 6
