@<TRIPOS>MOLECULE
NuBBE_209
 16 16 0 0 0
SMALL
GASTEIGER

@<TRIPOS>ATOM
      1 O          -2.0650   -1.7408    0.5534 O.3     1  LIG1       -0.4770
      2 C          -0.7769   -1.8613    0.1692 C.2     1  LIG1        0.3404
      3 C          -0.0935   -0.5547    0.0096 C.ar    1  LIG1        0.1001
      4 C          -0.7115    0.6827    0.2361 C.ar    1  LIG1        0.1308
      5 O          -2.0150    0.8215    0.6297 O.3     1  LIG1       -0.5059
      6 C           0.0001    1.8700    0.0640 C.ar    1  LIG1       -0.0194
      7 C           1.3359    1.8334   -0.3360 C.ar    1  LIG1       -0.0583
      8 C           1.9619    0.6092   -0.5644 C.ar    1  LIG1       -0.0608
      9 C           1.2509   -0.5809   -0.3925 C.ar    1  LIG1       -0.0442
     10 O          -0.2826   -2.9582   -0.0127 O.2     1  LIG1       -0.2450
     11 H          -2.3628   -2.6770    0.6101 H       1  LIG1        0.2954
     12 H          -2.3943   -0.0791    0.7106 H       1  LIG1        0.2922
     13 H          -0.4890    2.8243    0.2425 H       1  LIG1        0.0654
     14 H           1.8871    2.7611   -0.4691 H       1  LIG1        0.0619
     15 H           3.0033    0.5802   -0.8763 H       1  LIG1        0.0618
     16 H           1.7515   -1.5305   -0.5741 H       1  LIG1        0.0627
@<TRIPOS>BOND
     1     1     2    1
     2     2     3    1
     3     3     4   ar
     4     4     5    1
     5     4     6   ar
     6     6     7   ar
     7     7     8   ar
     8     8     9   ar
     9     3     9   ar
    10     2    10    2
    11     1    11    1
    12     5    12    1
    13     6    13    1
    14     7    14    1
    15     8    15    1
    16     9    16    1
