@<TRIPOS>MOLECULE
NuBBE_554
 41 42 0 0 0
SMALL
GASTEIGER

@<TRIPOS>ATOM
      1 O           2.8133    2.2281    0.3541 O.3     1  LIG1       -0.3877
      2 C           1.9635    1.1020    0.1348 C.3     1  LIG1        0.0760
      3 H           2.2251    0.3676    0.9031 H       1  LIG1        0.0638
      4 C           2.2809    0.5385   -1.2565 C.3     1  LIG1        0.0030
      5 C           1.5293   -0.7280   -1.6888 C.3     1  LIG1        0.0612
      6 H           0.4622   -0.5086   -1.8079 H       1  LIG1        0.0595
      7 O           2.0432   -1.1085   -2.9708 O.3     1  LIG1       -0.3916
      8 C           1.7261   -1.9211   -0.7418 C.3     1  LIG1        0.0108
      9 C           0.9871   -3.1851   -1.2294 C.3     1  LIG1        0.1091
     10 O          -0.4345   -2.9047   -1.3217 O.3     1  LIG1       -0.4579
     11 C          -1.2119   -2.9450   -0.2199 C.2     1  LIG1        0.3319
     12 C          -0.6765   -3.6707    0.9524 C.2     1  LIG1        0.0187
     13 C           0.4440   -4.3799    0.8900 C.2     1  LIG1       -0.0738
     14 C           1.2511   -4.4188   -0.3625 C.3     1  LIG1        0.0032
     15 O          -2.3130   -2.4228   -0.1871 O.2     1  LIG1       -0.2456
     16 C           0.5248    1.4937    0.3344 C.2     1  LIG1       -0.0553
     17 C           0.0669    2.7162    0.6596 C.2     1  LIG1       -0.0561
     18 C          -1.3449    3.0248    0.9246 C.ar    1  LIG1       -0.0252
     19 C          -2.3922    2.3273    0.3105 C.ar    1  LIG1       -0.0546
     20 C          -3.7202    2.6317    0.6102 C.ar    1  LIG1       -0.0612
     21 C          -4.0158    3.6522    1.5105 C.ar    1  LIG1       -0.0617
     22 C          -2.9843    4.3771    2.1036 C.ar    1  LIG1       -0.0612
     23 C          -1.6547    4.0689    1.8076 C.ar    1  LIG1       -0.0546
     24 H           2.5509    2.9119   -0.2858 H       1  LIG1        0.2102
     25 H           3.3625    0.3506   -1.3138 H       1  LIG1        0.0318
     26 H           2.1152    1.3198   -2.0125 H       1  LIG1        0.0318
     27 H           1.4251   -0.7741   -3.6460 H       1  LIG1        0.2098
     28 H           1.3689   -1.6490    0.2562 H       1  LIG1        0.0326
     29 H           2.7963   -2.1511   -0.6672 H       1  LIG1        0.0326
     30 H           1.3206   -3.4241   -2.2470 H       1  LIG1        0.0738
     31 H          -1.3082   -3.6457    1.8448 H       1  LIG1        0.0686
     32 H           0.7761   -4.9548    1.7476 H       1  LIG1        0.0575
     33 H           0.9703   -5.3281   -0.9093 H       1  LIG1        0.0343
     34 H           2.3184   -4.4988   -0.1252 H       1  LIG1        0.0343
     35 H          -0.1794    0.6669    0.2671 H       1  LIG1        0.0598
     36 H           0.7542    3.5465    0.8042 H       1  LIG1        0.0621
     37 H          -2.1935    1.5335   -0.4048 H       1  LIG1        0.0623
     38 H          -4.5193    2.0637    0.1411 H       1  LIG1        0.0618
     39 H          -5.0507    3.8813    1.7485 H       1  LIG1        0.0618
     40 H          -3.2128    5.1764    2.8036 H       1  LIG1        0.0618
     41 H          -0.8638    4.6401    2.2896 H       1  LIG1        0.0623
@<TRIPOS>BOND
     1     2     4    1
     2     4     5    1
     3     5     6    1
     4     5     7    1
     5     5     8    1
     6     8     9    1
     7     9    10    1
     8    10    11    1
     9    11    12    1
    10    12    13    2
    11    13    14    1
    12     9    14    1
    13    11    15    2
    14     2    16    1
    15    16    17    2
    16    17    18    1
    17    18    19   ar
    18    19    20   ar
    19    20    21   ar
    20    21    22   ar
    21    22    23   ar
    22    18    23   ar
    23     2     3    1
    24     2     1    1
    25     1    24    1
    26     4    25    1
    27     4    26    1
    28     7    27    1
    29     8    28    1
    30     8    29    1
    31     9    30    1
    32    12    31    1
    33    13    32    1
    34    14    33    1
    35    14    34    1
    36    16    35    1
    37    17    36    1
    38    19    37    1
    39    20    38    1
    40    21    39    1
    41    22    40    1
    42    23    41    1
