@<TRIPOS>MOLECULE
NuBBE_399
 29 30 0 0 0
SMALL
GASTEIGER

@<TRIPOS>ATOM
      1 C           1.0963   -0.2778    1.5584 C.ar    1  LIG1       -0.0375
      2 C           1.7012    0.5612    0.4592 C.3     1  LIG1        0.0191
      3 S           1.0470    2.2610    0.3579 S.3     1  LIG1       -0.1514
      4 C          -0.6712    1.9567   -0.1816 C.3     1  LIG1        0.0191
      5 C          -0.7819    1.1809   -1.4698 C.ar    1  LIG1       -0.0375
      6 C          -0.2838    1.7078   -2.6713 C.ar    1  LIG1       -0.0578
      7 C          -0.3169    0.9542   -3.8444 C.ar    1  LIG1       -0.0615
      8 C          -0.8438   -0.3354   -3.8317 C.ar    1  LIG1       -0.0617
      9 C          -1.3774   -0.8559   -2.6542 C.ar    1  LIG1       -0.0615
     10 C          -1.3674   -0.0931   -1.4859 C.ar    1  LIG1       -0.0578
     11 C           1.2562    0.0852    2.9042 C.ar    1  LIG1       -0.0578
     12 C           0.7077   -0.7009    3.9207 C.ar    1  LIG1       -0.0615
     13 C          -0.0103   -1.8482    3.6048 C.ar    1  LIG1       -0.0617
     14 C          -0.1628   -2.2283    2.2758 C.ar    1  LIG1       -0.0615
     15 C           0.3955   -1.4538    1.2595 C.ar    1  LIG1       -0.0578
     16 H           1.6069    0.0696   -0.5164 H       1  LIG1        0.0425
     17 H           2.7793    0.6381    0.6435 H       1  LIG1        0.0425
     18 H          -1.1454    2.9344   -0.3274 H       1  LIG1        0.0425
     19 H          -1.2212    1.4699    0.6310 H       1  LIG1        0.0425
     20 H           0.1497    2.7059   -2.6919 H       1  LIG1        0.0621
     21 H           0.0820    1.3699   -4.7665 H       1  LIG1        0.0618
     22 H          -0.8429   -0.9318   -4.7396 H       1  LIG1        0.0618
     23 H          -1.7944   -1.8597   -2.6456 H       1  LIG1        0.0618
     24 H          -1.8009   -0.5092   -0.5781 H       1  LIG1        0.0621
     25 H           1.8305    0.9701    3.1698 H       1  LIG1        0.0621
     26 H           0.8420   -0.4081    4.9626 H       1  LIG1        0.0618
     27 H          -0.4464   -2.4529    4.4004 H       1  LIG1        0.0618
     28 H          -0.7117   -3.1317    2.0294 H       1  LIG1        0.0618
     29 H           0.2843   -1.7780    0.2271 H       1  LIG1        0.0621
@<TRIPOS>BOND
     1     1     2    1
     2     2     3    1
     3     3     4    1
     4     4     5    1
     5     5     6   ar
     6     6     7   ar
     7     7     8   ar
     8     8     9   ar
     9     9    10   ar
    10     5    10   ar
    11     1    11   ar
    12    11    12   ar
    13    12    13   ar
    14    13    14   ar
    15    14    15   ar
    16     1    15   ar
    17     2    16    1
    18     2    17    1
    19     4    18    1
    20     4    19    1
    21     6    20    1
    22     7    21    1
    23     8    22    1
    24     9    23    1
    25    10    24    1
    26    11    25    1
    27    12    26    1
    28    13    27    1
    29    14    28    1
    30    15    29    1
