REMARK  Name = NuBBE_1742
REMARK  4 active torsions:
REMARK  status: ('A' for Active; 'I' for Inactive)
REMARK    1  A    between atoms: C_1  and  C_2
REMARK    2  A    between atoms: C_1  and  C_3
REMARK    3  A    between atoms: C_1  and  C_4
REMARK    4  A    between atoms: C_7  and  C_12
REMARK                            x       y       z     vdW  Elec       q    Type
REMARK                         _______ _______ _______ _____ _____    ______ ____
ROOT
ATOM      1  C   LIG A   1      -0.497  -0.205  -0.100  0.00  0.00    +0.125 C 
ATOM      2  C   LIG A   1       0.108   0.505  -1.334  0.00  0.00    +0.046 C 
ATOM      3  C   LIG A   1       1.645   0.413  -1.272  0.00  0.00    +0.045 C 
ATOM      4  C   LIG A   1       2.051  -0.309   0.024  0.00  0.00    +0.120 C 
ATOM      5  C   LIG A   1       1.422   0.372   1.214  0.00  0.00    +0.009 C 
ATOM      6  C   LIG A   1       0.084   0.419   1.155  0.00  0.00    +0.009 C 
ATOM      7  O   LIG A   1       1.484  -1.637  -0.043  0.00  0.00    -0.223 OA
ATOM      8  O   LIG A   1      -0.009  -1.575  -0.170  0.00  0.00    -0.223 OA
ATOM      9  C   LIG A   1       3.562  -0.442   0.155  0.00  0.00    +0.049 C 
ENDROOT
BRANCH   1  10
ATOM     10  C   LIG A   1      -2.048  -0.262  -0.145  0.00  0.00    +0.022 C 
ATOM     11  C   LIG A   1      -2.640  -1.097   1.001  0.00  0.00    +0.010 C 
ATOM     12  C   LIG A   1      -2.718   1.116  -0.170  0.00  0.00    +0.010 C 
ENDBRANCH   1  10
TORSDOF 1
