@<TRIPOS>MOLECULE
NuBBE_1058
 24 26 0 0 0
SMALL
GASTEIGER

@<TRIPOS>ATOM
      1 O          -4.4485    1.4149   -0.0228 O.2     1  LIG1       -0.2452
      2 C          -3.2245    1.4412   -0.0521 C.ar    1  LIG1        0.3373
      3 C          -2.5001    2.7149   -0.1694 C.ar    1  LIG1        0.0236
      4 C          -1.1661    2.7807   -0.2048 C.ar    1  LIG1       -0.0428
      5 O          -2.4449    0.2996    0.0218 O.2     1  LIG1       -0.4182
      6 C          -1.0230    0.3371   -0.0137 C.ar    1  LIG1        0.1855
      7 C          -0.3614    1.5634   -0.1268 C.ar    1  LIG1        0.0404
      8 C           1.0404    1.5537   -0.1588 C.ar    1  LIG1        0.0626
      9 CL          2.0119    2.9630   -0.2933 Cl      1  LIG1       -0.0821
     10 C           1.7650    0.3469   -0.0812 C.ar    1  LIG1        0.0429
     11 C           3.1397   -0.0338   -0.0857 C.ar    1  LIG1       -0.0146
     12 C           3.1685   -1.4021    0.0201 C.ar    1  LIG1        0.0934
     13 O           1.9094   -1.8971    0.0909 O.2     1  LIG1       -0.4591
     14 C           1.0417   -0.8428    0.0312 C.ar    1  LIG1        0.1813
     15 C          -0.3595   -0.9040    0.0719 C.ar    1  LIG1        0.2061
     16 O          -1.1608   -2.0267    0.1784 O.3     1  LIG1       -0.4884
     17 C          -0.4980   -3.2751    0.3234 C.3     1  LIG1        0.0791
     18 H          -3.1177    3.6034   -0.2257 H       1  LIG1        0.0689
     19 H          -0.6736    3.7434   -0.2921 H       1  LIG1        0.0627
     20 H           4.0020    0.6147   -0.1587 H       1  LIG1        0.0655
     21 H           3.9632   -2.1348    0.0566 H       1  LIG1        0.1030
     22 H          -1.2662   -4.0475    0.4291 H       1  LIG1        0.0660
     23 H           0.1146   -3.2966    1.2303 H       1  LIG1        0.0660
     24 H           0.0882   -3.5166   -0.5687 H       1  LIG1        0.0660
@<TRIPOS>BOND
     1     1     2    2
     2     2     3   ar
     3     3     4   ar
     4     2     5   ar
     5     5     6   ar
     6     6     7   ar
     7     4     7   ar
     8     7     8   ar
     9     8     9    1
    10     8    10   ar
    11    10    11   ar
    12    11    12   ar
    13    12    13   ar
    14    10    14   ar
    15    13    14   ar
    16    14    15   ar
    17     6    15   ar
    18    15    16    1
    19    16    17    1
    20     3    18    1
    21     4    19    1
    22    11    20    1
    23    12    21    1
    24    17    22    1
    25    17    23    1
    26    17    24    1
