@<TRIPOS>MOLECULE
NuBBE_1623
 26 27 0 0 0
SMALL
GASTEIGER

@<TRIPOS>ATOM
      1 C          -0.8314    2.8193    1.2986 C.3     1  LIG1        0.0791
      2 O          -0.5552    1.5018    1.7686 O.3     1  LIG1       -0.4884
      3 C          -0.2078    0.5700    0.8197 C.ar    1  LIG1        0.2084
      4 C          -0.5879   -0.7503    1.1298 C.ar    1  LIG1        0.2048
      5 O          -1.2055   -0.9739    2.3355 O.3     1  LIG1       -0.5008
      6 C          -0.2974   -1.8123    0.2666 C.ar    1  LIG1        0.1658
      7 C           0.4624   -1.5598   -0.8805 C.ar    1  LIG1       -0.0054
      8 C           0.8938   -0.2657   -1.1833 C.ar    1  LIG1        0.0250
      9 C           1.7436   -0.0114   -2.3376 C.ar    1  LIG1       -0.0441
     10 C           2.1668    1.2304   -2.5920 C.ar    1  LIG1        0.0236
     11 O          -0.6103   -3.1336    0.4404 O.3     1  LIG1       -0.4913
     12 C          -1.8102   -3.4131    1.1530 C.3     1  LIG1        0.0790
     13 C           0.5387    0.7921   -0.3413 C.ar    1  LIG1        0.1843
     14 O           0.9956    2.0925   -0.6460 O.2     1  LIG1       -0.4183
     15 C           1.7867    2.3705   -1.7488 C.ar    1  LIG1        0.3373
     16 O           2.1596    3.5102   -2.0187 O.2     1  LIG1       -0.2452
     17 H          -1.3422    3.3568    2.1041 H       1  LIG1        0.0660
     18 H          -1.4987    2.8087    0.4299 H       1  LIG1        0.0660
     19 H           0.0903    3.3697    1.0928 H       1  LIG1        0.0660
     20 H          -1.0981   -0.1437    2.8399 H       1  LIG1        0.2924
     21 H           0.7278   -2.3953   -1.5250 H       1  LIG1        0.0662
     22 H           2.0431   -0.8431   -2.9664 H       1  LIG1        0.0627
     23 H           2.8127    1.4545   -3.4320 H       1  LIG1        0.0689
     24 H          -2.0750   -4.4561    0.9500 H       1  LIG1        0.0660
     25 H          -2.6437   -2.7901    0.8106 H       1  LIG1        0.0660
     26 H          -1.6577   -3.3282    2.2321 H       1  LIG1        0.0660
@<TRIPOS>BOND
     1     1     2    1
     2     2     3    1
     3     3     4   ar
     4     4     5    1
     5     4     6   ar
     6     6     7   ar
     7     7     8   ar
     8     8     9   ar
     9     9    10   ar
    10     6    11    1
    11    11    12    1
    12     3    13   ar
    13     8    13   ar
    14    13    14   ar
    15    14    15   ar
    16    10    15   ar
    17    15    16    2
    18     1    17    1
    19     1    18    1
    20     1    19    1
    21     5    20    1
    22     7    21    1
    23     9    22    1
    24    10    23    1
    25    12    24    1
    26    12    25    1
    27    12    26    1
