REMARK  Name = NuBBE_1666
REMARK  11 active torsions:
REMARK  status: ('A' for Active; 'I' for Inactive)
REMARK    1  A    between atoms: C_2  and  C_3
REMARK    2  A    between atoms: C_2  and  C_12
REMARK    3  A    between atoms: C_12  and  C_14
REMARK    4  A    between atoms: C_12  and  C_15
REMARK    5  A    between atoms: C_15  and  C_17
REMARK    6  A    between atoms: C_15  and  C_18
REMARK    7  A    between atoms: C_18  and  C_19
REMARK    8  A    between atoms: C_22  and  O_23
REMARK    9  A    between atoms: O_23  and  C_24
REMARK   10  A    between atoms: C_25  and  O_26
REMARK   11  A    between atoms: O_26  and  C_27
REMARK                            x       y       z     vdW  Elec       q    Type
REMARK                         _______ _______ _______ _____ _____    ______ ____
ROOT
ATOM      1  C   LIG A   1      -1.522   0.329   0.577  0.00  0.00    +0.060 C 
ATOM      2  C   LIG A   1      -1.645   1.120   1.884  0.00  0.00    +0.016 C 
ENDROOT
BRANCH   1   4
ATOM      3  O   LIG A   1      -2.093  -1.947   1.178  0.00  0.00    -0.292 OA
ATOM      4  C   LIG A   1      -2.463  -0.873   0.694  0.00  0.00    +0.166 C 
BRANCH   4   5
ATOM      5  C   LIG A   1      -3.899  -0.725   0.312  0.00  0.00    +0.021 A 
ATOM      6  C   LIG A   1      -4.316   0.122  -0.738  0.00  0.00    +0.015 A 
ATOM      7  C   LIG A   1      -5.674   0.237  -1.063  0.00  0.00    +0.050 A 
ATOM      8  C   LIG A   1      -6.578  -0.499  -0.330  0.00  0.00    +0.166 A 
ATOM      9  O   LIG A   1      -7.925  -0.510  -0.508  0.00  0.00    -0.453 OA
ATOM     10  C   LIG A   1      -8.330  -1.430   0.528  0.00  0.00    +0.466 C 
ATOM     11  O   LIG A   1      -7.222  -1.965   1.282  0.00  0.00    -0.453 OA
ATOM     12  C   LIG A   1      -6.175  -1.331   0.688  0.00  0.00    +0.167 A 
ATOM     13  C   LIG A   1      -4.847  -1.471   1.030  0.00  0.00    +0.060 A 
ENDBRANCH   4   5
ENDBRANCH   1   4
BRANCH   1  14
ATOM     14  C   LIG A   1      -0.056  -0.105   0.261  0.00  0.00    +0.001 C 
ATOM     15  C   LIG A   1       0.005  -0.787  -1.117  0.00  0.00    +0.008 C 
BRANCH  14  16
ATOM     16  C   LIG A   1       0.895   1.112   0.319  0.00  0.00    +0.039 C 
BRANCH  16  17
ATOM     17  C   LIG A   1       2.337   0.868  -0.047  0.00  0.00    -0.043 A 
ATOM     18  C   LIG A   1       2.888   1.547  -1.131  0.00  0.00    +0.007 A 
ATOM     19  C   LIG A   1       4.241   1.415  -1.432  0.00  0.00    +0.050 A 
ATOM     20  C   LIG A   1       5.081   0.584  -0.678  0.00  0.00    +0.162 A 
ATOM     21  C   LIG A   1       4.537  -0.111   0.419  0.00  0.00    +0.162 A 
ATOM     22  C   LIG A   1       3.168   0.039   0.718  0.00  0.00    +0.053 A 
BRANCH  20  23
ATOM     23  O   LIG A   1       6.408   0.424  -0.982  0.00  0.00    -0.491 OA
ATOM     24  C   LIG A   1       6.919   1.140  -2.100  0.00  0.00    +0.277 C 
ENDBRANCH  20  23
BRANCH  21  25
ATOM     25  O   LIG A   1       5.173  -0.952   1.298  0.00  0.00    -0.491 OA
ATOM     26  C   LIG A   1       6.574  -1.142   1.163  0.00  0.00    +0.277 C 
ENDBRANCH  21  25
ENDBRANCH  16  17
ENDBRANCH  14  16
ENDBRANCH   1  14
TORSDOF 7
