@<TRIPOS>MOLECULE
NuBBE_470
 75 79 0 0 0
SMALL
GASTEIGER

@<TRIPOS>ATOM
      1 C           0.8127    3.7779    2.3277 C.2     1  LIG1       -0.0967
      2 C           0.4332    2.6903    1.6287 C.2     1  LIG1       -0.0448
      3 C          -0.6317    2.7168    0.5249 C.3     1  LIG1        0.0839
      4 H          -1.5308    2.2296    0.9106 H       1  LIG1        0.0646
      5 O          -1.0018    4.0702    0.2524 O.3     1  LIG1       -0.3869
      6 C          -0.1687    2.0208   -0.8152 C.3     1  LIG1        0.0284
      7 H           0.7517    2.5648   -1.0958 H       1  LIG1        0.0386
      8 C          -1.0095    2.4268   -2.0189 C.2     1  LIG1       -0.0807
      9 C          -1.8068    1.8756   -2.9449 C.2     1  LIG1       -0.0870
     10 C          -2.3584    0.4986   -3.1603 C.3     1  LIG1       -0.0287
     11 C          -3.9158    0.5048   -3.1847 C.3     1  LIG1       -0.0220
     12 H          -4.2210    1.1246   -4.0423 H       1  LIG1        0.0343
     13 C          -4.4406   -0.8918   -3.5111 C.3     1  LIG1       -0.0587
     14 C          -4.5116    1.2190   -1.9766 C.2     1  LIG1       -0.0791
     15 C          -5.0698    0.8095   -0.8158 C.2     1  LIG1       -0.0407
     16 C          -5.5091    1.8571    0.1893 C.3     1  LIG1       -0.0409
     17 C          -5.2882   -0.6115   -0.3652 C.3     1  LIG1        0.1377
     18 H          -5.1168   -1.3490   -1.1441 H       1  LIG1        0.0724
     19 O          -6.6717   -0.7389   -0.0213 O.3     1  LIG1       -0.3796
     20 C          -4.4086   -1.0398    0.8330 C.2     1  LIG1        0.1885
     21 O          -4.9291   -1.4589    1.8725 O.2     1  LIG1       -0.2895
     22 C           0.3236    0.5799   -0.5037 C.3     1  LIG1        0.1225
     23 C           1.5297    0.8050    0.4879 C.3     1  LIG1        0.0058
     24 H           2.1417    1.6149    0.0446 H       1  LIG1        0.0339
     25 C           1.1637    1.3652    1.8644 C.3     1  LIG1       -0.0147
     26 H           2.1158    1.5802    2.3702 H       1  LIG1        0.0347
     27 C           0.3927    0.4549    2.8139 C.3     1  LIG1       -0.0583
     28 C          -0.6714   -0.4630    0.0691 C.2     1  LIG1        0.1721
     29 C          -2.1393   -0.2175    0.1209 C.2     1  LIG1       -0.0147
     30 C          -2.9302   -1.1263    0.7096 C.2     1  LIG1       -0.0129
     31 O          -0.2670   -1.5425    0.5136 O.2     1  LIG1       -0.2915
     32 C           1.1006   -0.1113   -1.6236 C.2     1  LIG1        0.2280
     33 N           2.2905   -0.6109   -1.1096 N.am    1  LIG1       -0.3110
     34 C           2.4319   -0.4159    0.3224 C.3     1  LIG1        0.0319
     35 C           3.8787   -0.1320    0.7622 C.3     1  LIG1       -0.0069
     36 C           4.8458   -1.2298    0.4418 C.ar    1  LIG1       -0.0206
     37 C           5.5807   -1.3462   -0.7232 C.ar    1  LIG1        0.0060
     38 N           6.3773   -2.4532   -0.6228 N.ar    1  LIG1       -0.3604
     39 C           6.1925   -3.0617    0.5958 C.ar    1  LIG1        0.0467
     40 C           6.8076   -4.1979    1.1349 C.ar    1  LIG1       -0.0378
     41 C           6.4266   -4.5925    2.4199 C.ar    1  LIG1       -0.0598
     42 C           5.4659   -3.8796    3.1327 C.ar    1  LIG1       -0.0611
     43 C           4.8598   -2.7455    2.5780 C.ar    1  LIG1       -0.0523
     44 C           5.2294   -2.3225    1.2843 C.ar    1  LIG1        0.0029
     45 O           0.7258   -0.2964   -2.7710 O.2     1  LIG1       -0.2747
     46 H           0.3771    4.7589    2.1665 H       1  LIG1        0.0535
     47 H           1.5953    3.7282    3.0799 H       1  LIG1        0.0535
     48 H          -1.5085    4.3843    1.0204 H       1  LIG1        0.2102
     49 H          -0.8663    3.5021   -2.1975 H       1  LIG1        0.0573
     50 H          -2.1616    2.5718   -3.7114 H       1  LIG1        0.0569
     51 H          -1.9849   -0.2131   -2.4258 H       1  LIG1        0.0313
     52 H          -1.9950    0.1410   -4.1326 H       1  LIG1        0.0313
     53 H          -3.9913   -1.6580   -2.8726 H       1  LIG1        0.0235
     54 H          -4.1854   -1.1554   -4.5441 H       1  LIG1        0.0235
     55 H          -5.5312   -0.9400   -3.4250 H       1  LIG1        0.0235
     56 H          -4.4425    2.3039   -2.1075 H       1  LIG1        0.0575
     57 H          -6.5971    1.8533    0.3049 H       1  LIG1        0.0275
     58 H          -5.2113    2.8693   -0.1056 H       1  LIG1        0.0275
     59 H          -5.0525    1.6672    1.1667 H       1  LIG1        0.0275
     60 H          -6.6960   -1.2651    0.8033 H       1  LIG1        0.2108
     61 H           0.8414   -0.5416    2.8628 H       1  LIG1        0.0236
     62 H          -0.6625    0.3576    2.5496 H       1  LIG1        0.0236
     63 H           0.4148    0.8700    3.8289 H       1  LIG1        0.0236
     64 H          -2.5161    0.6911   -0.3127 H       1  LIG1        0.0654
     65 H          -2.5165   -2.0092    1.1929 H       1  LIG1        0.0654
     66 H           2.8339   -1.2792   -1.6448 H       1  LIG1        0.1490
     67 H           2.0571   -1.3089    0.8299 H       1  LIG1        0.0505
     68 H           3.8974    0.0566    1.8427 H       1  LIG1        0.0332
     69 H           4.2423    0.7892    0.2871 H       1  LIG1        0.0332
     70 H           5.6098   -0.7265   -1.6101 H       1  LIG1        0.0810
     71 H           7.0244   -2.7731   -1.3300 H       1  LIG1        0.1653
     72 H           7.5576   -4.7540    0.5820 H       1  LIG1        0.0638
     73 H           6.8885   -5.4691    2.8684 H       1  LIG1        0.0618
     74 H           5.1842   -4.2046    4.1312 H       1  LIG1        0.0618
     75 H           4.1150   -2.1984    3.1474 H       1  LIG1        0.0624
@<TRIPOS>BOND
     1     1     2    2
     2     2     3    1
     3     3     4    1
     4     3     5    1
     5     3     6    1
     6     6     7    1
     7     6     8    1
     8     8     9    2
     9     9    10    1
    10    10    11    1
    11    11    14    1
    12    14    15    2
    13    15    16    1
    14    15    17    1
    15    17    18    1
    16    17    19    1
    17    17    20    1
    18    20    21    2
    19     6    22    1
    20    22    23    1
    21    23    24    1
    22    23    25    1
    23    25    26    1
    24     2    25    1
    25    25    27    1
    26    22    28    1
    27    28    29    1
    28    29    30    2
    29    20    30    1
    30    28    31    2
    31    22    32    1
    32    32    33   am
    33    33    34    1
    34    23    34    1
    35    34    35    1
    36    35    36    1
    37    36    37   ar
    38    37    38   ar
    39    38    39   ar
    40    39    40   ar
    41    40    41   ar
    42    41    42   ar
    43    42    43   ar
    44    43    44   ar
    45    39    44   ar
    46    36    44   ar
    47    32    45    2
    48    11    13    1
    49    11    12    1
    50     1    46    1
    51     1    47    1
    52     5    48    1
    53     8    49    1
    54     9    50    1
    55    10    51    1
    56    10    52    1
    57    13    53    1
    58    13    54    1
    59    13    55    1
    60    14    56    1
    61    16    57    1
    62    16    58    1
    63    16    59    1
    64    19    60    1
    65    27    61    1
    66    27    62    1
    67    27    63    1
    68    29    64    1
    69    30    65    1
    70    33    66    1
    71    34    67    1
    72    35    68    1
    73    35    69    1
    74    37    70    1
    75    38    71    1
    76    40    72    1
    77    41    73    1
    78    42    74    1
    79    43    75    1
