@<TRIPOS>MOLECULE
NuBBE_1526
 63 65 0 0 0
SMALL
GASTEIGER

@<TRIPOS>ATOM
      1 C          -1.8866   -0.5844   -2.8263 C.3     1  LIG1       -0.0594
      2 C          -0.6003   -0.4856   -2.0069 C.3     1  LIG1       -0.0081
      3 H           0.2440   -0.3686   -2.7003 H       1  LIG1        0.0330
      4 C          -0.6220    0.6617   -0.9974 C.3     1  LIG1        0.0875
      5 H          -1.6309    0.8051   -0.5924 H       1  LIG1        0.0649
      6 C          -0.1245    1.9738   -1.5569 C.ar    1  LIG1       -0.0115
      7 C          -1.0148    2.8371   -2.1668 C.ar    1  LIG1       -0.0104
      8 C          -0.6702    4.1384   -2.5686 C.ar    1  LIG1        0.1655
      9 O          -1.6159    5.0586   -2.9527 O.3     1  LIG1       -0.4913
     10 C          -2.9810    4.6355   -2.9490 C.3     1  LIG1        0.0790
     11 C           0.6895    4.5225   -2.4879 C.ar    1  LIG1        0.2035
     12 O           1.2135    5.7449   -2.8377 O.3     1  LIG1       -0.4885
     13 C           0.6806    6.4553   -3.9453 C.3     1  LIG1        0.0791
     14 C           1.6203    3.6252   -1.9273 C.ar    1  LIG1        0.1655
     15 O           2.9343    4.0468   -1.8344 O.3     1  LIG1       -0.4913
     16 C           3.9126    3.0140   -1.7921 C.3     1  LIG1        0.0790
     17 C           1.2118    2.3789   -1.4349 C.ar    1  LIG1       -0.0104
     18 O           0.1896    0.2740    0.1153 O.3     1  LIG1       -0.3636
     19 C           0.4577   -1.1291    0.0471 C.3     1  LIG1        0.0875
     20 H           1.5308   -1.2136   -0.1665 H       1  LIG1        0.0649
     21 C           0.1776   -1.7689    1.3927 C.ar    1  LIG1       -0.0115
     22 C          -0.7741   -1.2765    2.2969 C.ar    1  LIG1       -0.0104
     23 C          -1.0074   -1.9077    3.5344 C.ar    1  LIG1        0.1655
     24 O          -1.9930   -1.2971    4.2768 O.3     1  LIG1       -0.4913
     25 C          -1.8623   -1.3595    5.6934 C.3     1  LIG1        0.0790
     26 C          -0.3255   -3.0964    3.8637 C.ar    1  LIG1        0.2035
     27 O          -0.7660   -3.7859    4.9633 O.3     1  LIG1       -0.4885
     28 C           0.1798   -4.3922    5.8359 C.3     1  LIG1        0.0791
     29 C           0.5944   -3.6231    2.9343 C.ar    1  LIG1        0.1655
     30 O           1.1640   -4.8458    3.1926 O.3     1  LIG1       -0.4913
     31 C           1.5755   -5.5937    2.0523 C.3     1  LIG1        0.0790
     32 C           0.8733   -2.9251    1.7476 C.ar    1  LIG1       -0.0104
     33 C          -0.3697   -1.7022   -1.1137 C.3     1  LIG1       -0.0081
     34 H          -1.3325   -2.0811   -0.7452 H       1  LIG1        0.0330
     35 C           0.3423   -2.8278   -1.8622 C.3     1  LIG1       -0.0594
     36 H          -2.0289    0.3046   -3.4483 H       1  LIG1        0.0233
     37 H          -2.7649   -0.6818   -2.1781 H       1  LIG1        0.0233
     38 H          -1.8660   -1.4532   -3.4917 H       1  LIG1        0.0233
     39 H          -2.0371    2.4731   -2.2750 H       1  LIG1        0.0659
     40 H          -3.2516    4.0061   -2.0926 H       1  LIG1        0.0660
     41 H          -3.2061    4.1194   -3.8887 H       1  LIG1        0.0660
     42 H          -3.6226    5.5160   -2.8694 H       1  LIG1        0.0660
     43 H           0.2279    7.3834   -3.5823 H       1  LIG1        0.0660
     44 H          -0.0274    5.8982   -4.5624 H       1  LIG1        0.0660
     45 H           1.5184    6.7393   -4.5952 H       1  LIG1        0.0660
     46 H           4.9014    3.4779   -1.8487 H       1  LIG1        0.0660
     47 H           3.8057    2.3401   -2.6494 H       1  LIG1        0.0660
     48 H           3.8747    2.4584   -0.8496 H       1  LIG1        0.0660
     49 H           1.8980    1.7254   -0.9200 H       1  LIG1        0.0659
     50 H          -1.3464   -0.3835    2.0514 H       1  LIG1        0.0659
     51 H          -0.8527   -1.0899    6.0218 H       1  LIG1        0.0660
     52 H          -2.1659   -2.3336    6.0849 H       1  LIG1        0.0660
     53 H          -2.5576   -0.6305    6.1232 H       1  LIG1        0.0660
     54 H           0.2931   -3.7687    6.7289 H       1  LIG1        0.0660
     55 H           1.1728   -4.5724    5.4241 H       1  LIG1        0.0660
     56 H          -0.2444   -5.3495    6.1570 H       1  LIG1        0.0660
     57 H           0.8284   -5.5587    1.2508 H       1  LIG1        0.0660
     58 H           1.6857   -6.6376    2.3556 H       1  LIG1        0.0660
     59 H           2.5489   -5.2416    1.6944 H       1  LIG1        0.0660
     60 H           1.6236   -3.2963    1.0549 H       1  LIG1        0.0659
     61 H           0.5144   -3.6908   -1.2131 H       1  LIG1        0.0233
     62 H           1.3145   -2.4961   -2.2454 H       1  LIG1        0.0233
     63 H          -0.2505   -3.1652   -2.7190 H       1  LIG1        0.0233
@<TRIPOS>BOND
     1     1     2    1
     2     2     3    1
     3     2     4    1
     4     6     7   ar
     5     7     8   ar
     6     8     9    1
     7     9    10    1
     8     8    11   ar
     9    11    12    1
    10    12    13    1
    11    11    14   ar
    12    14    15    1
    13    15    16    1
    14    14    17   ar
    15     6    17   ar
    16     4    18    1
    17    18    19    1
    18    21    22   ar
    19    22    23   ar
    20    23    24    1
    21    24    25    1
    22    23    26   ar
    23    26    27    1
    24    27    28    1
    25    26    29   ar
    26    29    30    1
    27    30    31    1
    28    29    32   ar
    29    21    32   ar
    30    19    33    1
    31    33    34    1
    32     2    33    1
    33    33    35    1
    34     4     6    1
    35     4     5    1
    36    19    21    1
    37    19    20    1
    38     1    36    1
    39     1    37    1
    40     1    38    1
    41     7    39    1
    42    10    40    1
    43    10    41    1
    44    10    42    1
    45    13    43    1
    46    13    44    1
    47    13    45    1
    48    16    46    1
    49    16    47    1
    50    16    48    1
    51    17    49    1
    52    22    50    1
    53    25    51    1
    54    25    52    1
    55    25    53    1
    56    28    54    1
    57    28    55    1
    58    28    56    1
    59    31    57    1
    60    31    58    1
    61    31    59    1
    62    32    60    1
    63    35    61    1
    64    35    62    1
    65    35    63    1
