REMARK  Name = NuBBE_1686
REMARK  13 active torsions:
REMARK  status: ('A' for Active; 'I' for Inactive)
REMARK    1  A    between atoms: C_2  and  C_3
REMARK    2  A    between atoms: C_3  and  C_4
REMARK    3  A    between atoms: C_5  and  C_6
REMARK    4  A    between atoms: C_6  and  C_7
REMARK    5  A    between atoms: C_8  and  C_9
REMARK    6  A    between atoms: C_9  and  C_10
REMARK    7  A    between atoms: C_10  and  C_11
REMARK    8  A    between atoms: C_11  and  C_12
REMARK    9  A    between atoms: C_12  and  C_13
REMARK   10  A    between atoms: C_13  and  C_14
REMARK   11  A    between atoms: C_14  and  C_15
REMARK   12  A    between atoms: C_15  and  C_16
REMARK   13  A    between atoms: C_20  and  O_21
REMARK                            x       y       z     vdW  Elec       q    Type
REMARK                         _______ _______ _______ _____ _____    ______ ____
ROOT
ATOM      1  C   LIG A   1      -2.123   3.835   0.202  0.00  0.00    +0.000 C 
ENDROOT
BRANCH   1   2
ATOM      2  C   LIG A   1      -1.951   3.584   1.706  0.00  0.00    +0.000 C 
BRANCH   2   3
ATOM      3  C   LIG A   1      -0.614   2.948   2.169  0.00  0.00    +0.004 C 
BRANCH   3   4
ATOM      4  C   LIG A   1      -0.288   1.462   1.837  0.00  0.00    +0.027 C 
BRANCH   4   6
ATOM      5  C   LIG A   1       1.961   0.143   2.241  0.00  0.00    -0.027 C 
ATOM      6  C   LIG A   1       0.969   1.000   2.555  0.00  0.00    -0.031 C 
BRANCH   5   7
ATOM      7  C   LIG A   1       2.284  -0.689   1.035  0.00  0.00    +0.054 C 
BRANCH   7   9
ATOM      8  C   LIG A   1       2.422  -3.150   0.332  0.00  0.00    -0.027 C 
ATOM      9  C   LIG A   1       2.045  -2.164   1.195  0.00  0.00    -0.027 C 
BRANCH   8  10
ATOM     10  C   LIG A   1       3.146  -3.094  -0.984  0.00  0.00    +0.053 C 
BRANCH  10  12
ATOM     11  C   LIG A   1       5.067  -1.799  -1.799  0.00  0.00    +0.004 C 
ATOM     12  C   LIG A   1       3.796  -1.821  -1.318  0.00  0.00    -0.031 C 
ENDBRANCH  10  12
ENDBRANCH   8  10
ENDBRANCH   7   9
ENDBRANCH   5   7
ENDBRANCH   4   6
ENDBRANCH   3   4
ENDBRANCH   2   3
ENDBRANCH   1   2
BRANCH   1  13
ATOM     13  C   LIG A   1      -2.189   2.595  -0.692  0.00  0.00    +0.000 C 
BRANCH  13  14
ATOM     14  C   LIG A   1      -3.364   1.642  -0.440  0.00  0.00    +0.005 C 
BRANCH  14  15
ATOM     15  C   LIG A   1      -3.376   0.446  -1.407  0.00  0.00    +0.035 C 
BRANCH  15  16
ATOM     16  C   LIG A   1      -2.268  -0.553  -1.221  0.00  0.00    -0.044 A 
ATOM     17  C   LIG A   1      -2.213  -1.323  -0.052  0.00  0.00    +0.004 A 
ATOM     18  C   LIG A   1      -1.262  -2.325   0.076  0.00  0.00    +0.004 A 
ATOM     19  C   LIG A   1      -0.387  -2.578  -0.978  0.00  0.00    +0.045 A 
ATOM     20  C   LIG A   1      -0.403  -1.786  -2.118  0.00  0.00    +0.117 A 
ATOM     21  C   LIG A   1      -1.342  -0.780  -2.248  0.00  0.00    +0.049 A 
BRANCH  20  22
ATOM     22  O   LIG A   1       0.466  -1.978  -3.149  0.00  0.00    -0.507 OA
ATOM     23  H   LIG A   1       1.025  -2.742  -2.944  0.00  0.00    +0.292 HD
ENDBRANCH  20  22
ENDBRANCH  15  16
ENDBRANCH  14  15
ENDBRANCH  13  14
ENDBRANCH   1  13
TORSDOF 13
