@<TRIPOS>MOLECULE
NuBBE_2485
 38 41 0 0 0
SMALL
GASTEIGER

@<TRIPOS>ATOM
      1 O          -1.8224    0.2373    2.6692 O.2     1  LIG1       -0.2889
      2 C          -1.0506    0.0080    1.7422 C.2     1  LIG1        0.2026
      3 C          -0.5971    1.1085    0.8118 C.3     1  LIG1        0.1623
      4 H          -1.2670    1.9674    0.9589 H       1  LIG1        0.0721
      5 C          -0.7140    0.5692   -0.6120 C.3     1  LIG1        0.1588
      6 H          -1.7617    0.3414   -0.8518 H       1  LIG1        0.0816
      7 C          -0.1804    1.6051   -1.5796 C.ar    1  LIG1        0.0046
      8 C           0.7300    2.5854   -1.1221 C.ar    1  LIG1       -0.0115
      9 C           1.1148    2.6589    0.3405 C.3     1  LIG1        0.0743
     10 O           0.7469    1.5004    1.0943 O.3     1  LIG1       -0.3601
     11 C           1.2436    3.5330   -2.0233 C.ar    1  LIG1       -0.0108
     12 C           0.8629    3.4841   -3.3597 C.ar    1  LIG1        0.1586
     13 C          -0.0237    2.5084   -3.8063 C.ar    1  LIG1        0.1586
     14 C          -0.5455    1.5664   -2.9331 C.ar    1  LIG1       -0.0094
     15 O          -0.3892    2.4702   -5.1215 O.3     1  LIG1       -0.5033
     16 O           1.3361    4.3793   -4.2793 O.3     1  LIG1       -0.5033
     17 O           0.0733   -0.6091   -0.8265 O.3     1  LIG1       -0.4802
     18 C          -0.0115   -1.5603    0.1527 C.ar    1  LIG1        0.1391
     19 C          -0.5394   -1.3510    1.4330 C.ar    1  LIG1        0.1035
     20 C          -0.5641   -2.4045    2.3700 C.ar    1  LIG1        0.1376
     21 O          -1.0606   -2.1300    3.6151 O.3     1  LIG1       -0.4942
     22 C          -1.1881   -3.1926    4.5484 C.3     1  LIG1        0.0788
     23 C          -0.0544   -3.6572    2.0004 C.ar    1  LIG1        0.0225
     24 C           0.4729   -3.8451    0.7251 C.ar    1  LIG1        0.1238
     25 C           0.5029   -2.8079   -0.1953 C.ar    1  LIG1        0.0225
     26 O           0.9817   -5.0491    0.3357 O.3     1  LIG1       -0.5065
     27 H           0.6410    3.5350    0.7986 H       1  LIG1        0.0610
     28 H           2.2005    2.7685    0.4325 H       1  LIG1        0.0610
     29 H           1.9330    4.2942   -1.6703 H       1  LIG1        0.0659
     30 H          -1.2235    0.8048   -3.3085 H       1  LIG1        0.0659
     31 H           0.1032    3.2077   -5.5337 H       1  LIG1        0.2923
     32 H           1.9618    4.9742   -3.8317 H       1  LIG1        0.2923
     33 H          -1.6540   -2.7898    5.4528 H       1  LIG1        0.0660
     34 H          -0.2066   -3.5887    4.8284 H       1  LIG1        0.0660
     35 H          -1.8393   -3.9836    4.1623 H       1  LIG1        0.0660
     36 H          -0.0502   -4.4876    2.6964 H       1  LIG1        0.0691
     37 H           0.9236   -2.9701   -1.1843 H       1  LIG1        0.0691
     38 H           0.9149   -5.6807    1.0705 H       1  LIG1        0.2921
@<TRIPOS>BOND
     1     2     3    1
     2     3     5    1
     3     5     7    1
     4     7     8   ar
     5     8     9    1
     6     9    10    1
     7     3    10    1
     8     8    11   ar
     9    11    12   ar
    10    12    13   ar
    11    13    14   ar
    12     7    14   ar
    13     5    17    1
    14    17    18    1
    15    18    19   ar
    16     2    19    1
    17    19    20   ar
    18    21    22    1
    19    20    23   ar
    20    23    24   ar
    21    24    25   ar
    22    18    25   ar
    23     1     2    2
    24     3     4    1
    25     5     6    1
    26    12    16    1
    27    13    15    1
    28    20    21    1
    29    24    26    1
    30     9    27    1
    31     9    28    1
    32    11    29    1
    33    14    30    1
    34    15    31    1
    35    16    32    1
    36    22    33    1
    37    22    34    1
    38    22    35    1
    39    23    36    1
    40    25    37    1
    41    26    38    1
