@<TRIPOS>MOLECULE
NuBBE_384
 72 76 0 0 0
SMALL
GASTEIGER

@<TRIPOS>ATOM
      1 O          -6.8634   -1.9620    0.1726 O.2     1  LIG1       -0.2840
      2 C          -5.7781   -2.2736    0.6566 C.2     1  LIG1        0.2206
      3 C          -5.6480   -3.5406    1.4364 C.2     1  LIG1        0.1671
      4 O          -6.8120   -4.2558    1.6576 O.2     1  LIG1       -0.5030
      5 C          -4.4455   -3.9528    1.8816 C.2     1  LIG1        0.0022
      6 C          -4.2912   -5.2082    2.6966 C.3     1  LIG1       -0.0356
      7 C          -3.2545   -3.1697    1.5145 C.2     1  LIG1       -0.0144
      8 C          -2.0054   -3.6697    1.6167 C.2     1  LIG1       -0.0536
      9 C          -0.8525   -3.0106    1.0297 C.2     1  LIG1       -0.0569
     10 C          -0.8933   -1.7508    0.5401 C.2     1  LIG1       -0.0335
     11 C           0.1987   -1.1457   -0.2898 C.2     1  LIG1       -0.0381
     12 C           1.2777   -1.8102   -0.8105 C.2     1  LIG1       -0.0677
     13 C           1.4423   -3.3106   -0.9347 C.3     1  LIG1       -0.0432
     14 C           2.5272   -1.1173   -1.3849 C.3     1  LIG1       -0.0189
     15 C           2.5730    0.4307   -1.4288 C.3     1  LIG1        0.0361
     16 C           3.9330    0.9760   -0.9594 C.2     1  LIG1        0.1690
     17 C           4.0563    2.5052   -0.8123 C.3     1  LIG1        0.1289
     18 H           4.0296    2.9332   -1.8210 H       1  LIG1        0.0684
     19 O           5.3445    2.8188   -0.2833 O.3     1  LIG1       -0.3832
     20 C           2.9345    3.0830    0.0637 C.3     1  LIG1        0.0978
     21 C           3.1958    2.7936    1.5573 C.3     1  LIG1       -0.0466
     22 C           2.9280    4.6095   -0.1406 C.2     1  LIG1        0.3157
     23 O           2.2288    4.9164   -1.2747 O.3     1  LIG1       -0.4675
     24 C           2.3482    6.2437   -1.7837 C.3     1  LIG1        0.0817
     25 O           3.4922    5.4212    0.5642 O.2     1  LIG1       -0.2501
     26 C           1.5492    2.5175   -0.3634 C.3     1  LIG1       -0.0301
     27 O           4.9355    0.2685   -0.8302 O.2     1  LIG1       -0.2940
     28 C           2.5059    0.9000   -2.9062 C.3     1  LIG1       -0.0522
     29 C           1.5088    0.9840   -0.4433 C.3     1  LIG1       -0.0181
     30 H           1.8116    0.6490    0.5622 H       1  LIG1        0.0319
     31 C           0.0817    0.3573   -0.6590 C.3     1  LIG1       -0.0030
     32 C          -0.4018    0.4470   -2.1361 C.3     1  LIG1       -0.0552
     33 C          -0.9596    1.1383    0.1727 C.3     1  LIG1       -0.0422
     34 C          -2.2833    0.4028    0.2877 C.3     1  LIG1       -0.0388
     35 C          -2.1135   -0.9240    1.0418 C.3     1  LIG1        0.0189
     36 C          -1.8779   -0.5460    2.5461 C.3     1  LIG1       -0.0515
     37 C          -3.3960   -1.7916    0.9995 C.2     1  LIG1       -0.0259
     38 C          -4.6006   -1.3867    0.5590 C.2     1  LIG1       -0.0067
     39 H          -7.5065   -3.7567    1.1767 H       1  LIG1        0.2923
     40 H          -5.2527   -5.6505    2.9762 H       1  LIG1        0.0279
     41 H          -3.7579   -4.9958    3.6298 H       1  LIG1        0.0279
     42 H          -3.7376   -5.9700    2.1376 H       1  LIG1        0.0279
     43 H          -1.8121   -4.6670    2.0003 H       1  LIG1        0.0624
     44 H           0.0045   -3.6613    0.9471 H       1  LIG1        0.0621
     45 H           0.4877   -3.8236   -1.0798 H       1  LIG1        0.0275
     46 H           1.9798   -3.7166   -0.0728 H       1  LIG1        0.0275
     47 H           2.0219   -3.5649   -1.8301 H       1  LIG1        0.0275
     48 H           2.7000   -1.5085   -2.3970 H       1  LIG1        0.0320
     49 H           3.3645   -1.4933   -0.7823 H       1  LIG1        0.0320
     50 H           5.9264    2.0572   -0.4884 H       1  LIG1        0.2104
     51 H           2.3693    3.1515    2.1801 H       1  LIG1        0.0241
     52 H           4.1035    3.2925    1.9165 H       1  LIG1        0.0241
     53 H           3.3250    1.7230    1.7507 H       1  LIG1        0.0241
     54 H           1.3733    6.7382   -1.7476 H       1  LIG1        0.0661
     55 H           2.6462    6.1410   -2.8302 H       1  LIG1        0.0661
     56 H           3.0947    6.8471   -1.2639 H       1  LIG1        0.0661
     57 H           1.2247    2.9074   -1.3329 H       1  LIG1        0.0280
     58 H           0.8188    2.8994    0.3580 H       1  LIG1        0.0280
     59 H           3.4863    0.7955   -3.3909 H       1  LIG1        0.0239
     60 H           2.2229    1.9513   -3.0054 H       1  LIG1        0.0239
     61 H           1.8242    0.3127   -3.5227 H       1  LIG1        0.0239
     62 H           0.0752   -0.2921   -2.7833 H       1  LIG1        0.0238
     63 H          -0.2357    1.4470   -2.5499 H       1  LIG1        0.0238
     64 H          -1.4679    0.2373   -2.2518 H       1  LIG1        0.0238
     65 H          -0.5672    1.3612    1.1708 H       1  LIG1        0.0274
     66 H          -1.1619    2.1113   -0.2952 H       1  LIG1        0.0274
     67 H          -2.7230    0.2372   -0.7001 H       1  LIG1        0.0277
     68 H          -2.9918    1.0591    0.8118 H       1  LIG1        0.0277
     69 H          -0.9039   -0.0708    2.7049 H       1  LIG1        0.0241
     70 H          -1.9055   -1.4102    3.2190 H       1  LIG1        0.0241
     71 H          -2.6498    0.1481    2.9021 H       1  LIG1        0.0241
     72 H          -4.8013   -0.4065    0.1482 H       1  LIG1        0.0660
@<TRIPOS>BOND
     1     2     3    1
     2     3     5    2
     3     5     7    1
     4     7     8    2
     5     8     9    1
     6     9    10    2
     7    10    11    1
     8    11    12    2
     9    12    14    1
    10    14    15    1
    11    15    16    1
    12    16    17    1
    13    17    20    1
    14    22    23    1
    15    23    24    1
    16    22    25    2
    17    20    26    1
    18    15    29    1
    19    26    29    1
    20    29    31    1
    21    11    31    1
    22    31    33    1
    23    33    34    1
    24    10    35    1
    25    34    35    1
    26    35    37    1
    27     7    37    1
    28    37    38    2
    29     2    38    1
    30     1     2    2
    31     3     4    1
    32     5     6    1
    33    12    13    1
    34    15    28    1
    35    16    27    2
    36    29    30    1
    37    31    32    1
    38    35    36    1
    39    17    19    1
    40    17    18    1
    41    20    22    1
    42    20    21    1
    43     4    39    1
    44     6    40    1
    45     6    41    1
    46     6    42    1
    47     8    43    1
    48     9    44    1
    49    13    45    1
    50    13    46    1
    51    13    47    1
    52    14    48    1
    53    14    49    1
    54    19    50    1
    55    21    51    1
    56    21    52    1
    57    21    53    1
    58    24    54    1
    59    24    55    1
    60    24    56    1
    61    26    57    1
    62    26    58    1
    63    28    59    1
    64    28    60    1
    65    28    61    1
    66    32    62    1
    67    32    63    1
    68    32    64    1
    69    33    65    1
    70    33    66    1
    71    34    67    1
    72    34    68    1
    73    36    69    1
    74    36    70    1
    75    36    71    1
    76    38    72    1
