@<TRIPOS>MOLECULE
NuBBE_1587
 57 60 0 0 0
SMALL
GASTEIGER

@<TRIPOS>ATOM
      1 C          -2.2487   -0.6583    1.5332 C.3     1  LIG1       -0.0590
      2 C          -0.9126    0.1443    1.5005 C.3     1  LIG1       -0.0250
      3 C          -0.6947    0.8018    0.1022 C.3     1  LIG1       -0.0218
      4 H           0.3219    1.2113    0.1084 H       1  LIG1        0.0314
      5 C          -0.7326   -0.2299   -1.1054 C.3     1  LIG1        0.0065
      6 H          -1.7985   -0.4108   -1.3157 H       1  LIG1        0.0345
      7 C          -0.1671   -1.6222   -0.6864 C.3     1  LIG1        0.1070
      8 H          -0.9965   -2.2574   -0.3647 H       1  LIG1        0.0737
      9 C           0.7927   -1.5798    0.5098 C.3     1  LIG1       -0.0116
     10 C           0.3253   -0.8010    1.7787 C.3     1  LIG1       -0.0269
     11 H          -0.0661   -1.5628    2.4711 H       1  LIG1        0.0312
     12 C           1.5724   -0.1567    2.5527 C.3     1  LIG1       -0.0314
     13 C           2.3340   -1.2828    3.2966 C.3     1  LIG1       -0.0595
     14 C           2.6172    0.5493    1.6503 C.3     1  LIG1       -0.0595
     15 C           1.1265    0.8659    3.6224 C.3     1  LIG1       -0.0476
     16 C           0.1595    1.8937    3.0658 C.3     1  LIG1       -0.0521
     17 C          -1.1041    1.1753    2.6493 C.3     1  LIG1       -0.0471
     18 O           0.5118   -2.3200   -1.7512 O.3     1  LIG1       -0.4612
     19 C          -0.2453   -3.1914   -2.4772 C.2     1  LIG1        0.3042
     20 O          -1.4573   -3.3474   -2.3623 O.2     1  LIG1       -0.2512
     21 C           0.6033   -3.9442   -3.4548 C.3     1  LIG1        0.0332
     22 C          -0.1541    0.4245   -2.4377 C.3     1  LIG1       -0.0090
     23 H           0.9419    0.3728   -2.4071 H       1  LIG1        0.0351
     24 C          -0.6573   -0.2592   -3.7208 C.3     1  LIG1       -0.0579
     25 C          -0.5421    1.8818   -2.5202 C.ar    1  LIG1       -0.0033
     26 C          -1.2224    2.5379   -1.5235 C.ar    1  LIG1        0.1086
     27 C          -1.6214    2.0103   -0.2052 C.3     1  LIG1        0.0095
     28 O          -1.4730    3.8266   -1.8444 O.2     1  LIG1       -0.4675
     29 C          -0.9309    4.0152   -3.0778 C.ar    1  LIG1        0.0923
     30 C          -0.3301    2.8591   -3.5275 C.ar    1  LIG1       -0.0202
     31 H          -2.3272   -1.4527    0.7961 H       1  LIG1        0.0235
     32 H          -3.1072    0.0033    1.3719 H       1  LIG1        0.0235
     33 H          -2.3902   -1.1382    2.5097 H       1  LIG1        0.0235
     34 H           1.7461   -1.2121    0.1282 H       1  LIG1        0.0304
     35 H           1.0130   -2.6146    0.8108 H       1  LIG1        0.0304
     36 H           1.6840   -1.7933    4.0164 H       1  LIG1        0.0235
     37 H           3.1860   -0.8790    3.8570 H       1  LIG1        0.0235
     38 H           2.7216   -2.0347    2.6018 H       1  LIG1        0.0235
     39 H           2.1720    1.2857    0.9810 H       1  LIG1        0.0235
     40 H           3.1957   -0.1574    1.0477 H       1  LIG1        0.0235
     41 H           3.3578    1.0843    2.2582 H       1  LIG1        0.0235
     42 H           1.9944    1.3864    4.0479 H       1  LIG1        0.0271
     43 H           0.6513    0.3452    4.4647 H       1  LIG1        0.0271
     44 H          -0.0807    2.6239    3.8475 H       1  LIG1        0.0266
     45 H           0.5924    2.4554    2.2323 H       1  LIG1        0.0266
     46 H          -1.8818    1.9064    2.4046 H       1  LIG1        0.0271
     47 H          -1.4911    0.6564    3.5389 H       1  LIG1        0.0271
     48 H           1.0853   -4.7846   -2.9517 H       1  LIG1        0.0342
     49 H           1.3539   -3.2831   -3.8970 H       1  LIG1        0.0342
     50 H          -0.0291   -4.3156   -4.2668 H       1  LIG1        0.0342
     51 H          -1.7442   -0.3974   -3.6979 H       1  LIG1        0.0236
     52 H          -0.1840   -1.2209   -3.8945 H       1  LIG1        0.0236
     53 H          -0.4274    0.3344   -4.6134 H       1  LIG1        0.0236
     54 H          -2.6730    1.7078   -0.2241 H       1  LIG1        0.0347
     55 H          -1.4984    2.8045    0.5364 H       1  LIG1        0.0347
     56 H          -1.0495    5.0065   -3.4917 H       1  LIG1        0.1029
     57 H           0.1786    2.7375   -4.4733 H       1  LIG1        0.0652
@<TRIPOS>BOND
     1     2     3    1
     2     3     5    1
     3     5     7    1
     4     7     9    1
     5     9    10    1
     6     2    10    1
     7    10    12    1
     8    12    15    1
     9    15    16    1
    10    16    17    1
    11     2    17    1
    12    18    19    1
    13    19    20    2
    14    19    21    1
    15     5    22    1
    16    22    25    1
    17    25    26   ar
    18    26    27    1
    19     3    27    1
    20    26    28   ar
    21    28    29   ar
    22    29    30   ar
    23    25    30   ar
    24     1     2    1
    25     3     4    1
    26     5     6    1
    27    10    11    1
    28    12    13    1
    29    12    14    1
    30    22    23    1
    31    22    24    1
    32     7    18    1
    33     7     8    1
    34     1    31    1
    35     1    32    1
    36     1    33    1
    37     9    34    1
    38     9    35    1
    39    13    36    1
    40    13    37    1
    41    13    38    1
    42    14    39    1
    43    14    40    1
    44    14    41    1
    45    15    42    1
    46    15    43    1
    47    16    44    1
    48    16    45    1
    49    17    46    1
    50    17    47    1
    51    21    48    1
    52    21    49    1
    53    21    50    1
    54    24    51    1
    55    24    52    1
    56    24    53    1
    57    27    54    1
    58    27    55    1
    59    29    56    1
    60    30    57    1
