REMARK  Name = NuBBE_228
REMARK  22 active torsions:
REMARK  status: ('A' for Active; 'I' for Inactive)
REMARK    1  A    between atoms: C_1  and  C_2
REMARK    2  A    between atoms: C_4  and  O_6
REMARK    3  A    between atoms: O_6  and  C_7
REMARK    4  A    between atoms: C_7  and  C_8
REMARK    5  A    between atoms: C_8  and  C_9
REMARK    6  A    between atoms: C_9  and  C_10
REMARK    7  A    between atoms: C_12  and  O_14
REMARK    8  A    between atoms: C_17  and  O_19
REMARK    9  A    between atoms: O_19  and  C_20
REMARK   10  A    between atoms: C_20  and  C_21
REMARK   11  A    between atoms: C_21  and  C_22
REMARK   12  A    between atoms: C_22  and  C_23
REMARK   13  A    between atoms: C_26  and  O_28
REMARK   14  A    between atoms: O_28  and  C_29
REMARK   15  A    between atoms: C_29  and  C_30
REMARK   16  A    between atoms: C_33  and  O_35
REMARK   17  A    between atoms: O_35  and  C_36
REMARK   18  A    between atoms: C_40  and  C_41
REMARK   19  A    between atoms: C_40  and  C_42
REMARK   20  A    between atoms: C_42  and  C_43
REMARK   21  A    between atoms: C_44  and  C_45
REMARK   22  A    between atoms: C_44  and  C_47
REMARK                            x       y       z     vdW  Elec       q    Type
REMARK                         _______ _______ _______ _____ _____    ______ ____
ROOT
ATOM      1  C   LIG A   1      -2.780   0.845   2.216  0.00  0.00    +0.012 C 
ATOM      2  C   LIG A   1      -1.449   0.699   1.456  0.00  0.00    +0.036 C 
ATOM      3  C   LIG A   1      -0.386  -0.092   2.235  0.00  0.00    +0.209 C 
ATOM      4  C   LIG A   1       0.940  -0.307   1.450  0.00  0.00    +0.172 C 
ATOM      5  C   LIG A   1       1.033   0.225  -0.036  0.00  0.00    +0.093 C 
ATOM      6  C   LIG A   1       0.715  -1.002  -0.877  0.00  0.00    +0.011 C 
ATOM      7  C   LIG A   1       1.953  -1.868  -0.939  0.00  0.00    +0.343 C 
ATOM      8  O   LIG A   1       3.036  -0.994  -0.595  0.00  0.00    -0.297 OA
ATOM      9  C   LIG A   1       2.535   0.359  -0.478  0.00  0.00    +0.327 C 
ATOM     10  C   LIG A   1      -0.410  -1.183  -1.587  0.00  0.00    +0.010 C 
ATOM     11  C   LIG A   1      -1.320  -0.054  -1.917  0.00  0.00    +0.141 C 
ATOM     12  C   LIG A   1      -0.601   1.293  -1.726  0.00  0.00    +0.041 C 
ATOM     13  C   LIG A   1       0.126   1.494  -0.353  0.00  0.00    +0.017 C 
ATOM     14  C   LIG A   1      -0.860   1.986   0.814  0.00  0.00    -0.019 C 
ATOM     15  C   LIG A   1      -2.002   2.862   0.223  0.00  0.00    +0.012 C 
ENDROOT
BRANCH   4  16
ATOM     16  O   LIG A   1       2.042   0.155   2.238  0.00  0.00    -0.387 OA
ATOM     17  H   LIG A   1       2.729  -0.541   2.203  0.00  0.00    +0.210 HD
ENDBRANCH   4  16
BRANCH  11  18
ATOM     18  O   LIG A   1      -1.815  -0.218  -3.253  0.00  0.00    -0.376 OA
ATOM     19  C   LIG A   1      -0.846  -0.174  -4.293  0.00  0.00    +0.194 C 
ENDBRANCH  11  18
BRANCH   3  20
ATOM     20  O   LIG A   1      -0.947  -1.417   2.438  0.00  0.00    -0.458 OA
BRANCH  20  21
ATOM     21  C   LIG A   1      -1.687  -1.656   3.564  0.00  0.00    +0.307 C 
ATOM     22  O   LIG A   1      -1.729  -0.950   4.536  0.00  0.00    -0.251 OA
BRANCH  21  23
ATOM     23  C   LIG A   1      -2.600  -2.848   3.316  0.00  0.00    +0.120 C 
BRANCH  23  24
ATOM     24  C   LIG A   1      -1.970  -3.905   2.412  0.00  0.00    +0.008 C 
ATOM     25  C   LIG A   1      -2.913  -5.059   2.130  0.00  0.00    +0.004 C 
ENDBRANCH  23  24
ENDBRANCH  21  23
ENDBRANCH  20  21
ENDBRANCH   3  20
BRANCH   7  26
ATOM     26  O   LIG A   1       2.088  -2.420  -2.251  0.00  0.00    -0.431 OA
BRANCH  26  27
ATOM     27  C   LIG A   1       1.408  -3.574  -2.410  0.00  0.00    +0.309 C 
ATOM     28  O   LIG A   1       0.939  -4.307  -1.534  0.00  0.00    -0.251 OA
BRANCH  27  29
ATOM     29  C   LIG A   1       1.230  -3.788  -3.926  0.00  0.00    +0.120 C 
BRANCH  29  30
ATOM     30  C   LIG A   1       2.349  -4.611  -4.526  0.00  0.00    +0.008 C 
ATOM     31  C   LIG A   1       2.174  -4.789  -6.026  0.00  0.00    +0.004 C 
ENDBRANCH  29  30
ENDBRANCH  27  29
ENDBRANCH  26  27
ENDBRANCH   7  26
BRANCH   9  32
ATOM     32  O   LIG A   1       2.757   1.037  -1.728  0.00  0.00    -0.434 OA
BRANCH  32  33
ATOM     33  C   LIG A   1       4.080   1.348  -1.923  0.00  0.00    +0.306 C 
ATOM     34  C   LIG A   1       4.354   1.713  -3.353  0.00  0.00    +0.136 C 
ATOM     35  O   LIG A   1       4.952   1.334  -1.066  0.00  0.00    -0.251 OA
ENDBRANCH  32  33
ENDBRANCH   9  32
BRANCH  14  36
ATOM     36  C   LIG A   1      -0.054   2.920   1.823  0.00  0.00    +0.034 C 
BRANCH  36  37
ATOM     37  C   LIG A   1      -0.841   3.503   2.985  0.00  0.00    -0.023 C 
ATOM     38  C   LIG A   1      -0.807   4.724   3.568  0.00  0.00    -0.055 C 
ATOM     39  C   LIG A   1      -1.811   5.029   4.664  0.00  0.00    +0.043 C 
BRANCH  38  40
ATOM     40  C   LIG A   1       0.158   5.767   3.243  0.00  0.00    -0.005 C 
ATOM     41  C   LIG A   1       0.226   6.980   3.815  0.00  0.00    +0.008 C 
ENDBRANCH  38  40
ENDBRANCH  36  37
ENDBRANCH  14  36
TORSDOF 15
