REMARK  Name = NuBBE_1998
REMARK  18 active torsions:
REMARK  status: ('A' for Active; 'I' for Inactive)
REMARK    1  A    between atoms: C_1  and  C_2
REMARK    2  A    between atoms: C_3  and  O_4
REMARK    3  A    between atoms: O_4  and  C_5
REMARK    4  A    between atoms: C_7  and  O_8
REMARK    5  A    between atoms: O_8  and  C_9
REMARK    6  A    between atoms: C_10  and  C_11
REMARK    7  A    between atoms: C_11  and  C_12
REMARK    8  A    between atoms: C_13  and  O_14
REMARK    9  A    between atoms: O_14  and  C_15
REMARK   10  A    between atoms: C_17  and  O_18
REMARK   11  A    between atoms: O_18  and  C_19
REMARK   12  A    between atoms: C_20  and  C_21
REMARK   13  A    between atoms: C_22  and  O_23
REMARK   14  A    between atoms: O_23  and  C_24
REMARK   15  A    between atoms: C_24  and  C_25
REMARK   16  A    between atoms: C_28  and  O_29
REMARK   17  A    between atoms: O_29  and  C_30
REMARK   18  A    between atoms: C_30  and  C_31
REMARK                            x       y       z     vdW  Elec       q    Type
REMARK                         _______ _______ _______ _____ _____    ______ ____
ROOT
ATOM      1  C   LIG A   1       0.343  -1.420  -0.210  0.00  0.00    +0.207 C 
ATOM      2  O   LIG A   1       0.569  -2.613  -0.445  0.00  0.00    -0.286 OA
ENDROOT
BRANCH   1   8
ATOM      3  C   LIG A   1       1.202   2.356   3.491  0.00  0.00    +0.051 C 
ATOM      4  C   LIG A   1       1.454   1.032   2.783  0.00  0.00    +0.034 A 
ATOM      5  C   LIG A   1       2.427   0.229   3.392  0.00  0.00    +0.130 A 
ATOM      6  C   LIG A   1       2.781  -0.974   2.803  0.00  0.00    +0.092 A 
ATOM      7  C   LIG A   1       2.193  -1.418   1.595  0.00  0.00    +0.138 A 
ATOM      8  C   LIG A   1       1.129  -0.702   0.955  0.00  0.00    +0.107 A 
ATOM      9  C   LIG A   1       0.846   0.586   1.547  0.00  0.00    +0.152 A 
BRANCH   5  10
ATOM     10  O   LIG A   1       2.955   0.690   4.574  0.00  0.00    -0.495 OA
ATOM     11  C   LIG A   1       4.275   0.263   4.888  0.00  0.00    +0.277 C 
ENDBRANCH   5  10
BRANCH   7  12
ATOM     12  O   LIG A   1       2.667  -2.673   1.260  0.00  0.00    -0.494 OA
ATOM     13  C   LIG A   1       3.499  -2.708   0.095  0.00  0.00    +0.277 C 
ENDBRANCH   7  12
BRANCH   9  14
ATOM     14  O   LIG A   1      -0.155   1.433   0.987  0.00  0.00    -0.425 OA
BRANCH  14  15
ATOM     15  C   LIG A   1       0.093   2.799   0.845  0.00  0.00    +0.309 C 
ATOM     16  C   LIG A   1      -1.189   3.592   0.883  0.00  0.00    +0.136 C 
ATOM     17  O   LIG A   1       1.202   3.318   0.778  0.00  0.00    -0.251 OA
ENDBRANCH  14  15
ENDBRANCH   9  14
ENDBRANCH   1   8
BRANCH   1  18
ATOM     18  C   LIG A   1      -0.751  -0.826  -1.077  0.00  0.00    +0.107 A 
ATOM     19  C   LIG A   1      -1.881  -0.270  -0.466  0.00  0.00    +0.138 A 
ATOM     20  C   LIG A   1      -2.872   0.384  -1.224  0.00  0.00    +0.092 A 
ATOM     21  C   LIG A   1      -2.843   0.468  -2.599  0.00  0.00    +0.130 A 
ATOM     22  C   LIG A   1      -1.905  -0.318  -3.267  0.00  0.00    +0.034 A 
ATOM     23  C   LIG A   1      -2.109  -0.496  -4.758  0.00  0.00    +0.051 C 
ATOM     24  C   LIG A   1      -0.858  -0.959  -2.509  0.00  0.00    +0.152 A 
BRANCH  19  25
ATOM     25  O   LIG A   1      -2.078  -0.422   0.890  0.00  0.00    -0.494 OA
ATOM     26  C   LIG A   1      -2.875   0.616   1.473  0.00  0.00    +0.277 C 
ENDBRANCH  19  25
BRANCH  21  27
ATOM     27  O   LIG A   1      -3.723   1.251  -3.307  0.00  0.00    -0.495 OA
ATOM     28  C   LIG A   1      -4.890   1.716  -2.615  0.00  0.00    +0.277 C 
ENDBRANCH  21  27
BRANCH  24  29
ATOM     29  O   LIG A   1      -0.135  -2.000  -3.228  0.00  0.00    -0.425 OA
BRANCH  29  30
ATOM     30  C   LIG A   1       1.211  -2.336  -3.125  0.00  0.00    +0.309 C 
ATOM     31  C   LIG A   1       1.254  -3.837  -3.567  0.00  0.00    +0.136 C 
ATOM     32  O   LIG A   1       2.111  -1.629  -2.872  0.00  0.00    -0.251 OA
ENDBRANCH  29  30
ENDBRANCH  24  29
ENDBRANCH   1  18
TORSDOF 10
