@<TRIPOS>MOLECULE
NuBBE_1398
 65 66 0 0 0
SMALL
GASTEIGER

@<TRIPOS>ATOM
      1 O           2.3817   -4.2244   -3.9684 O.2     1  LIG1       -0.2833
      2 C           2.1556   -4.4857   -2.8360 C.ar    1  LIG1        0.2310
      3 C           2.4760   -5.8042   -2.2795 C.ar    1  LIG1        0.0487
      4 C           2.0367   -6.1224   -0.9944 C.ar    1  LIG1        0.0505
      5 N           1.3607   -5.1713   -0.2161 N.ar    1  LIG1       -0.3549
      6 H           1.1198   -5.4271    0.7343 H       1  LIG1        0.1657
      7 C           1.1425   -3.8525   -0.6355 C.ar    1  LIG1        0.0624
      8 C           1.5746   -3.4779   -1.8764 C.ar    1  LIG1        0.1864
      9 O           1.6761   -2.2626   -2.4773 O.3     1  LIG1       -0.4897
     10 C           1.9577   -1.1785   -1.6614 C.3     1  LIG1        0.0790
     11 C           0.4517   -2.9744    0.4582 C.3     1  LIG1       -0.0088
     12 C          -0.7101   -1.9123    0.1720 C.3     1  LIG1       -0.0476
     13 C          -0.4957   -0.8305   -0.8812 C.3     1  LIG1       -0.0527
     14 C          -1.3845    0.2641   -1.4229 C.3     1  LIG1       -0.0530
     15 C          -0.5881    1.2417   -2.3843 C.3     1  LIG1       -0.0531
     16 C           0.6979    2.0034   -1.9165 C.3     1  LIG1       -0.0531
     17 C           0.5480    2.8542   -0.6575 C.3     1  LIG1       -0.0531
     18 C           0.2354    2.0470    0.6026 C.3     1  LIG1       -0.0531
     19 C          -0.0446    2.8228    1.8754 C.3     1  LIG1       -0.0530
     20 C          -1.2216    3.7970    1.6982 C.3     1  LIG1       -0.0505
     21 C          -1.5589    4.5646    2.9871 C.3     1  LIG1       -0.0245
     22 C          -2.6592    5.6484    2.8338 C.3     1  LIG1        0.0605
     23 C          -4.0197    5.0600    2.4495 C.3     1  LIG1       -0.0363
     24 C          -2.8263    6.4736    4.1195 C.3     1  LIG1       -0.0363
     25 O          -2.2554    6.5500    1.7990 O.3     1  LIG1       -0.3891
     26 C           2.2499   -7.4223   -0.5371 C.ar    1  LIG1       -0.0377
     27 C           2.9312   -8.3464   -1.3387 C.ar    1  LIG1       -0.0598
     28 C           3.4266   -7.9844   -2.5919 C.ar    1  LIG1       -0.0610
     29 C           3.1948   -6.6968   -3.0707 C.ar    1  LIG1       -0.0488
     30 H           1.4181   -0.3914   -2.1710 H       1  LIG1        0.0660
     31 H           2.9615   -0.8275   -1.4735 H       1  LIG1        0.0660
     32 H           1.6334   -1.3927   -0.6601 H       1  LIG1        0.0660
     33 H           1.2502   -2.5359    1.0839 H       1  LIG1        0.0329
     34 H          -0.0263   -3.6781    1.1623 H       1  LIG1        0.0329
     35 H          -0.8852   -1.3985    1.1247 H       1  LIG1        0.0269
     36 H          -1.5921   -2.4756   -0.1199 H       1  LIG1        0.0269
     37 H          -0.3275   -1.3976   -1.7933 H       1  LIG1        0.0265
     38 H           0.3127   -0.2368   -0.4658 H       1  LIG1        0.0265
     39 H          -1.8743    0.8103   -0.6256 H       1  LIG1        0.0265
     40 H          -2.1916   -0.2099   -1.9815 H       1  LIG1        0.0265
     41 H          -1.3021    2.0029   -2.7161 H       1  LIG1        0.0265
     42 H          -0.3102    0.6911   -3.2983 H       1  LIG1        0.0265
     43 H           1.0192    2.6566   -2.7462 H       1  LIG1        0.0265
     44 H           1.5755    1.3728   -1.7702 H       1  LIG1        0.0265
     45 H          -0.2240    3.5952   -0.8705 H       1  LIG1        0.0265
     46 H           1.4874    3.3972   -0.4910 H       1  LIG1        0.0265
     47 H           1.0184    1.3005    0.7811 H       1  LIG1        0.0265
     48 H          -0.6847    1.5063    0.4789 H       1  LIG1        0.0265
     49 H           0.8734    3.3190    2.1944 H       1  LIG1        0.0265
     50 H          -0.3108    2.0804    2.6420 H       1  LIG1        0.0265
     51 H          -2.1014    3.2314    1.3645 H       1  LIG1        0.0266
     52 H          -0.9783    4.5062    0.9021 H       1  LIG1        0.0266
     53 H          -0.6334    5.0485    3.3239 H       1  LIG1        0.0293
     54 H          -1.8515    3.8450    3.7608 H       1  LIG1        0.0293
     55 H          -4.3911    4.3661    3.2110 H       1  LIG1        0.0257
     56 H          -3.9774    4.5424    1.4870 H       1  LIG1        0.0257
     57 H          -4.7631    5.8579    2.3278 H       1  LIG1        0.0257
     58 H          -3.1101    5.8556    4.9770 H       1  LIG1        0.0257
     59 H          -3.6054    7.2361    3.9848 H       1  LIG1        0.0257
     60 H          -1.9107    7.0236    4.3622 H       1  LIG1        0.0257
     61 H          -2.8441    7.3239    1.8276 H       1  LIG1        0.2101
     62 H           1.8809   -7.7302    0.4349 H       1  LIG1        0.0638
     63 H           3.0791   -9.3627   -0.9817 H       1  LIG1        0.0618
     64 H           3.9755   -8.6895   -3.2008 H       1  LIG1        0.0618
     65 H           3.5571   -6.3951   -4.0496 H       1  LIG1        0.0625
@<TRIPOS>BOND
     1     1     2    2
     2     2     3   ar
     3     3     4   ar
     4     4     5   ar
     5     5     6    1
     6     5     7   ar
     7     7     8   ar
     8     2     8   ar
     9     8     9    1
    10     9    10    1
    11     7    11    1
    12    11    12    1
    13    12    13    1
    14    13    14    1
    15    14    15    1
    16    15    16    1
    17    16    17    1
    18    17    18    1
    19    18    19    1
    20    19    20    1
    21    20    21    1
    22    21    22    1
    23    22    23    1
    24    22    24    1
    25    22    25    1
    26     4    26   ar
    27    26    27   ar
    28    27    28   ar
    29    28    29   ar
    30     3    29   ar
    31    10    30    1
    32    10    31    1
    33    10    32    1
    34    11    33    1
    35    11    34    1
    36    12    35    1
    37    12    36    1
    38    13    37    1
    39    13    38    1
    40    14    39    1
    41    14    40    1
    42    15    41    1
    43    15    42    1
    44    16    43    1
    45    16    44    1
    46    17    45    1
    47    17    46    1
    48    18    47    1
    49    18    48    1
    50    19    49    1
    51    19    50    1
    52    20    51    1
    53    20    52    1
    54    21    53    1
    55    21    54    1
    56    23    55    1
    57    23    56    1
    58    23    57    1
    59    24    58    1
    60    24    59    1
    61    24    60    1
    62    25    61    1
    63    26    62    1
    64    27    63    1
    65    28    64    1
    66    29    65    1
