REMARK  Name = NuBBE_154
REMARK  13 active torsions:
REMARK  status: ('A' for Active; 'I' for Inactive)
REMARK    1  A    between atoms: C_2  and  O_3
REMARK    2  A    between atoms: C_2  and  C_5
REMARK    3  A    between atoms: O_3  and  C_4
REMARK    4  A    between atoms: C_7  and  C_8
REMARK    5  A    between atoms: C_8  and  C_9
REMARK    6  A    between atoms: C_10  and  C_11
REMARK    7  A    between atoms: C_10  and  C_12
REMARK    8  A    between atoms: C_15  and  C_16
REMARK    9  A    between atoms: C_15  and  C_22
REMARK   10  A    between atoms: C_16  and  C_17
REMARK   11  A    between atoms: C_17  and  C_18
REMARK   12  A    between atoms: C_19  and  C_20
REMARK   13  A    between atoms: C_19  and  C_21
REMARK                            x       y       z     vdW  Elec       q    Type
REMARK                         _______ _______ _______ _____ _____    ______ ____
ROOT
ATOM      1  C   LIG A   1      -2.265   0.319   2.763  0.00  0.00    +0.060 A 
ATOM      2  C   LIG A   1      -1.833   1.475   2.105  0.00  0.00    +0.022 A 
ATOM      3  C   LIG A   1      -1.192   1.391   0.854  0.00  0.00    -0.001 A 
ATOM      4  C   LIG A   1      -1.023   0.125   0.260  0.00  0.00    +0.132 A 
ATOM      5  O   LIG A   1      -0.396   0.085  -0.955  0.00  0.00    -0.481 OA
ATOM      6  C   LIG A   1      -0.120  -1.188  -1.576  0.00  0.00    +0.127 C 
ATOM      7  C   LIG A   1      -0.789  -1.130  -2.957  0.00  0.00    +0.060 C 
ATOM      8  C   LIG A   1      -0.654  -2.405  -0.856  0.00  0.00    +0.021 C 
ATOM      9  C   LIG A   1      -1.293  -2.339   0.312  0.00  0.00    +0.011 C 
ATOM     10  C   LIG A   1      -1.474  -1.029   0.913  0.00  0.00    +0.018 A 
ATOM     11  C   LIG A   1      -2.095  -0.930   2.160  0.00  0.00    +0.026 A 
ENDROOT
BRANCH   1  13
ATOM     12  O   LIG A   1      -3.474   1.427   4.503  0.00  0.00    -0.245 OA
ATOM     13  C   LIG A   1      -2.892   0.434   4.103  0.00  0.00    +0.339 C 
BRANCH  13  14
ATOM     14  O   LIG A   1      -2.653  -0.706   4.797  0.00  0.00    -0.465 OA
ATOM     15  C   LIG A   1      -3.155  -0.757   6.137  0.00  0.00    +0.280 C 
ENDBRANCH  13  14
ENDBRANCH   1  13
BRANCH   3  16
ATOM     16  C   LIG A   1      -0.697   2.660   0.184  0.00  0.00    +0.066 C 
BRANCH  16  17
ATOM     17  C   LIG A   1      -1.724   3.301  -0.713  0.00  0.00    -0.023 C 
ATOM     18  C   LIG A   1      -1.485   4.032  -1.823  0.00  0.00    -0.079 C 
ATOM     19  C   LIG A   1      -0.118   4.378  -2.345  0.00  0.00    +0.038 C 
ATOM     20  C   LIG A   1      -2.619   4.591  -2.642  0.00  0.00    +0.038 C 
ENDBRANCH  16  17
ENDBRANCH   3  16
BRANCH   6  21
ATOM     21  C   LIG A   1       1.413  -1.302  -1.740  0.00  0.00    +0.056 C 
BRANCH  21  22
ATOM     22  C   LIG A   1       2.175  -1.238  -0.407  0.00  0.00    +0.031 C 
BRANCH  22  23
ATOM     23  C   LIG A   1       3.657  -1.383  -0.615  0.00  0.00    -0.028 C 
ATOM     24  C   LIG A   1       4.362  -2.531  -0.625  0.00  0.00    -0.080 C 
ATOM     25  C   LIG A   1       3.769  -3.902  -0.451  0.00  0.00    +0.038 C 
ATOM     26  C   LIG A   1       5.851  -2.518  -0.843  0.00  0.00    +0.038 C 
ENDBRANCH  22  23
ENDBRANCH  21  22
ENDBRANCH   6  21
TORSDOF 7
