REMARK  Name = NuBBE_1814
REMARK  9 active torsions:
REMARK  status: ('A' for Active; 'I' for Inactive)
REMARK    1  A    between atoms: C_6  and  O_7
REMARK    2  A    between atoms: O_7  and  C_8
REMARK    3  A    between atoms: C_8  and  C_9
REMARK    4  A    between atoms: C_24  and  O_25
REMARK    5  A    between atoms: O_25  and  C_26
REMARK    6  A    between atoms: C_26  and  C_27
REMARK    7  A    between atoms: C_29  and  O_30
REMARK    8  A    between atoms: O_30  and  C_31
REMARK    9  A    between atoms: C_31  and  C_32
REMARK                            x       y       z     vdW  Elec       q    Type
REMARK                         _______ _______ _______ _____ _____    ______ ____
ROOT
ATOM      1  O   LIG A   1      -4.606  -1.313   0.211  0.00  0.00    -0.289 OA
ATOM      2  C   LIG A   1      -3.388  -1.312   0.061  0.00  0.00    +0.199 C 
ATOM      3  C   LIG A   1      -2.658  -2.563  -0.194  0.00  0.00    +0.062 A 
ATOM      4  C   LIG A   1      -3.310  -3.715  -0.651  0.00  0.00    +0.019 A 
ATOM      5  C   LIG A   1      -2.560  -4.860  -0.945  0.00  0.00    +0.047 A 
ATOM      6  C   LIG A   1      -1.171  -4.843  -0.769  0.00  0.00    +0.135 A 
ATOM      7  C   LIG A   1      -0.538  -3.691  -0.312  0.00  0.00    +0.092 A 
ATOM      8  C   LIG A   1      -1.280  -2.557  -0.011  0.00  0.00    +0.136 A 
ATOM      9  O   LIG A   1      -0.550  -1.493   0.435  0.00  0.00    -0.480 OA
ATOM     10  C   LIG A   1      -1.312  -0.403   0.967  0.00  0.00    +0.240 C 
ATOM     11  C   LIG A   1      -2.530  -0.061   0.112  0.00  0.00    +0.234 C 
ATOM     12  O   LIG A   1      -2.115   0.302  -1.206  0.00  0.00    -0.360 OA
ATOM     13  C   LIG A   1      -1.339   1.511  -1.233  0.00  0.00    +0.200 C 
ATOM     14  C   LIG A   1      -0.339   1.679  -0.102  0.00  0.00    +0.031 A 
ATOM     15  C   LIG A   1      -0.360   0.775   0.981  0.00  0.00    +0.005 A 
ATOM     16  C   LIG A   1       0.547   0.927   2.039  0.00  0.00    +0.011 A 
ATOM     17  C   LIG A   1       1.436   2.004   2.070  0.00  0.00    +0.050 A 
ATOM     18  C   LIG A   1       1.473   2.915   1.010  0.00  0.00    +0.174 A 
ATOM     19  C   LIG A   1       0.589   2.750  -0.077  0.00  0.00    +0.179 A 
ENDROOT
BRANCH   6  20
ATOM     20  O   LIG A   1      -0.487  -6.053  -1.035  0.00  0.00    -0.426 OA
BRANCH  20  21
ATOM     21  C   LIG A   1       0.897  -6.207  -0.901  0.00  0.00    +0.309 C 
ATOM     22  C   LIG A   1       1.262  -7.641  -1.088  0.00  0.00    +0.136 C 
ATOM     23  O   LIG A   1       1.726  -5.342  -0.651  0.00  0.00    -0.251 OA
ENDBRANCH  20  21
ENDBRANCH   6  20
BRANCH  18  24
ATOM     24  O   LIG A   1       2.257   4.093   1.137  0.00  0.00    -0.422 OA
BRANCH  24  25
ATOM     25  C   LIG A   1       3.524   4.062   1.727  0.00  0.00    +0.309 C 
ATOM     26  C   LIG A   1       3.734   5.272   2.602  0.00  0.00    +0.136 C 
ATOM     27  O   LIG A   1       4.376   3.198   1.550  0.00  0.00    -0.251 OA
ENDBRANCH  24  25
ENDBRANCH  18  24
BRANCH  19  28
ATOM     28  O   LIG A   1       0.704   3.550  -1.233  0.00  0.00    -0.422 OA
BRANCH  28  29
ATOM     29  C   LIG A   1       0.356   4.882  -1.157  0.00  0.00    +0.309 C 
ATOM     30  C   LIG A   1       0.505   5.553  -2.474  0.00  0.00    +0.136 C 
ATOM     31  O   LIG A   1      -0.090   5.435  -0.170  0.00  0.00    -0.251 OA
ENDBRANCH  28  29
ENDBRANCH  19  28
TORSDOF 6
