@<TRIPOS>MOLECULE
NuBBE_2331
 56 57 0 0 0
SMALL
GASTEIGER

@<TRIPOS>ATOM
      1 O          -2.3077   -3.6684    4.4677 O.3     1  LIG1       -0.4771
      2 C          -2.4761   -2.3397    4.3423 C.2     1  LIG1        0.3368
      3 C          -1.6352   -1.7430    3.2763 C.ar    1  LIG1        0.0596
      4 C          -1.6982   -0.3589    3.0572 C.ar    1  LIG1       -0.0408
      5 C          -0.8988    0.2501    2.0677 C.ar    1  LIG1       -0.0009
      6 C          -0.9252    1.7658    1.9283 C.3     1  LIG1       -0.0058
      7 C          -2.2620    2.3307    1.5111 C.2     1  LIG1       -0.0809
      8 C          -3.0362    3.2311    2.1546 C.2     1  LIG1       -0.0793
      9 C          -2.7381    3.8654    3.4864 C.3     1  LIG1       -0.0440
     10 C          -4.3342    3.7066    1.5498 C.3     1  LIG1       -0.0440
     11 C          -0.0341   -0.5607    1.2999 C.ar    1  LIG1        0.1281
     12 C           0.0296   -1.9461    1.5210 C.ar    1  LIG1       -0.0021
     13 C           0.9770   -2.8263    0.7613 C.3     1  LIG1        0.0057
     14 C           1.4427   -2.1502   -0.5163 C.3     1  LIG1        0.0986
     15 H           0.6123   -2.2152   -1.2259 H       1  LIG1        0.0636
     16 O           2.5468   -2.8643   -1.0747 O.3     1  LIG1       -0.3875
     17 C           1.8010   -0.6667   -0.2647 C.3     1  LIG1        0.1341
     18 C           2.1235    0.0306   -1.6188 C.3     1  LIG1       -0.0073
     19 C           0.9539    0.0499   -2.6192 C.3     1  LIG1       -0.0308
     20 C           1.3552    0.6904   -3.9204 C.2     1  LIG1       -0.0852
     21 C           1.8859    0.0784   -4.9982 C.2     1  LIG1       -0.0796
     22 C           2.1814   -1.3937   -5.1013 C.3     1  LIG1       -0.0440
     23 C           2.2804    0.8724   -6.2157 C.3     1  LIG1       -0.0440
     24 C           3.0348   -0.5110    0.6533 C.3     1  LIG1       -0.0224
     25 O           0.7089    0.0638    0.3317 O.3     1  LIG1       -0.4828
     26 C          -0.7719   -2.5284    2.5119 C.ar    1  LIG1       -0.0410
     27 O          -3.2489   -1.7326    5.0634 O.2     1  LIG1       -0.2451
     28 H          -2.9121   -3.9160    5.1992 H       1  LIG1        0.2954
     29 H          -2.3561    0.2512    3.6709 H       1  LIG1        0.0630
     30 H          -0.1925    2.0959    1.1830 H       1  LIG1        0.0357
     31 H          -0.5775    2.1901    2.8755 H       1  LIG1        0.0357
     32 H          -2.5971    1.9725    0.5372 H       1  LIG1        0.0575
     33 H          -1.8495    3.4649    3.9766 H       1  LIG1        0.0274
     34 H          -3.5818    3.7151    4.1693 H       1  LIG1        0.0274
     35 H          -2.5937    4.9447    3.3620 H       1  LIG1        0.0274
     36 H          -4.4831    3.3365    0.5307 H       1  LIG1        0.0274
     37 H          -4.3570    4.8015    1.5092 H       1  LIG1        0.0274
     38 H          -5.1780    3.3681    2.1602 H       1  LIG1        0.0274
     39 H           0.4887   -3.7726    0.4938 H       1  LIG1        0.0341
     40 H           1.8297   -3.0921    1.3974 H       1  LIG1        0.0341
     41 H           2.2158   -3.7262   -1.3810 H       1  LIG1        0.2100
     42 H           2.4184    1.0714   -1.4258 H       1  LIG1        0.0307
     43 H           2.9895   -0.4593   -2.0832 H       1  LIG1        0.0307
     44 H           0.1093    0.6110   -2.2010 H       1  LIG1        0.0309
     45 H           0.5702   -0.9533   -2.8173 H       1  LIG1        0.0309
     46 H           1.1954    1.7674   -3.9552 H       1  LIG1        0.0571
     47 H           1.8427   -1.9685   -4.2363 H       1  LIG1        0.0274
     48 H           3.2608   -1.5510   -5.1982 H       1  LIG1        0.0274
     49 H           1.6923   -1.8175   -5.9853 H       1  LIG1        0.0274
     50 H           2.0272    1.9333   -6.1202 H       1  LIG1        0.0274
     51 H           1.7744    0.4880   -7.1072 H       1  LIG1        0.0274
     52 H           3.3620    0.8009   -6.3718 H       1  LIG1        0.0274
     53 H           2.8843   -0.9943    1.6247 H       1  LIG1        0.0269
     54 H           3.2249    0.5457    0.8759 H       1  LIG1        0.0269
     55 H           3.9375   -0.9360    0.2024 H       1  LIG1        0.0269
     56 H          -0.7115   -3.6011    2.6858 H       1  LIG1        0.0630
@<TRIPOS>BOND
     1     1     2    1
     2     2     3    1
     3     3     4   ar
     4     4     5   ar
     5     5     6    1
     6     6     7    1
     7     7     8    2
     8     8     9    1
     9     8    10    1
    10     5    11   ar
    11    11    12   ar
    12    12    13    1
    13    13    14    1
    14    14    15    1
    15    14    16    1
    16    14    17    1
    17    18    19    1
    18    19    20    1
    19    20    21    2
    20    21    22    1
    21    21    23    1
    22    17    25    1
    23    11    25    1
    24    12    26   ar
    25     3    26   ar
    26     2    27    2
    27    17    24    1
    28    17    18    1
    29     1    28    1
    30     4    29    1
    31     6    30    1
    32     6    31    1
    33     7    32    1
    34     9    33    1
    35     9    34    1
    36     9    35    1
    37    10    36    1
    38    10    37    1
    39    10    38    1
    40    13    39    1
    41    13    40    1
    42    16    41    1
    43    18    42    1
    44    18    43    1
    45    19    44    1
    46    19    45    1
    47    20    46    1
    48    22    47    1
    49    22    48    1
    50    22    49    1
    51    23    50    1
    52    23    51    1
    53    23    52    1
    54    24    53    1
    55    24    54    1
    56    24    55    1
    57    26    56    1
