REMARK  Name = NuBBE_129
REMARK  13 active torsions:
REMARK  status: ('A' for Active; 'I' for Inactive)
REMARK    1  A    between atoms: O_1  and  C_2
REMARK    2  A    between atoms: C_5  and  C_6
REMARK    3  A    between atoms: C_10  and  O_11
REMARK    4  A    between atoms: C_12  and  O_13
REMARK    5  A    between atoms: O_13  and  C_14
REMARK    6  A    between atoms: C_16  and  O_18
REMARK    7  A    between atoms: C_19  and  O_21
REMARK    8  A    between atoms: C_22  and  O_24
REMARK    9  A    between atoms: C_25  and  C_27
REMARK   10  A    between atoms: C_27  and  O_28
REMARK   11  A    between atoms: C_30  and  O_31
REMARK   12  A    between atoms: O_31  and  C_32
REMARK   13  A    between atoms: C_38  and  O_39
REMARK                            x       y       z     vdW  Elec       q    Type
REMARK                         _______ _______ _______ _____ _____    ______ ____
ROOT
ATOM      1  C   LIG A   1      -3.700  -0.720   0.567  0.00  0.00    +0.139 A 
ATOM      2  O   LIG A   1      -3.098   0.526   0.725  0.00  0.00    -0.454 OA
ATOM      3  C   LIG A   1      -1.855   0.724   0.166  0.00  0.00    +0.146 A 
ATOM      4  C   LIG A   1      -1.154  -0.278  -0.484  0.00  0.00    +0.109 A 
ATOM      5  C   LIG A   1       0.099  -0.031  -1.061  0.00  0.00    +0.177 A 
ATOM      6  C   LIG A   1       0.688   1.242  -0.964  0.00  0.00    +0.207 A 
ATOM      7  C   LIG A   1      -0.044   2.273  -0.336  0.00  0.00    +0.169 A 
ATOM      8  C   LIG A   1      -1.299   2.000   0.244  0.00  0.00    +0.096 A 
ATOM      9  C   LIG A   1      -3.124  -1.756  -0.059  0.00  0.00    +0.098 A 
ATOM     10  C   LIG A   1      -1.770  -1.607  -0.584  0.00  0.00    +0.197 A 
ATOM     11  O   LIG A   1      -1.182  -2.549  -1.089  0.00  0.00    -0.287 OA
ENDROOT
BRANCH   1  15
ATOM     12  C   LIG A   1      -7.653  -1.070   2.189  0.00  0.00    +0.158 A 
ATOM     13  C   LIG A   1      -7.203   0.166   1.744  0.00  0.00    +0.050 A 
ATOM     14  C   LIG A   1      -5.910   0.275   1.215  0.00  0.00    +0.015 A 
ATOM     15  C   LIG A   1      -5.063  -0.845   1.131  0.00  0.00    +0.021 A 
ATOM     16  C   LIG A   1      -5.542  -2.080   1.601  0.00  0.00    +0.060 A 
ATOM     17  C   LIG A   1      -6.826  -2.183   2.114  0.00  0.00    +0.159 A 
BRANCH  12  18
ATOM     18  O   LIG A   1      -8.903  -1.244   2.713  0.00  0.00    -0.503 OA
ATOM     19  H   LIG A   1      -9.356  -0.383   2.707  0.00  0.00    +0.292 HD
ENDBRANCH  12  18
BRANCH  17  20
ATOM     20  O   LIG A   1      -7.268  -3.400   2.546  0.00  0.00    -0.503 OA
ATOM     21  H   LIG A   1      -8.180  -3.235   2.858  0.00  0.00    +0.292 HD
ENDBRANCH  17  20
ENDBRANCH   1  15
BRANCH   5  22
ATOM     22  O   LIG A   1       0.726  -1.024  -1.770  0.00  0.00    -0.503 OA
ATOM     23  H   LIG A   1       0.212  -1.860  -1.695  0.00  0.00    +0.292 HD
ENDBRANCH   5  22
BRANCH   7  24
ATOM     24  O   LIG A   1       0.345   3.580  -0.163  0.00  0.00    -0.491 OA
ATOM     25  C   LIG A   1       1.206   4.141  -1.149  0.00  0.00    +0.277 C 
ENDBRANCH   7  24
BRANCH   6  26
ATOM     26  O   LIG A   1       1.921   1.552  -1.480  0.00  0.00    -0.454 OA
BRANCH  26  27
ATOM     27  C   LIG A   1       2.936   0.535  -1.488  0.00  0.00    +0.340 C 
ATOM     28  C   LIG A   1       4.233   1.160  -2.077  0.00  0.00    +0.214 C 
ATOM     29  C   LIG A   1       5.345   1.181  -1.014  0.00  0.00    +0.180 C 
ATOM     30  C   LIG A   1       5.570  -0.245  -0.474  0.00  0.00    +0.177 C 
ATOM     31  C   LIG A   1       4.220  -0.922  -0.135  0.00  0.00    +0.179 C 
ATOM     32  O   LIG A   1       3.163   0.046  -0.152  0.00  0.00    -0.331 OA
BRANCH  28  33
ATOM     33  O   LIG A   1       4.674   0.413  -3.232  0.00  0.00    -0.383 OA
ATOM     34  H   LIG A   1       5.076  -0.425  -2.916  0.00  0.00    +0.210 HD
ENDBRANCH  28  33
BRANCH  29  35
ATOM     35  O   LIG A   1       5.033   2.083   0.051  0.00  0.00    -0.386 OA
ATOM     36  H   LIG A   1       4.180   1.796   0.435  0.00  0.00    +0.210 HD
ENDBRANCH  29  35
BRANCH  30  37
ATOM     37  O   LIG A   1       6.220  -1.018  -1.498  0.00  0.00    -0.387 OA
ATOM     38  H   LIG A   1       7.151  -0.725  -1.524  0.00  0.00    +0.210 HD
ENDBRANCH  30  37
BRANCH  31  39
ATOM     39  C   LIG A   1       4.242  -1.578   1.250  0.00  0.00    +0.190 C 
BRANCH  39  40
ATOM     40  O   LIG A   1       5.253  -2.574   1.326  0.00  0.00    -0.392 OA
ATOM     41  H   LIG A   1       5.239  -2.930   2.231  0.00  0.00    +0.209 HD
ENDBRANCH  39  40
ENDBRANCH  31  39
ENDBRANCH  26  27
ENDBRANCH   6  26
TORSDOF 12
