@<TRIPOS>MOLECULE
NuBBE_311
 79 80 0 0 0
SMALL
GASTEIGER

@<TRIPOS>ATOM
      1 H           2.8077   -3.6330   -2.2176 H       1  LIG1        0.1226
      2 N           1.9844   -3.0663   -2.0627 N.3     1  LIG1       -0.3074
      3 C           2.3260   -1.6306   -2.2288 C.3     1  LIG1        0.0422
      4 C           2.6953   -1.4979   -3.6891 C.3     1  LIG1       -0.0462
      5 C           1.1948   -0.6320   -2.0286 C.3     1  LIG1        0.1184
      6 O           1.5893    0.6374   -1.4197 O.3     1  LIG1       -0.4567
      7 C           2.3910    1.4066   -2.2038 C.2     1  LIG1        0.3323
      8 C           2.3902    2.7829   -1.7438 C.2     1  LIG1        0.0231
      9 C           3.1723    3.5699   -2.4935 C.2     1  LIG1       -0.0478
     10 C           3.2205    4.9909   -2.2567 C.ar    1  LIG1       -0.0246
     11 C           2.0769    5.6507   -1.8035 C.ar    1  LIG1       -0.0511
     12 C           2.1299    7.0006   -1.5272 C.ar    1  LIG1       -0.0196
     13 C           3.3238    7.6787   -1.7372 C.ar    1  LIG1        0.1169
     14 O           3.4136    9.0051   -1.4475 O.3     1  LIG1       -0.5068
     15 C           4.4548    7.0389   -2.2378 C.ar    1  LIG1       -0.0196
     16 C           4.4064    5.6792   -2.5052 C.ar    1  LIG1       -0.0511
     17 O           2.9575    1.1209   -3.1788 O.2     1  LIG1       -0.2456
     18 C           0.3134   -1.2579   -1.0353 C.3     1  LIG1       -0.0128
     19 C          -0.0120   -2.7292   -0.9481 C.3     1  LIG1       -0.0341
     20 C           1.2855   -3.4762   -0.8390 C.3     1  LIG1        0.0081
     21 C           2.1007   -3.3227    0.4936 C.3     1  LIG1       -0.0375
     22 C           1.4663   -3.8518    1.8134 C.3     1  LIG1       -0.0516
     23 C           0.1844   -3.2423    2.4342 C.3     1  LIG1       -0.0530
     24 C           0.1515   -1.8093    3.0367 C.3     1  LIG1       -0.0531
     25 C           0.3889   -0.6175    2.1333 C.3     1  LIG1       -0.0531
     26 C          -0.6923   -0.3705    1.1043 C.3     1  LIG1       -0.0531
     27 C          -2.1637   -0.4731    0.9009 C.3     1  LIG1       -0.0531
     28 C          -2.7887   -0.0682   -0.4549 C.3     1  LIG1       -0.0531
     29 C          -4.3092   -0.0338   -0.3369 C.3     1  LIG1       -0.0530
     30 C          -4.9538   -1.3797    0.0632 C.3     1  LIG1       -0.0527
     31 C          -4.5723   -1.9939    1.4270 C.3     1  LIG1       -0.0464
     32 C          -4.7260   -1.0232    2.6057 C.3     1  LIG1        0.0055
     33 C          -4.0594   -1.5558    3.8633 C.2     1  LIG1        0.1303
     34 C          -3.6081   -0.5523    4.8975 C.3     1  LIG1       -0.0061
     35 O          -3.8656   -2.7589    4.0389 O.2     1  LIG1       -0.2977
     36 H           3.1587   -1.3874   -1.5564 H       1  LIG1        0.0494
     37 H           1.7899   -1.4539   -4.3094 H       1  LIG1        0.0246
     38 H           3.3760   -2.2757   -4.0025 H       1  LIG1        0.0246
     39 H           3.2616   -0.6140   -3.9153 H       1  LIG1        0.0246
     40 H           0.5469   -0.3871   -2.8717 H       1  LIG1        0.0749
     41 H           1.7421    3.0835   -0.9394 H       1  LIG1        0.0689
     42 H           3.7984    3.1932   -3.3060 H       1  LIG1        0.0626
     43 H           1.1412    5.1183   -1.6530 H       1  LIG1        0.0625
     44 H           1.2365    7.4875   -1.1575 H       1  LIG1        0.0654
     45 H           2.5918    9.2592   -0.9964 H       1  LIG1        0.2921
     46 H           5.3719    7.5915   -2.4080 H       1  LIG1        0.0654
     47 H           5.2883    5.1628   -2.8808 H       1  LIG1        0.0625
     48 H          -0.6150   -0.7220   -1.1414 H       1  LIG1        0.0302
     49 H           0.9058   -1.0297   -0.1598 H       1  LIG1        0.0302
     50 H          -0.6363   -2.9763   -1.8064 H       1  LIG1        0.0281
     51 H          -0.6454   -3.0286   -0.1111 H       1  LIG1        0.0281
     52 H           1.0268   -4.5359   -0.9253 H       1  LIG1        0.0460
     53 H           2.4781   -2.3090    0.6514 H       1  LIG1        0.0280
     54 H           3.0163   -3.9201    0.3516 H       1  LIG1        0.0280
     55 H           2.2444   -3.8611    2.5922 H       1  LIG1        0.0266
     56 H           1.2454   -4.9160    1.6379 H       1  LIG1        0.0266
     57 H          -0.0819   -3.9040    3.2733 H       1  LIG1        0.0265
     58 H          -0.6521   -3.3877    1.7538 H       1  LIG1        0.0265
     59 H           0.8914   -1.7432    3.8369 H       1  LIG1        0.0265
     60 H          -0.8425   -1.6626    3.4695 H       1  LIG1        0.0265
     61 H           1.3460   -0.8448    1.6404 H       1  LIG1        0.0265
     62 H           0.5873    0.3312    2.6225 H       1  LIG1        0.0265
     63 H          -0.5900   -1.3889    0.7859 H       1  LIG1        0.0265
     64 H          -0.3435    0.4346    0.4599 H       1  LIG1        0.0265
     65 H          -2.6122    0.0224    1.7353 H       1  LIG1        0.0265
     66 H          -2.3287   -1.5406    0.8404 H       1  LIG1        0.0265
     67 H          -2.5726   -0.8023   -1.2510 H       1  LIG1        0.0265
     68 H          -2.3908    0.8914   -0.8016 H       1  LIG1        0.0265
     69 H          -4.7276    0.2798   -1.3037 H       1  LIG1        0.0265
     70 H          -4.5756    0.7451    0.3810 H       1  LIG1        0.0265
     71 H          -4.7600   -2.1140   -0.7316 H       1  LIG1        0.0265
     72 H          -6.0386   -1.2258    0.0748 H       1  LIG1        0.0265
     73 H          -3.5835   -2.4499    1.4370 H       1  LIG1        0.0269
     74 H          -5.1552   -2.9037    1.5889 H       1  LIG1        0.0269
     75 H          -5.7814   -0.8302    2.7854 H       1  LIG1        0.0341
     76 H          -4.2895   -0.0406    2.4169 H       1  LIG1        0.0341
     77 H          -3.7890   -0.9657    5.8936 H       1  LIG1        0.0306
     78 H          -4.1662    0.3832    4.8100 H       1  LIG1        0.0306
     79 H          -2.5408   -0.3485    4.7737 H       1  LIG1        0.0306
@<TRIPOS>BOND
     1     1     2    1
     2     2     3    1
     3     3     4    1
     4     3     5    1
     5     5     6    1
     6     6     7    1
     7     7     8    1
     8     8     9    2
     9     9    10    1
    10    10    11   ar
    11    11    12   ar
    12    12    13   ar
    13    13    14    1
    14    13    15   ar
    15    15    16   ar
    16    10    16   ar
    17     7    17    2
    18     5    18    1
    19    18    19    1
    20    19    20    1
    21     2    20    1
    22    20    21    1
    23    21    22    1
    24    22    23    1
    25    23    24    1
    26    24    25    1
    27    25    26    1
    28    26    27    1
    29    27    28    1
    30    28    29    1
    31    29    30    1
    32    30    31    1
    33    31    32    1
    34    32    33    1
    35    33    34    1
    36    33    35    2
    37     3    36    1
    38     4    37    1
    39     4    38    1
    40     4    39    1
    41     5    40    1
    42     8    41    1
    43     9    42    1
    44    11    43    1
    45    12    44    1
    46    14    45    1
    47    15    46    1
    48    16    47    1
    49    18    48    1
    50    18    49    1
    51    19    50    1
    52    19    51    1
    53    20    52    1
    54    21    53    1
    55    21    54    1
    56    22    55    1
    57    22    56    1
    58    23    57    1
    59    23    58    1
    60    24    59    1
    61    24    60    1
    62    25    61    1
    63    25    62    1
    64    26    63    1
    65    26    64    1
    66    27    65    1
    67    27    66    1
    68    28    67    1
    69    28    68    1
    70    29    69    1
    71    29    70    1
    72    30    71    1
    73    30    72    1
    74    31    73    1
    75    31    74    1
    76    32    75    1
    77    32    76    1
    78    34    77    1
    79    34    78    1
    80    34    79    1
