REMARK  Name = NuBBE_2497
REMARK  6 active torsions:
REMARK  status: ('A' for Active; 'I' for Inactive)
REMARK    1  A    between atoms: C_1  and  C_2
REMARK    2  A    between atoms: C_2  and  C_3
REMARK    3  A    between atoms: C_4  and  C_5
REMARK    4  A    between atoms: C_14  and  C_15
REMARK    5  A    between atoms: C_14  and  C_16
REMARK    6  A    between atoms: C_21  and  C_22
REMARK                            x       y       z     vdW  Elec       q    Type
REMARK                         _______ _______ _______ _____ _____    ______ ____
ROOT
ATOM      1  C   LIG A   1       0.231  -2.781  -0.402  0.00  0.00    -0.041 A 
ATOM      2  C   LIG A   1       0.801  -3.100  -1.658  0.00  0.00    -0.047 A 
ATOM      3  C   LIG A   1       1.009  -4.519  -2.119  0.00  0.00    +0.044 C 
ATOM      4  C   LIG A   1       1.184  -2.070  -2.518  0.00  0.00    +0.004 A 
ATOM      5  C   LIG A   1       1.037  -0.738  -2.143  0.00  0.00    +0.005 A 
ATOM      6  C   LIG A   1       0.485  -0.374  -0.900  0.00  0.00    -0.038 A 
ATOM      7  C   LIG A   1       0.064  -1.409  -0.031  0.00  0.00    -0.040 A 
ATOM      8  C   LIG A   1      -0.502  -1.043   1.319  0.00  0.00    +0.036 C 
ATOM      9  C   LIG A   1      -1.207   0.302   1.291  0.00  0.00    +0.010 C 
ATOM     10  C   LIG A   1      -0.233   1.416   0.885  0.00  0.00    +0.012 C 
ATOM     11  C   LIG A   1      -0.886   2.844   1.063  0.00  0.00    +0.027 C 
ATOM     12  C   LIG A   1      -0.528   3.369   2.472  0.00  0.00    +0.019 C 
ATOM     13  C   LIG A   1      -2.425   2.883   0.939  0.00  0.00    +0.019 C 
ATOM     14  C   LIG A   1      -0.359   3.826   0.015  0.00  0.00    +0.139 C 
ATOM     15  O   LIG A   1       0.007   4.966   0.303  0.00  0.00    -0.297 OA
ATOM     16  C   LIG A   1      -0.402   3.396  -1.432  0.00  0.00    +0.076 C 
ATOM     17  C   LIG A   1      -0.415   1.883  -1.602  0.00  0.00    +0.019 C 
ATOM     18  C   LIG A   1       0.408   1.128  -0.527  0.00  0.00    -0.003 C 
ATOM     19  C   LIG A   1       1.875   1.651  -0.498  0.00  0.00    +0.016 C 
ENDROOT
BRANCH   1  21
ATOM     20  C   LIG A   1       0.938  -4.192   1.571  0.00  0.00    +0.009 C 
ATOM     21  C   LIG A   1      -0.151  -3.908   0.546  0.00  0.00    +0.032 C 
ENDBRANCH   1  21
TORSDOF 1
