REMARK  Name = NuBBE_69
REMARK  9 active torsions:
REMARK  status: ('A' for Active; 'I' for Inactive)
REMARK    1  A    between atoms: O_1  and  C_2
REMARK    2  A    between atoms: C_2  and  C_3
REMARK    3  A    between atoms: C_3  and  C_5
REMARK    4  A    between atoms: C_3  and  C_19
REMARK    5  A    between atoms: C_5  and  C_7
REMARK    6  A    between atoms: C_5  and  C_9
REMARK    7  A    between atoms: C_7  and  O_8
REMARK    8  A    between atoms: C_9  and  C_10
REMARK    9  A    between atoms: C_19  and  C_20
REMARK                            x       y       z     vdW  Elec       q    Type
REMARK                         _______ _______ _______ _____ _____    ______ ____
ROOT
ATOM      1  C   LIG A   1       0.706  -0.859  -2.018  0.00  0.00    +0.024 C 
ENDROOT
BRANCH   1   2
ATOM      2  C   LIG A   1       1.341  -2.168  -2.534  0.00  0.00    +0.160 C 
BRANCH   2   3
ATOM      3  O   LIG A   1       1.454  -2.138  -3.953  0.00  0.00    -0.395 OA
ATOM      4  H   LIG A   1       2.017  -2.889  -4.210  0.00  0.00    +0.209 HD
ENDBRANCH   2   3
ENDBRANCH   1   2
BRANCH   1   5
ATOM      5  C   LIG A   1       0.351  -0.924  -0.485  0.00  0.00    +0.024 C 
BRANCH   5   6
ATOM      6  C   LIG A   1       1.549  -1.226   0.434  0.00  0.00    +0.160 C 
BRANCH   6   7
ATOM      7  O   LIG A   1       2.611  -0.302   0.259  0.00  0.00    -0.395 OA
ATOM      8  H   LIG A   1       2.631   0.276   1.042  0.00  0.00    +0.209 HD
ENDBRANCH   6   7
ENDBRANCH   5   6
BRANCH   5   9
ATOM      9  C   LIG A   1      -0.776  -1.975  -0.252  0.00  0.00    +0.041 C 
BRANCH   9  10
ATOM     10  C   LIG A   1      -1.316  -2.131   1.155  0.00  0.00    -0.043 A 
ATOM     11  C   LIG A   1      -1.936  -1.067   1.828  0.00  0.00    +0.053 A 
ATOM     12  C   LIG A   1      -2.482  -1.312   3.075  0.00  0.00    +0.167 A 
ATOM     13  C   LIG A   1      -2.423  -2.552   3.666  0.00  0.00    +0.166 A 
ATOM     14  C   LIG A   1      -1.817  -3.621   3.046  0.00  0.00    +0.050 A 
ATOM     15  C   LIG A   1      -1.268  -3.405   1.777  0.00  0.00    +0.007 A 
ATOM     16  O   LIG A   1      -3.030  -2.582   4.882  0.00  0.00    -0.453 OA
ATOM     17  C   LIG A   1      -3.520  -1.228   4.974  0.00  0.00    +0.466 C 
ATOM     18  O   LIG A   1      -3.142  -0.406   3.847  0.00  0.00    -0.453 OA
ENDBRANCH   9  10
ENDBRANCH   5   9
ENDBRANCH   1   5
BRANCH   1  19
ATOM     19  C   LIG A   1       1.611   0.331  -2.447  0.00  0.00    +0.041 C 
BRANCH  19  20
ATOM     20  C   LIG A   1       1.147   1.716  -2.050  0.00  0.00    -0.043 A 
ATOM     21  C   LIG A   1       1.975   2.542  -1.268  0.00  0.00    +0.053 A 
ATOM     22  C   LIG A   1       1.541   3.819  -0.980  0.00  0.00    +0.167 A 
ATOM     23  C   LIG A   1       0.344   4.300  -1.454  0.00  0.00    +0.166 A 
ATOM     24  O   LIG A   1       0.113   5.586  -1.080  0.00  0.00    -0.453 OA
ATOM     25  C   LIG A   1       1.277   5.843  -0.271  0.00  0.00    +0.466 C 
ATOM     26  O   LIG A   1       2.205   4.739  -0.229  0.00  0.00    -0.453 OA
ATOM     27  C   LIG A   1      -0.495   3.523  -2.222  0.00  0.00    +0.050 A 
ATOM     28  C   LIG A   1      -0.089   2.216  -2.515  0.00  0.00    +0.007 A 
ENDBRANCH  19  20
ENDBRANCH   1  19
TORSDOF 9
