@<TRIPOS>MOLECULE
NuBBE_608
 75 79 0 0 0
SMALL
GASTEIGER

@<TRIPOS>ATOM
      1 C           0.9793   -3.5053    3.1568 C.3     1  LIG1       -0.0554
      2 C           0.9534   -2.1574    2.4322 C.3     1  LIG1        0.0182
      3 H           1.8175   -1.5774    2.7815 H       1  LIG1        0.0377
      4 C           1.1195   -2.3479    0.9486 C.2     1  LIG1        0.1443
      5 O           1.0476   -3.4461    0.4048 O.2     1  LIG1       -0.2965
      6 C          -0.3581   -1.3801    2.6497 C.3     1  LIG1       -0.0290
      7 H          -1.1604   -2.1209    2.5509 H       1  LIG1        0.0308
      8 C          -0.6696   -0.1902    1.6522 C.3     1  LIG1       -0.0007
      9 C          -2.2002   -0.1315    1.3083 C.3     1  LIG1        0.0313
     10 H          -2.4450    0.8599    0.9213 H       1  LIG1        0.0504
     11 N          -2.2556   -1.0125    0.1718 N.am    1  LIG1       -0.3112
     12 H          -3.1170   -1.2652   -0.3048 H       1  LIG1        0.1490
     13 C          -3.2443   -0.4359    2.4112 C.3     1  LIG1       -0.0089
     14 C          -4.6930   -0.3249    1.9624 C.ar    1  LIG1       -0.0456
     15 C          -5.3886   -1.4626    1.5245 C.ar    1  LIG1       -0.0585
     16 C          -6.7331   -1.3793    1.1499 C.ar    1  LIG1       -0.0615
     17 C          -7.4014   -0.1590    1.2080 C.ar    1  LIG1       -0.0617
     18 C          -6.7228    0.9802    1.6354 C.ar    1  LIG1       -0.0615
     19 C          -5.3762    0.8998    2.0090 C.ar    1  LIG1       -0.0585
     20 C           0.0031   -0.2510    0.1908 C.3     1  LIG1        0.1038
     21 C          -1.0959   -0.9917   -0.5706 C.2     1  LIG1        0.2244
     22 O          -1.0168   -1.4564   -1.7024 O.2     1  LIG1       -0.2750
     23 C           1.3361   -1.0398    0.2076 C.3     1  LIG1        0.0536
     24 H           2.0364   -0.4572    0.8258 H       1  LIG1        0.0432
     25 C           2.0677   -1.3527   -1.0724 C.2     1  LIG1       -0.0766
     26 C           3.4078   -1.3141   -1.1887 C.2     1  LIG1       -0.0866
     27 C           4.1278   -1.7569   -2.4310 C.3     1  LIG1       -0.0254
     28 C           4.5224   -0.6085   -3.3656 C.3     1  LIG1        0.0211
     29 H           4.9134   -1.0756   -4.2829 H       1  LIG1        0.0379
     30 C           3.2642    0.1306   -3.8236 C.2     1  LIG1        0.1700
     31 O           2.6016   -0.3661   -4.7469 O.2     1  LIG1       -0.2940
     32 C           5.6750    0.2365   -2.8423 C.3     1  LIG1       -0.0553
     33 C           0.2693    1.1883   -0.4423 C.3     1  LIG1        0.1466
     34 H           1.2497    1.5283   -0.0971 H       1  LIG1        0.0772
     35 O          -0.7356    2.1491   -0.0010 O.3     1  LIG1       -0.4577
     36 C          -0.3040    3.2671    0.6525 C.2     1  LIG1        0.3043
     37 C          -1.3735    4.3302    0.6693 C.3     1  LIG1        0.0332
     38 O           0.7891    3.4007    1.1689 O.2     1  LIG1       -0.2512
     39 C           0.2324    1.2548   -1.9673 C.3     1  LIG1        0.1262
     40 H          -0.7364    0.9292   -2.3394 H       1  LIG1        0.0661
     41 C           1.2682    1.4808   -3.1043 C.3     1  LIG1        0.1240
     42 H           0.8834    1.3007   -4.1075 H       1  LIG1        0.0657
     43 C           2.7895    1.4583   -3.1387 C.3     1  LIG1        0.1494
     44 C           3.2722    2.5754   -4.0863 C.3     1  LIG1       -0.0265
     45 O           3.3270    1.7610   -1.8675 O.3     1  LIG1       -0.3786
     46 O           0.6672    2.5683   -2.4080 O.3     1  LIG1       -0.3610
     47 H          -0.3665    0.7405    2.1461 H       1  LIG1        0.0333
     48 C          -0.3779   -0.8544    4.0976 C.3     1  LIG1       -0.0614
     49 H           1.8887   -4.0644    2.9074 H       1  LIG1        0.0236
     50 H           0.1248   -4.1287    2.8700 H       1  LIG1        0.0236
     51 H           0.9587   -3.3761    4.2424 H       1  LIG1        0.0236
     52 H          -3.1153   -1.4320    2.8507 H       1  LIG1        0.0331
     53 H          -3.1031    0.2742    3.2354 H       1  LIG1        0.0331
     54 H          -4.8935   -2.4308    1.4869 H       1  LIG1        0.0620
     55 H          -7.2630   -2.2704    0.8216 H       1  LIG1        0.0618
     56 H          -8.4504   -0.0977    0.9270 H       1  LIG1        0.0618
     57 H          -7.2486    1.9310    1.6862 H       1  LIG1        0.0618
     58 H          -4.8767    1.8014    2.3551 H       1  LIG1        0.0620
     59 H           1.4726   -1.7298   -1.9065 H       1  LIG1        0.0576
     60 H           4.0337   -1.0043   -0.3530 H       1  LIG1        0.0569
     61 H           3.4982   -2.4692   -2.9813 H       1  LIG1        0.0314
     62 H           5.0205   -2.3222   -2.1341 H       1  LIG1        0.0314
     63 H           5.4801    0.6630   -1.8563 H       1  LIG1        0.0237
     64 H           5.9079    1.0531   -3.5317 H       1  LIG1        0.0237
     65 H           6.5786   -0.3779   -2.7513 H       1  LIG1        0.0237
     66 H          -2.2228    4.0418    0.0435 H       1  LIG1        0.0342
     67 H          -0.9516    5.2514    0.2572 H       1  LIG1        0.0342
     68 H          -1.7288    4.5042    1.6878 H       1  LIG1        0.0342
     69 H           2.8733    2.4478   -5.0998 H       1  LIG1        0.0262
     70 H           4.3648    2.5945   -4.1621 H       1  LIG1        0.0262
     71 H           2.9668    3.5628   -3.7234 H       1  LIG1        0.0262
     72 H           2.9730    1.1175   -1.2393 H       1  LIG1        0.2108
     73 H           0.5614   -0.3447    4.3422 H       1  LIG1        0.0233
     74 H          -0.5119   -1.6735    4.8109 H       1  LIG1        0.0233
     75 H          -1.1859   -0.1402    4.2679 H       1  LIG1        0.0233
@<TRIPOS>BOND
     1     1     2    1
     2     2     3    1
     3     2     4    1
     4     4     5    2
     5     2     6    1
     6     6     8    1
     7     8     9    1
     8     9    11    1
     9    11    12    1
    10    13    14    1
    11    14    15   ar
    12    15    16   ar
    13    16    17   ar
    14    17    18   ar
    15    18    19   ar
    16    14    19   ar
    17     8    20    1
    18    20    21    1
    19    11    21   am
    20    21    22    2
    21    20    23    1
    22    23    24    1
    23     4    23    1
    24    23    25    1
    25    25    26    2
    26    26    27    1
    27    27    28    1
    28    28    30    1
    29    30    31    2
    30    20    33    1
    31    35    36    1
    32    36    37    1
    33    36    38    2
    34    33    39    1
    35    39    40    1
    36    39    41    1
    37    41    42    1
    38    41    43    1
    39    30    43    1
    40    41    46    1
    41    39    46    1
    42     8    47    1
    43     6    48    1
    44     6     7    1
    45     9    13    1
    46     9    10    1
    47    33    35    1
    48    33    34    1
    49    28    32    1
    50    28    29    1
    51    43    45    1
    52    43    44    1
    53     1    49    1
    54     1    50    1
    55     1    51    1
    56    13    52    1
    57    13    53    1
    58    15    54    1
    59    16    55    1
    60    17    56    1
    61    18    57    1
    62    19    58    1
    63    25    59    1
    64    26    60    1
    65    27    61    1
    66    27    62    1
    67    32    63    1
    68    32    64    1
    69    32    65    1
    70    37    66    1
    71    37    67    1
    72    37    68    1
    73    44    69    1
    74    44    70    1
    75    44    71    1
    76    45    72    1
    77    48    73    1
    78    48    74    1
    79    48    75    1
