@<TRIPOS>MOLECULE
NuBBE_1274
 33 35 0 0 0
SMALL
GASTEIGER

@<TRIPOS>ATOM
      1 O          -5.2981   -0.8552    0.5728 O.2     1  LIG1       -0.2452
      2 C          -4.1556   -1.2470    0.6486 C.ar    1  LIG1        0.3372
      3 C          -3.8159   -2.6719    0.4104 C.ar    1  LIG1        0.0236
      4 C          -2.5633   -3.0515    0.1443 C.ar    1  LIG1       -0.0443
      5 O          -3.0781   -0.4366    1.0344 O.2     1  LIG1       -0.4217
      6 C          -1.7312   -0.8297    0.7338 C.ar    1  LIG1        0.1482
      7 C          -1.5819   -1.9955   -0.0064 C.ar    1  LIG1        0.0182
      8 C          -0.6831   -1.9732   -1.0670 C.ar    1  LIG1       -0.0476
      9 C          -0.2029   -0.7235   -1.4951 C.ar    1  LIG1       -0.0188
     10 C          -0.3954    0.4039   -0.6919 C.ar    1  LIG1        0.1307
     11 C          -0.7776    0.1819    0.6136 C.ar    1  LIG1        0.0680
     12 C           0.5716   -0.0181    1.3670 C.3     1  LIG1        0.1166
     13 H           0.9250   -1.0394    1.1535 H       1  LIG1        0.0673
     14 O           0.3737    0.0283    2.7780 O.3     1  LIG1       -0.3842
     15 C           1.7261    0.9425    0.9030 C.3     1  LIG1        0.1243
     16 H           1.9040    1.6504    1.7217 H       1  LIG1        0.0663
     17 O           2.9427    0.1645    0.8137 O.3     1  LIG1       -0.3849
     18 C           1.4882    1.7269   -0.4504 C.3     1  LIG1        0.1335
     19 C           2.3842    1.3594   -1.6528 C.3     1  LIG1       -0.0226
     20 C           1.7769    3.2207   -0.1717 C.3     1  LIG1       -0.0226
     21 O           0.1450    1.6240   -0.9612 O.3     1  LIG1       -0.4831
     22 H          -4.6435   -3.3689    0.4292 H       1  LIG1        0.0689
     23 H          -2.2866   -4.0826   -0.0372 H       1  LIG1        0.0627
     24 H          -0.4811   -2.8655   -1.6498 H       1  LIG1        0.0626
     25 H           0.3621   -0.6542   -2.4173 H       1  LIG1        0.0654
     26 H           0.0941   -0.8690    3.0352 H       1  LIG1        0.2103
     27 H           3.6480    0.7445    0.4807 H       1  LIG1        0.2101
     28 H           3.4346    1.6188   -1.5015 H       1  LIG1        0.0269
     29 H           2.0352    1.8996   -2.5458 H       1  LIG1        0.0269
     30 H           2.3273    0.2975   -1.9017 H       1  LIG1        0.0269
     31 H           2.8546    3.3910   -0.0476 H       1  LIG1        0.0269
     32 H           1.2822    3.5670    0.7422 H       1  LIG1        0.0269
     33 H           1.4184    3.8609   -0.9846 H       1  LIG1        0.0269
@<TRIPOS>BOND
     1     1     2    2
     2     2     3   ar
     3     3     4   ar
     4     2     5   ar
     5     5     6   ar
     6     6     7   ar
     7     4     7   ar
     8     7     8   ar
     9     8     9   ar
    10     9    10   ar
    11    10    11   ar
    12     6    11   ar
    13    11    12    1
    14    12    13    1
    15    12    14    1
    16    12    15    1
    17    15    18    1
    18    18    19    1
    19    18    20    1
    20    18    21    1
    21    10    21    1
    22    15    17    1
    23    15    16    1
    24     3    22    1
    25     4    23    1
    26     8    24    1
    27     9    25    1
    28    14    26    1
    29    17    27    1
    30    19    28    1
    31    19    29    1
    32    19    30    1
    33    20    31    1
    34    20    32    1
    35    20    33    1
