@<TRIPOS>MOLECULE
NuBBE_1756
 23 23 0 0 0
SMALL
GASTEIGER

@<TRIPOS>ATOM
      1 C          -1.9405    2.7869    2.3676 C.3     1  LIG1        0.0788
      2 O          -0.8940    2.9155    1.4126 O.3     1  LIG1       -0.4951
      3 C          -0.3864    1.7509    0.9040 C.ar    1  LIG1        0.1201
      4 C           0.6232    1.9125   -0.0469 C.ar    1  LIG1       -0.0197
      5 C           1.2249    0.8011   -0.6439 C.ar    1  LIG1       -0.0548
      6 C           0.8278   -0.4945   -0.2904 C.ar    1  LIG1       -0.0434
      7 C           1.4764   -1.7023   -0.9234 C.3     1  LIG1       -0.0097
      8 C           0.7862   -2.1440   -2.1838 C.2     1  LIG1       -0.0868
      9 C           0.2434   -3.3534   -2.3648 C.2     1  LIG1       -0.1023
     10 C          -0.1913   -0.6513    0.6577 C.ar    1  LIG1       -0.0548
     11 C          -0.7903    0.4628    1.2546 C.ar    1  LIG1       -0.0197
     12 H          -2.2816    3.7922    2.6321 H       1  LIG1        0.0660
     13 H          -1.5775    2.3046    3.2815 H       1  LIG1        0.0660
     14 H          -2.7968    2.2472    1.9492 H       1  LIG1        0.0660
     15 H           0.9465    2.9130   -0.3240 H       1  LIG1        0.0654
     16 H           2.0095    0.9549   -1.3810 H       1  LIG1        0.0622
     17 H           1.5093   -2.5170   -0.1886 H       1  LIG1        0.0355
     18 H           2.5232   -1.4717   -1.1552 H       1  LIG1        0.0355
     19 H           0.7516   -1.4234   -2.9999 H       1  LIG1        0.0570
     20 H           0.2567   -4.1096   -1.5855 H       1  LIG1        0.0532
     21 H          -0.2302   -3.6143   -3.3071 H       1  LIG1        0.0532
     22 H          -0.5232   -1.6468    0.9443 H       1  LIG1        0.0622
     23 H          -1.5668    0.2868    1.9908 H       1  LIG1        0.0654
@<TRIPOS>BOND
     1     1     2    1
     2     2     3    1
     3     3     4   ar
     4     4     5   ar
     5     5     6   ar
     6     6     7    1
     7     7     8    1
     8     8     9    2
     9     6    10   ar
    10    10    11   ar
    11     3    11   ar
    12     1    12    1
    13     1    13    1
    14     1    14    1
    15     4    15    1
    16     5    16    1
    17     7    17    1
    18     7    18    1
    19     8    19    1
    20     9    20    1
    21     9    21    1
    22    10    22    1
    23    11    23    1
