REMARK  Name = NuBBE_2031
REMARK  6 active torsions:
REMARK  status: ('A' for Active; 'I' for Inactive)
REMARK    1  A    between atoms: C_1  and  C_2
REMARK    2  A    between atoms: C_4  and  O_5
REMARK    3  A    between atoms: O_5  and  C_6
REMARK    4  A    between atoms: C_7  and  C_8
REMARK    5  A    between atoms: C_8  and  C_9
REMARK    6  A    between atoms: C_8  and  C_10
REMARK                            x       y       z     vdW  Elec       q    Type
REMARK                         _______ _______ _______ _____ _____    ______ ____
ROOT
ATOM      1  C   LIG A   1      -3.820  -0.049   0.344  0.00  0.00    +0.044 C 
ATOM      2  C   LIG A   1      -2.330  -0.182   0.238  0.00  0.00    -0.047 A 
ATOM      3  C   LIG A   1      -1.540   0.927  -0.095  0.00  0.00    +0.049 A 
ATOM      4  C   LIG A   1      -0.150   0.807  -0.240  0.00  0.00    +0.124 A 
ATOM      5  C   LIG A   1       0.470  -0.448  -0.061  0.00  0.00    -0.003 A 
ATOM      6  C   LIG A   1      -0.333  -1.551   0.279  0.00  0.00    +0.008 A 
ATOM      7  C   LIG A   1      -1.717  -1.422   0.413  0.00  0.00    +0.004 A 
ENDROOT
BRANCH   5   8
ATOM      8  C   LIG A   1       1.983  -0.595  -0.195  0.00  0.00    +0.016 C 
ATOM      9  C   LIG A   1       2.657  -0.373   1.161  0.00  0.00    +0.012 C 
ATOM     10  C   LIG A   1       2.433  -1.932  -0.799  0.00  0.00    +0.012 C 
ENDBRANCH   5   8
BRANCH   4  11
ATOM     11  O   LIG A   1       0.683   1.851  -0.553  0.00  0.00    -0.495 OA
ATOM     12  C   LIG A   1       0.093   3.126  -0.768  0.00  0.00    +0.277 C 
ENDBRANCH   4  11
TORSDOF 2
