@<TRIPOS>MOLECULE
NuBBE_2366
 60 65 0 0 0
SMALL
GASTEIGER

@<TRIPOS>ATOM
      1 O          -3.0318    3.6164    0.1710 O.2     1  LIG1       -0.2755
      2 C          -2.8005    2.5752    0.8193 C.2     1  LIG1        0.2170
      3 C          -3.7113    2.2332    1.9628 C.3     1  LIG1        0.0127
      4 N          -1.7718    1.7324    0.5103 N.am    1  LIG1       -0.2641
      5 C          -1.3440    0.4574    1.0919 C.3     1  LIG1        0.0449
      6 H          -0.4017    0.8411    1.5463 H       1  LIG1        0.0515
      7 C          -0.8528   -0.4361   -0.0717 C.3     1  LIG1        0.0609
      8 C          -0.1089    0.7354   -0.7587 C.ar    1  LIG1       -0.0066
      9 C          -0.7366    1.9723   -0.4525 C.ar    1  LIG1        0.0861
     10 C          -0.2604    3.1718   -0.9890 C.ar    1  LIG1        0.1844
     11 O          -0.7590    4.3850   -0.5991 O.3     1  LIG1       -0.5020
     12 C           0.8388    3.1450   -1.8779 C.ar    1  LIG1        0.2052
     13 O           1.3264    4.3635   -2.2940 O.3     1  LIG1       -0.4885
     14 C           2.7050    4.4116   -2.6594 C.3     1  LIG1        0.0791
     15 C           1.3483    1.9044   -2.3050 C.ar    1  LIG1        0.1656
     16 O           2.2534    1.8701   -3.3397 O.3     1  LIG1       -0.4913
     17 C           3.1831    0.7892   -3.3308 C.3     1  LIG1        0.0790
     18 C           0.8519    0.7206   -1.7544 C.ar    1  LIG1       -0.0104
     19 C          -0.4848   -1.8319    0.5426 C.3     1  LIG1        0.1402
     20 O          -1.7359   -2.5558    0.8240 O.3     1  LIG1       -0.3574
     21 C          -1.4789   -3.6193    1.7487 C.3     1  LIG1        0.0506
     22 C          -0.1025   -3.3651    2.3174 C.3     1  LIG1       -0.0198
     23 C           0.1586   -1.9008    1.9231 C.3     1  LIG1        0.0166
     24 C          -0.6190   -1.0025    2.9516 C.3     1  LIG1       -0.0416
     25 C          -1.8312   -0.2152    2.3597 C.3     1  LIG1       -0.0323
     26 C           1.6528   -1.5896    1.8135 C.3     1  LIG1       -0.0422
     27 C           2.3248   -2.4456    0.7253 C.3     1  LIG1       -0.0395
     28 C           1.5814   -2.4248   -0.6249 C.3     1  LIG1        0.0015
     29 N           0.1313   -2.5732   -0.5403 N.3     1  LIG1       -0.2737
     30 C          -0.6882   -2.1881   -1.7171 C.3     1  LIG1        0.0025
     31 C          -1.6377   -1.0100   -1.2691 C.3     1  LIG1       -0.0247
     32 H          -4.4675    3.0194    2.0694 H       1  LIG1        0.0323
     33 H          -3.1502    2.2204    2.8986 H       1  LIG1        0.0323
     34 H          -4.2225    1.2891    1.7772 H       1  LIG1        0.0323
     35 H          -1.7066    4.2535   -0.3783 H       1  LIG1        0.2924
     36 H           2.7947    4.4353   -3.7513 H       1  LIG1        0.0660
     37 H           3.3121    3.6006   -2.2422 H       1  LIG1        0.0660
     38 H           3.1362    5.3331   -2.2600 H       1  LIG1        0.0660
     39 H           3.7455    0.7509   -2.3903 H       1  LIG1        0.0660
     40 H           3.8933    0.9540   -4.1454 H       1  LIG1        0.0660
     41 H           2.6887   -0.1647   -3.5323 H       1  LIG1        0.0660
     42 H           1.1540   -0.2074   -2.1980 H       1  LIG1        0.0659
     43 H          -1.5378   -4.5778    1.2241 H       1  LIG1        0.0561
     44 H          -2.2545   -3.5943    2.5193 H       1  LIG1        0.0561
     45 H           0.5947   -4.0715    1.8585 H       1  LIG1        0.0294
     46 H          -0.0527   -3.5531    3.3949 H       1  LIG1        0.0294
     47 H           0.0833   -0.2783    3.3877 H       1  LIG1        0.0273
     48 H          -0.9833   -1.5850    3.8064 H       1  LIG1        0.0273
     49 H          -2.1189    0.5048    3.1266 H       1  LIG1        0.0284
     50 H          -2.7032   -0.8490    2.1783 H       1  LIG1        0.0284
     51 H           2.1538   -1.7611    2.7735 H       1  LIG1        0.0272
     52 H           1.7959   -0.5299    1.5665 H       1  LIG1        0.0272
     53 H           3.3491   -2.0808    0.5746 H       1  LIG1        0.0278
     54 H           2.4311   -3.4799    1.0683 H       1  LIG1        0.0278
     55 H           1.9831   -3.2255   -1.2570 H       1  LIG1        0.0427
     56 H           1.8907   -1.5032   -1.0999 H       1  LIG1        0.0427
     57 H          -1.2980   -3.0403   -2.0367 H       1  LIG1        0.0428
     58 H          -0.0711   -1.9050   -2.5756 H       1  LIG1        0.0428
     59 H          -2.6213   -1.3928   -0.9719 H       1  LIG1        0.0288
     60 H          -1.8174   -0.3278   -2.1090 H       1  LIG1        0.0288
@<TRIPOS>BOND
     1     1     2    2
     2     2     3    1
     3     4     5    1
     4     5     7    1
     5     7     8    1
     6     8     9   ar
     7     4     9    1
     8     9    10   ar
     9    10    12   ar
    10    13    14    1
    11    12    15   ar
    12    16    17    1
    13    15    18   ar
    14     8    18   ar
    15     7    19    1
    16    19    20    1
    17    20    21    1
    18    21    22    1
    19    22    23    1
    20    19    23    1
    21    23    24    1
    22    24    25    1
    23     5    25    1
    24    23    26    1
    25    26    27    1
    26    27    28    1
    27    19    29    1
    28    28    29    1
    29    29    30    1
    30    30    31    1
    31     7    31    1
    32     2     4   am
    33     5     6    1
    34    10    11    1
    35    12    13    1
    36    15    16    1
    37     3    32    1
    38     3    33    1
    39     3    34    1
    40    11    35    1
    41    14    36    1
    42    14    37    1
    43    14    38    1
    44    17    39    1
    45    17    40    1
    46    17    41    1
    47    18    42    1
    48    21    43    1
    49    21    44    1
    50    22    45    1
    51    22    46    1
    52    24    47    1
    53    24    48    1
    54    25    49    1
    55    25    50    1
    56    26    51    1
    57    26    52    1
    58    27    53    1
    59    27    54    1
    60    28    55    1
    61    28    56    1
    62    30    57    1
    63    30    58    1
    64    31    59    1
    65    31    60    1
