@<TRIPOS>MOLECULE
NuBBE_1296
 81 82 0 0 0
SMALL
GASTEIGER

@<TRIPOS>ATOM
      1 C           0.6124    5.6019    2.7725 C.3     1  LIG1       -0.0359
      2 C          -0.3072    5.7933    1.5854 C.ar    1  LIG1       -0.0021
      3 C          -0.7232    4.6804    0.8793 C.ar    1  LIG1        0.1281
      4 C          -1.8127    4.7279   -0.0194 C.ar    1  LIG1        0.0011
      5 C          -2.4530    3.4558   -0.4739 C.3     1  LIG1       -0.0202
      6 C          -1.6251    2.2326   -0.1491 C.3     1  LIG1       -0.0091
      7 C          -0.8291    2.3579    1.1719 C.3     1  LIG1        0.1082
      8 O          -0.0118    3.5151    1.1066 O.3     1  LIG1       -0.4854
      9 C           0.0421    1.0750    1.2674 C.3     1  LIG1       -0.0132
     10 C           0.9697    0.9104    2.4793 C.3     1  LIG1       -0.0492
     11 C           1.7909   -0.4017    2.5570 C.3     1  LIG1       -0.0503
     12 C           1.0401   -1.7555    2.7082 C.3     1  LIG1       -0.0439
     13 H           0.3937   -1.6915    3.5933 H       1  LIG1        0.0298
     14 C           0.1698   -2.1271    1.4947 C.3     1  LIG1       -0.0505
     15 C          -0.5567   -3.4561    1.6589 C.3     1  LIG1       -0.0526
     16 C          -1.4714   -3.8208    0.5017 C.3     1  LIG1       -0.0505
     17 C          -0.8498   -3.7942   -0.9145 C.3     1  LIG1       -0.0439
     18 H          -0.6186   -2.7525   -1.1745 H       1  LIG1        0.0298
     19 C           0.4585   -4.6218   -1.0596 C.3     1  LIG1       -0.0505
     20 C           1.0803   -4.5072   -2.4689 C.3     1  LIG1       -0.0526
     21 C           2.3569   -5.3326   -2.6677 C.3     1  LIG1       -0.0507
     22 C           2.9419   -5.2286   -4.0996 C.3     1  LIG1       -0.0467
     23 C           4.1989   -6.0993   -4.1904 C.3     1  LIG1       -0.0627
     24 C           1.9279   -5.5999   -5.1897 C.3     1  LIG1       -0.0627
     25 C          -1.9489   -4.2859   -1.8651 C.3     1  LIG1       -0.0624
     26 C           2.0716   -2.8785    2.9554 C.3     1  LIG1       -0.0624
     27 C          -1.6603    2.4492    2.4685 C.3     1  LIG1       -0.0249
     28 C          -2.3521    6.0035   -0.3547 C.ar    1  LIG1       -0.0021
     29 C          -1.7953    7.1335    0.2271 C.ar    1  LIG1        0.1234
     30 C          -0.8088    7.0727    1.2329 C.ar    1  LIG1       -0.0024
     31 C          -0.3087    8.3071    1.9137 C.3     1  LIG1       -0.0359
     32 O          -2.2097    8.3989   -0.1617 O.3     1  LIG1       -0.5062
     33 C          -3.4735    6.1146   -1.3645 C.3     1  LIG1       -0.0359
     34 H           1.5829    5.2296    2.4528 H       1  LIG1        0.0279
     35 H           0.1495    4.8658    3.4557 H       1  LIG1        0.0279
     36 H           0.7519    6.4997    3.3711 H       1  LIG1        0.0279
     37 H          -2.6448    3.4887   -1.5561 H       1  LIG1        0.0316
     38 H          -3.4301    3.3681    0.0271 H       1  LIG1        0.0316
     39 H          -0.9045    2.1225   -0.9729 H       1  LIG1        0.0307
     40 H          -2.2567    1.3389   -0.1656 H       1  LIG1        0.0307
     41 H          -0.7158    0.3057    1.3144 H       1  LIG1        0.0304
     42 H           0.6212    0.9201    0.3487 H       1  LIG1        0.0304
     43 H           0.3972    0.9930    3.4078 H       1  LIG1        0.0267
     44 H           1.6831    1.7445    2.4732 H       1  LIG1        0.0267
     45 H           2.4334   -0.2990    3.4453 H       1  LIG1        0.0268
     46 H           2.4770   -0.4528    1.7026 H       1  LIG1        0.0268
     47 H           0.7781   -2.0924    0.5853 H       1  LIG1        0.0268
     48 H          -0.6393   -1.4219    1.3700 H       1  LIG1        0.0268
     49 H          -1.1600   -3.4035    2.5755 H       1  LIG1        0.0265
     50 H           0.1370   -4.2849    1.7792 H       1  LIG1        0.0265
     51 H          -2.3529   -3.1637    0.5215 H       1  LIG1        0.0268
     52 H          -1.8451   -4.8310    0.7139 H       1  LIG1        0.0268
     53 H           0.2519   -5.6731   -0.8270 H       1  LIG1        0.0268
     54 H           1.2030   -4.2782   -0.3310 H       1  LIG1        0.0268
     55 H           1.2971   -3.4549   -2.6857 H       1  LIG1        0.0265
     56 H           0.3537   -4.8500   -3.2063 H       1  LIG1        0.0265
     57 H           2.1467   -6.3863   -2.4437 H       1  LIG1        0.0268
     58 H           3.1205   -5.0034   -1.9521 H       1  LIG1        0.0268
     59 H           3.2519   -4.1915   -4.2826 H       1  LIG1        0.0295
     60 H           3.9776   -7.1480   -3.9658 H       1  LIG1        0.0232
     61 H           4.9490   -5.7518   -3.4709 H       1  LIG1        0.0232
     62 H           4.6530   -6.0514   -5.1861 H       1  LIG1        0.0232
     63 H           1.2830   -6.4297   -4.8820 H       1  LIG1        0.0232
     64 H           2.4155   -5.8808   -6.1297 H       1  LIG1        0.0232
     65 H           1.2823   -4.7415   -5.4113 H       1  LIG1        0.0232
     66 H          -2.3874   -5.2210   -1.4988 H       1  LIG1        0.0232
     67 H          -1.5943   -4.4616   -2.8801 H       1  LIG1        0.0232
     68 H          -2.7499   -3.5419   -1.9304 H       1  LIG1        0.0232
     69 H           2.5136   -2.7996    3.9522 H       1  LIG1        0.0232
     70 H           2.8702   -2.8514    2.2067 H       1  LIG1        0.0232
     71 H           1.6367   -3.8799    2.9152 H       1  LIG1        0.0232
     72 H          -2.4469    3.2043    2.4172 H       1  LIG1        0.0268
     73 H          -1.0027    2.7628    3.2930 H       1  LIG1        0.0268
     74 H          -2.1108    1.4938    2.7448 H       1  LIG1        0.0268
     75 H          -0.6243    9.2374    1.4133 H       1  LIG1        0.0279
     76 H           0.7883    8.3184    1.9127 H       1  LIG1        0.0279
     77 H          -0.6711    8.3538    2.9478 H       1  LIG1        0.0279
     78 H          -2.4037    8.3597   -1.1094 H       1  LIG1        0.2922
     79 H          -4.1744    5.2824   -1.3077 H       1  LIG1        0.0279
     80 H          -3.0536    6.1609   -2.3743 H       1  LIG1        0.0279
     81 H          -4.0757    7.0184   -1.1981 H       1  LIG1        0.0279
@<TRIPOS>BOND
     1     1     2    1
     2     2     3   ar
     3     3     4   ar
     4     4     5    1
     5     5     6    1
     6     6     7    1
     7     7     8    1
     8     3     8    1
     9     9    10    1
    10    10    11    1
    11    11    12    1
    12    12    13    1
    13    12    14    1
    14    14    15    1
    15    15    16    1
    16    16    17    1
    17    17    18    1
    18    17    19    1
    19    19    20    1
    20    20    21    1
    21    21    22    1
    22    22    23    1
    23    22    24    1
    24    17    25    1
    25    12    26    1
    26     4    28   ar
    27    28    29   ar
    28    29    30   ar
    29     2    30   ar
    30    30    31    1
    31    29    32    1
    32    28    33    1
    33     7    27    1
    34     7     9    1
    35     1    34    1
    36     1    35    1
    37     1    36    1
    38     5    37    1
    39     5    38    1
    40     6    39    1
    41     6    40    1
    42     9    41    1
    43     9    42    1
    44    10    43    1
    45    10    44    1
    46    11    45    1
    47    11    46    1
    48    14    47    1
    49    14    48    1
    50    15    49    1
    51    15    50    1
    52    16    51    1
    53    16    52    1
    54    19    53    1
    55    19    54    1
    56    20    55    1
    57    20    56    1
    58    21    57    1
    59    21    58    1
    60    22    59    1
    61    23    60    1
    62    23    61    1
    63    23    62    1
    64    24    63    1
    65    24    64    1
    66    24    65    1
    67    25    66    1
    68    25    67    1
    69    25    68    1
    70    26    69    1
    71    26    70    1
    72    26    71    1
    73    27    72    1
    74    27    73    1
    75    27    74    1
    76    31    75    1
    77    31    76    1
    78    31    77    1
    79    32    78    1
    80    33    79    1
    81    33    80    1
    82    33    81    1
