REMARK  Name = NuBBE_297
REMARK  3 active torsions:
REMARK  status: ('A' for Active; 'I' for Inactive)
REMARK    1  A    between atoms: O_1  and  C_2
REMARK    2  A    between atoms: C_4  and  C_5
REMARK    3  A    between atoms: C_9  and  O_10
REMARK                            x       y       z     vdW  Elec       q    Type
REMARK                         _______ _______ _______ _____ _____    ______ ____
ROOT
ATOM      1  C   LIG A   1      -0.372   0.185  -1.400  0.00  0.00    +0.155 C 
ATOM      2  C   LIG A   1      -0.000  -1.290  -1.328  0.00  0.00    +0.080 C 
ATOM      3  C   LIG A   1      -0.286  -1.812   0.076  0.00  0.00    +0.173 C 
ATOM      4  C   LIG A   1       0.036  -3.299   0.167  0.00  0.00    +0.052 C 
ATOM      5  O   LIG A   1       0.534  -1.139   1.041  0.00  0.00    -0.488 OA
ATOM      6  C   LIG A   1       0.485   0.229   0.968  0.00  0.00    +0.130 A 
ATOM      7  C   LIG A   1       0.036   0.926  -0.161  0.00  0.00    +0.064 A 
ATOM      8  C   LIG A   1       0.006   2.326  -0.102  0.00  0.00    +0.126 A 
ATOM      9  C   LIG A   1       0.473   3.018   1.009  0.00  0.00    +0.046 A 
ATOM     10  C   LIG A   1       0.949   2.311   2.112  0.00  0.00    +0.007 A 
ATOM     11  C   LIG A   1       0.949   0.916   2.091  0.00  0.00    +0.046 A 
ENDROOT
BRANCH   1  12
ATOM     12  O   LIG A   1      -1.779   0.364  -1.569  0.00  0.00    -0.387 OA
ATOM     13  H   LIG A   1      -2.085  -0.281  -2.230  0.00  0.00    +0.210 HD
ENDBRANCH   1  12
BRANCH   8  14
ATOM     14  O   LIG A   1      -0.505   3.068  -1.132  0.00  0.00    -0.506 OA
ATOM     15  H   LIG A   1      -1.181   2.509  -1.563  0.00  0.00    +0.292 HD
ENDBRANCH   8  14
TORSDOF 2
