@<TRIPOS>MOLECULE
NuBBE_1115
 24 24 0 0 0
SMALL
GASTEIGER

@<TRIPOS>ATOM
      1 O          -3.0477    1.0749    2.3892 O.3     1  LIG1       -0.4771
      2 C          -2.1184    0.1007    2.4062 C.2     1  LIG1        0.3370
      3 C          -1.1472    0.1587    1.2863 C.ar    1  LIG1        0.0660
      4 C          -0.7425    1.3724    0.7147 C.ar    1  LIG1       -0.0021
      5 C           0.1952    1.3963   -0.3248 C.ar    1  LIG1        0.1658
      6 O           0.4497    2.6585   -0.7880 O.3     1  LIG1       -0.4913
      7 C           1.3611    2.7942   -1.8710 C.3     1  LIG1        0.0790
      8 C           0.7513    0.1867   -0.7507 C.ar    1  LIG1        0.2011
      9 O           1.7154    0.1360   -1.7258 O.3     1  LIG1       -0.5009
     10 C           0.3605   -1.0362   -0.1756 C.ar    1  LIG1        0.1658
     11 O           0.9979   -2.1374   -0.6935 O.3     1  LIG1       -0.4913
     12 C           0.6241   -3.4022   -0.1586 C.3     1  LIG1        0.0790
     13 C          -0.5919   -1.0475    0.8395 C.ar    1  LIG1       -0.0021
     14 O          -2.0968   -0.7875    3.2468 O.2     1  LIG1       -0.2451
     15 H          -3.0662    1.6278    1.5852 H       1  LIG1        0.2954
     16 H          -1.1182    2.3213    1.0895 H       1  LIG1        0.0663
     17 H           1.3489    3.8416   -2.1873 H       1  LIG1        0.0660
     18 H           1.0532    2.2002   -2.7374 H       1  LIG1        0.0660
     19 H           2.3809    2.5591   -1.5500 H       1  LIG1        0.0660
     20 H           1.9651   -0.8068   -1.7964 H       1  LIG1        0.2924
     21 H           1.2105   -4.1676   -0.6754 H       1  LIG1        0.0660
     22 H          -0.4347   -3.6084   -0.3454 H       1  LIG1        0.0660
     23 H           0.8604   -3.4633    0.9086 H       1  LIG1        0.0660
     24 H          -0.9104   -1.9717    1.3140 H       1  LIG1        0.0663
@<TRIPOS>BOND
     1     1     2    1
     2     2     3    1
     3     3     4   ar
     4     4     5   ar
     5     5     6    1
     6     6     7    1
     7     5     8   ar
     8     8     9    1
     9     8    10   ar
    10    10    11    1
    11    11    12    1
    12    10    13   ar
    13     3    13   ar
    14     2    14    2
    15     1    15    1
    16     4    16    1
    17     7    17    1
    18     7    18    1
    19     7    19    1
    20     9    20    1
    21    12    21    1
    22    12    22    1
    23    12    23    1
    24    13    24    1
