@<TRIPOS>MOLECULE
NuBBE_120
 31 33 0 0 0
SMALL
GASTEIGER

@<TRIPOS>ATOM
      1 O          -5.9253   -0.1259    1.3887 O.3     1  LIG1       -0.5068
      2 C          -4.6068   -0.1906    1.0493 C.ar    1  LIG1        0.1169
      3 C          -4.0498    0.6927    0.1320 C.ar    1  LIG1       -0.0195
      4 C          -2.6916    0.5883   -0.1843 C.ar    1  LIG1       -0.0475
      5 C          -1.8861   -0.4002    0.4062 C.ar    1  LIG1        0.0213
      6 C          -2.4725   -1.2723    1.3359 C.ar    1  LIG1       -0.0475
      7 C          -3.8296   -1.1700    1.6533 C.ar    1  LIG1       -0.0195
      8 C          -0.4465   -0.4691    0.0745 C.ar    1  LIG1        0.1806
      9 C           0.1892   -1.6178   -0.2226 C.ar    1  LIG1        0.2082
     10 O          -0.4176   -2.8594   -0.2612 O.3     1  LIG1       -0.5007
     11 C           1.6322   -1.5624   -0.5513 C.ar    1  LIG1        0.2379
     12 C           2.2814   -0.2507   -0.5319 C.ar    1  LIG1        0.1092
     13 C           3.6405   -0.0976   -0.8246 C.ar    1  LIG1        0.1348
     14 O           4.4581   -1.1472   -1.1462 O.3     1  LIG1       -0.5058
     15 C           4.2249    1.1666   -0.7987 C.ar    1  LIG1        0.0223
     16 C           3.4388    2.2705   -0.4788 C.ar    1  LIG1        0.1239
     17 O           3.9649    3.5277   -0.4413 O.3     1  LIG1       -0.5065
     18 C           2.0850    2.1281   -0.1863 C.ar    1  LIG1        0.0231
     19 C           1.5057    0.8600   -0.2137 C.ar    1  LIG1        0.1465
     20 O           0.1688    0.7777    0.0800 O.2     1  LIG1       -0.4507
     21 O           2.2498   -2.5878   -0.8308 O.2     1  LIG1       -0.2830
     22 H          -6.3398    0.5945    0.8865 H       1  LIG1        0.2921
     23 H          -4.6475    1.4637   -0.3434 H       1  LIG1        0.0654
     24 H          -2.2651    1.2852   -0.9030 H       1  LIG1        0.0626
     25 H          -1.8787   -2.0416    1.8242 H       1  LIG1        0.0626
     26 H          -4.2753   -1.8532    2.3705 H       1  LIG1        0.0654
     27 H           0.2871   -3.4862   -0.5278 H       1  LIG1        0.2924
     28 H           3.9251   -1.9735   -1.1308 H       1  LIG1        0.2922
     29 H           5.2809    1.2690   -1.0284 H       1  LIG1        0.0691
     30 H           4.9116    3.4800   -0.6582 H       1  LIG1        0.2921
     31 H           1.4883    3.0015    0.0621 H       1  LIG1        0.0691
@<TRIPOS>BOND
     1     1     2    1
     2     2     3   ar
     3     3     4   ar
     4     4     5   ar
     5     5     6   ar
     6     6     7   ar
     7     2     7   ar
     8     5     8    1
     9     8     9   ar
    10     9    10    1
    11     9    11   ar
    12    11    12   ar
    13    12    13   ar
    14    13    14    1
    15    13    15   ar
    16    15    16   ar
    17    16    17    1
    18    16    18   ar
    19    18    19   ar
    20    12    19   ar
    21    19    20   ar
    22     8    20   ar
    23    11    21    2
    24     1    22    1
    25     3    23    1
    26     4    24    1
    27     6    25    1
    28     7    26    1
    29    10    27    1
    30    14    28    1
    31    15    29    1
    32    17    30    1
    33    18    31    1
