@<TRIPOS>MOLECULE
NuBBE_1566
 81 84 0 0 0
SMALL
GASTEIGER

@<TRIPOS>ATOM
      1 O          -5.9293    3.7326    1.4745 O.2     1  LIG1       -0.2866
      2 C          -5.3407    3.6850    0.3597 C.ar    1  LIG1        0.1998
      3 C          -4.1636    2.8439    0.1571 C.ar    1  LIG1        0.0828
      4 C          -3.5861    2.1024    1.3329 C.3     1  LIG1        0.1322
      5 C          -2.4489    2.9027    2.0221 C.3     1  LIG1       -0.0113
      6 C          -1.8074    2.2321    3.2552 C.3     1  LIG1       -0.0494
      7 C          -1.0902    0.8884    3.0279 C.3     1  LIG1       -0.0529
      8 C           0.0891    0.9971    2.0555 C.3     1  LIG1       -0.0531
      9 C           0.8990   -0.2949    1.8589 C.3     1  LIG1       -0.0531
     10 C           0.1305   -1.4302    1.1968 C.3     1  LIG1       -0.0531
     11 C           0.9320   -2.6725    0.8657 C.3     1  LIG1       -0.0531
     12 C           1.5616   -3.3881    2.0499 C.3     1  LIG1       -0.0531
     13 C           2.4077   -4.6277    1.7062 C.3     1  LIG1       -0.0531
     14 C           3.6949   -4.3996    0.8896 C.3     1  LIG1       -0.0531
     15 C           3.4701   -3.8793   -0.5277 C.3     1  LIG1       -0.0531
     16 C           4.7269   -3.6488   -1.3476 C.3     1  LIG1       -0.0530
     17 C           4.4374   -2.8993   -2.6640 C.3     1  LIG1       -0.0528
     18 C           3.7284   -1.5274   -2.5796 C.3     1  LIG1       -0.0496
     19 C           4.4962   -0.4253   -1.8329 C.3     1  LIG1       -0.0348
     20 C           4.7089   -0.6878   -0.3699 C.2     1  LIG1       -0.0882
     21 C           5.9207   -0.8403    0.1879 C.2     1  LIG1       -0.0910
     22 C           6.1443   -1.2146    1.6160 C.3     1  LIG1       -0.0468
     23 C          -3.7798    2.6329   -1.1109 C.ar    1  LIG1        0.1494
     24 C          -2.9113    1.4803   -1.3518 C.ar    1  LIG1        0.0594
     25 C          -2.4051    1.1463   -2.6199 C.ar    1  LIG1       -0.0475
     26 C          -1.7918   -0.0929   -2.8426 C.ar    1  LIG1       -0.0609
     27 C          -1.7333   -1.0264   -1.8186 C.ar    1  LIG1       -0.0583
     28 C          -2.2672   -0.7039   -0.5743 C.ar    1  LIG1       -0.0192
     29 C          -2.7717    0.5613   -0.3164 C.ar    1  LIG1        0.1320
     30 O          -3.1689    0.7793    0.9715 O.3     1  LIG1       -0.4833
     31 O          -4.2919    3.2641   -2.2239 O.2     1  LIG1       -0.4541
     32 C          -5.3059    4.1590   -2.0421 C.ar    1  LIG1        0.1393
     33 C          -5.8269    4.7971   -3.1659 C.ar    1  LIG1       -0.0186
     34 C          -6.9040    5.6766   -3.0327 C.ar    1  LIG1       -0.0582
     35 C          -7.4530    5.9290   -1.7698 C.ar    1  LIG1       -0.0609
     36 C          -6.9329    5.3014   -0.6457 C.ar    1  LIG1       -0.0474
     37 C          -5.8702    4.4117   -0.7873 C.ar    1  LIG1        0.0644
     38 H          -4.3662    1.9378    2.0865 H       1  LIG1        0.0787
     39 H          -2.8552    3.8718    2.3517 H       1  LIG1        0.0304
     40 H          -1.6584    3.1467    1.3023 H       1  LIG1        0.0304
     41 H          -2.5800    2.0954    4.0223 H       1  LIG1        0.0267
     42 H          -1.0831    2.9376    3.6879 H       1  LIG1        0.0267
     43 H          -1.8064    0.1350    2.6951 H       1  LIG1        0.0265
     44 H          -0.7249    0.5240    3.9957 H       1  LIG1        0.0265
     45 H           0.7815    1.7556    2.4391 H       1  LIG1        0.0265
     46 H          -0.2556    1.3603    1.0808 H       1  LIG1        0.0265
     47 H           1.3088   -0.6277    2.8130 H       1  LIG1        0.0265
     48 H           1.7453   -0.0410    1.2071 H       1  LIG1        0.0265
     49 H          -0.1201   -1.0399    0.2144 H       1  LIG1        0.0265
     50 H          -0.7672   -1.7051    1.7517 H       1  LIG1        0.0265
     51 H           1.6738   -2.2530    0.2106 H       1  LIG1        0.0265
     52 H           0.3412   -3.3753    0.2623 H       1  LIG1        0.0265
     53 H           0.7489   -3.7075    2.7160 H       1  LIG1        0.0265
     54 H           2.1816   -2.6910    2.6201 H       1  LIG1        0.0265
     55 H           1.7852   -5.3828    1.2120 H       1  LIG1        0.0265
     56 H           2.7132   -5.0713    2.6648 H       1  LIG1        0.0265
     57 H           4.2302   -5.3534    0.8222 H       1  LIG1        0.0265
     58 H           4.3453   -3.7137    1.4445 H       1  LIG1        0.0265
     59 H           3.0663   -2.8914   -0.4526 H       1  LIG1        0.0265
     60 H           2.7483   -4.5022   -1.0654 H       1  LIG1        0.0265
     61 H           5.2220   -4.6006   -1.5508 H       1  LIG1        0.0265
     62 H           5.4423   -3.0803   -0.7575 H       1  LIG1        0.0265
     63 H           3.8242   -3.5518   -3.2990 H       1  LIG1        0.0265
     64 H           5.3887   -2.7579   -3.1886 H       1  LIG1        0.0265
     65 H           2.7177   -1.6327   -2.1663 H       1  LIG1        0.0268
     66 H           3.5743   -1.1728   -3.6097 H       1  LIG1        0.0268
     67 H           3.9344    0.5134   -1.9179 H       1  LIG1        0.0307
     68 H           5.4547   -0.2600   -2.3385 H       1  LIG1        0.0307
     69 H           3.8175   -0.8130    0.2402 H       1  LIG1        0.0569
     70 H           6.8101   -0.7677   -0.4343 H       1  LIG1        0.0566
     71 H           5.2139   -1.4833    2.1262 H       1  LIG1        0.0272
     72 H           6.6059   -0.3773    2.1438 H       1  LIG1        0.0272
     73 H           6.8175   -2.0773    1.6771 H       1  LIG1        0.0272
     74 H          -2.5215    1.8265   -3.4573 H       1  LIG1        0.0626
     75 H          -1.4041   -0.3491   -3.8248 H       1  LIG1        0.0618
     76 H          -1.2643   -1.9957   -1.9688 H       1  LIG1        0.0619
     77 H          -2.2490   -1.4309    0.2313 H       1  LIG1        0.0654
     78 H          -5.4114    4.5961   -4.1507 H       1  LIG1        0.0654
     79 H          -7.3303    6.1545   -3.9096 H       1  LIG1        0.0619
     80 H          -8.3016    6.6022   -1.6678 H       1  LIG1        0.0618
     81 H          -7.3609    5.4844    0.3368 H       1  LIG1        0.0626
@<TRIPOS>BOND
     1     1     2    2
     2     2     3   ar
     3     3     4    1
     4     4     5    1
     5     5     6    1
     6     6     7    1
     7     7     8    1
     8     8     9    1
     9     9    10    1
    10    10    11    1
    11    11    12    1
    12    12    13    1
    13    13    14    1
    14    14    15    1
    15    15    16    1
    16    16    17    1
    17    17    18    1
    18    18    19    1
    19    19    20    1
    20    20    21    2
    21    21    22    1
    22     3    23   ar
    23    23    24    1
    24    24    25   ar
    25    25    26   ar
    26    26    27   ar
    27    27    28   ar
    28    28    29   ar
    29    24    29   ar
    30    29    30    1
    31     4    30    1
    32    23    31   ar
    33    31    32   ar
    34    32    33   ar
    35    33    34   ar
    36    34    35   ar
    37    35    36   ar
    38    36    37   ar
    39    32    37   ar
    40     2    37   ar
    41     4    38    1
    42     5    39    1
    43     5    40    1
    44     6    41    1
    45     6    42    1
    46     7    43    1
    47     7    44    1
    48     8    45    1
    49     8    46    1
    50     9    47    1
    51     9    48    1
    52    10    49    1
    53    10    50    1
    54    11    51    1
    55    11    52    1
    56    12    53    1
    57    12    54    1
    58    13    55    1
    59    13    56    1
    60    14    57    1
    61    14    58    1
    62    15    59    1
    63    15    60    1
    64    16    61    1
    65    16    62    1
    66    17    63    1
    67    17    64    1
    68    18    65    1
    69    18    66    1
    70    19    67    1
    71    19    68    1
    72    20    69    1
    73    21    70    1
    74    22    71    1
    75    22    72    1
    76    22    73    1
    77    25    74    1
    78    26    75    1
    79    27    76    1
    80    28    77    1
    81    33    78    1
    82    34    79    1
    83    35    80    1
    84    36    81    1
