@<TRIPOS>MOLECULE
NuBBE_2303
 57 62 0 0 0
SMALL
GASTEIGER

@<TRIPOS>ATOM
      1 C          -3.4489   -0.7468   -0.2569 C.ar    1  LIG1        0.1417
      2 C          -4.1633    0.1228    0.5698 C.ar    1  LIG1       -0.0181
      3 C          -3.5295    1.2194    1.1730 C.ar    1  LIG1       -0.0579
      4 C          -2.1693    1.4592    0.9654 C.ar    1  LIG1       -0.0559
      5 C          -1.4620    0.6030    0.1301 C.ar    1  LIG1       -0.0126
      6 C           0.0208    0.6374   -0.2669 C.3     1  LIG1        0.0365
      7 C           0.9858    1.0273    0.8524 C.3     1  LIG1        0.0277
      8 H           0.3974    1.3109    1.7357 H       1  LIG1        0.0477
      9 C           2.0376   -0.0182    1.2705 C.3     1  LIG1       -0.0127
     10 C           1.2675   -1.2924    1.6626 C.3     1  LIG1       -0.0439
     11 C           0.2825   -1.7789    0.5761 C.3     1  LIG1       -0.0296
     12 C           0.1710   -0.8540   -0.7127 C.3     1  LIG1        0.0534
     13 N          -1.1840   -1.1381   -1.3599 N.am    1  LIG1       -0.2611
     14 C          -2.1151   -0.4590   -0.5211 C.ar    1  LIG1        0.0826
     15 C          -1.3720   -1.1279   -2.7506 C.2     1  LIG1        0.2173
     16 O          -0.4483   -1.0688   -3.5615 O.2     1  LIG1       -0.2755
     17 C          -2.7774   -1.2168   -3.2990 C.3     1  LIG1        0.0127
     18 C           1.3976   -1.1754   -1.5995 C.3     1  LIG1       -0.0301
     19 C           2.7193   -1.3981   -0.8770 C.3     1  LIG1       -0.0505
     20 C           3.0947   -0.3551    0.1655 C.3     1  LIG1       -0.0458
     21 C           2.8155    0.5947    2.4874 C.3     1  LIG1       -0.0448
     22 C           2.6639    2.1246    2.6422 C.3     1  LIG1       -0.0396
     23 C           2.4794    2.9117    1.3326 C.3     1  LIG1       -0.0008
     24 N           1.7067    2.1856    0.3463 N.3     1  LIG1       -0.2979
     25 C           0.8292    2.9146   -0.5420 C.3     1  LIG1        0.0001
     26 C           0.1957    1.7588   -1.3208 C.3     1  LIG1       -0.0270
     27 O          -4.1249   -1.8400   -0.7184 O.3     1  LIG1       -0.4932
     28 C          -3.5003   -3.0651   -0.3288 C.3     1  LIG1        0.0789
     29 H          -5.2148   -0.0682    0.7705 H       1  LIG1        0.0655
     30 H          -4.1024    1.8784    1.8219 H       1  LIG1        0.0619
     31 H          -1.6907    2.3057    1.4484 H       1  LIG1        0.0621
     32 H           0.6871   -1.0993    2.5755 H       1  LIG1        0.0272
     33 H           1.9623   -2.1003    1.9238 H       1  LIG1        0.0272
     34 H          -0.6918   -1.9043    1.0661 H       1  LIG1        0.0286
     35 H           0.5415   -2.8013    0.2690 H       1  LIG1        0.0286
     36 H          -2.7367   -1.1022   -4.3881 H       1  LIG1        0.0323
     37 H          -3.4174   -0.4172   -2.9244 H       1  LIG1        0.0323
     38 H          -3.1967   -2.2030   -3.0937 H       1  LIG1        0.0323
     39 H           1.5548   -0.4137   -2.3665 H       1  LIG1        0.0286
     40 H           1.2030   -2.1095   -2.1442 H       1  LIG1        0.0286
     41 H           3.5203   -1.4476   -1.6261 H       1  LIG1        0.0266
     42 H           2.7198   -2.3915   -0.4104 H       1  LIG1        0.0266
     43 H           3.4320    0.5513   -0.3493 H       1  LIG1        0.0271
     44 H           3.9966   -0.7529    0.6514 H       1  LIG1        0.0271
     45 H           3.8851    0.3608    2.4289 H       1  LIG1        0.0271
     46 H           2.4759    0.1334    3.4238 H       1  LIG1        0.0271
     47 H           3.5225    2.5238    3.1954 H       1  LIG1        0.0278
     48 H           1.7879    2.3121    3.2781 H       1  LIG1        0.0278
     49 H           3.4646    3.1284    0.9036 H       1  LIG1        0.0427
     50 H           2.0182    3.8773    1.5724 H       1  LIG1        0.0427
     51 H           1.3731    3.5910   -1.2082 H       1  LIG1        0.0427
     52 H           0.0708    3.4844    0.0064 H       1  LIG1        0.0427
     53 H           0.8823    1.4691   -2.1202 H       1  LIG1        0.0287
     54 H          -0.7388    2.0751   -1.7981 H       1  LIG1        0.0287
     55 H          -3.0625   -3.0114    0.6745 H       1  LIG1        0.0660
     56 H          -2.7431   -3.3639   -1.0592 H       1  LIG1        0.0660
     57 H          -4.2726   -3.8403   -0.3157 H       1  LIG1        0.0660
@<TRIPOS>BOND
     1     1     2   ar
     2     2     3   ar
     3     3     4   ar
     4     4     5   ar
     5     5     6    1
     6     6     7    1
     7     7     9    1
     8     9    10    1
     9    10    11    1
    10    11    12    1
    11     6    12    1
    12    12    13    1
    13    13    14    1
    14     1    14   ar
    15     5    14   ar
    16    15    16    2
    17    15    17    1
    18    12    18    1
    19    18    19    1
    20    19    20    1
    21     9    20    1
    22     9    21    1
    23    21    22    1
    24    22    23    1
    25    23    24    1
    26     7    24    1
    27    24    25    1
    28    25    26    1
    29     6    26    1
    30    27    28    1
    31     1    27    1
    32     7     8    1
    33    13    15   am
    34     2    29    1
    35     3    30    1
    36     4    31    1
    37    10    32    1
    38    10    33    1
    39    11    34    1
    40    11    35    1
    41    17    36    1
    42    17    37    1
    43    17    38    1
    44    18    39    1
    45    18    40    1
    46    19    41    1
    47    19    42    1
    48    20    43    1
    49    20    44    1
    50    21    45    1
    51    21    46    1
    52    22    47    1
    53    22    48    1
    54    23    49    1
    55    23    50    1
    56    25    51    1
    57    25    52    1
    58    26    53    1
    59    26    54    1
    60    28    55    1
    61    28    56    1
    62    28    57    1
