@<TRIPOS>MOLECULE
NuBBE_1739
 28 30 0 0 0
SMALL
GASTEIGER

@<TRIPOS>ATOM
      1 C          -1.2134    1.1948    0.1600 C.3     1  LIG1       -0.0150
      2 C          -1.9165    2.0129   -0.9320 C.3     1  LIG1       -0.0600
      3 C          -1.9816   -0.1058    0.3942 C.3     1  LIG1       -0.0600
      4 C           0.2795    1.0000   -0.1742 C.3     1  LIG1        0.1010
      5 C           1.5444    1.3768    0.8140 C.3     1  LIG1        0.1173
      6 H           2.5957    1.3501    0.5347 H       1  LIG1        0.0652
      7 O           0.8856    2.2557   -0.0910 O.3     1  LIG1       -0.3617
      8 C           1.1157    0.0099    1.3678 C.3     1  LIG1        0.1168
      9 H           0.4575    0.0069    2.2320 H       1  LIG1        0.0652
     10 C           1.2673   -1.2729    0.5208 C.3     1  LIG1        0.0960
     11 C           1.5602   -0.9944   -0.9257 C.3     1  LIG1       -0.0188
     12 C           0.6500    0.1588   -1.3860 C.3     1  LIG1       -0.0183
     13 O           2.2526   -0.8877    1.4706 O.3     1  LIG1       -0.3623
     14 C           0.5655   -2.5385    0.8781 C.3     1  LIG1       -0.0333
     15 H          -1.2760    1.7751    1.0910 H       1  LIG1        0.0324
     16 H          -1.9156    1.4864   -1.8921 H       1  LIG1        0.0233
     17 H          -1.4229    2.9786   -1.0836 H       1  LIG1        0.0233
     18 H          -2.9579    2.2127   -0.6579 H       1  LIG1        0.0233
     19 H          -1.9447   -0.7694   -0.4745 H       1  LIG1        0.0233
     20 H          -3.0363    0.1033    0.6054 H       1  LIG1        0.0233
     21 H          -1.5892   -0.6523    1.2552 H       1  LIG1        0.0233
     22 H           1.4078   -1.8766   -1.5570 H       1  LIG1        0.0295
     23 H           2.6111   -0.7017   -1.0433 H       1  LIG1        0.0295
     24 H          -0.2453   -0.2607   -1.8556 H       1  LIG1        0.0295
     25 H           1.1539    0.7583   -2.1526 H       1  LIG1        0.0295
     26 H          -0.3527   -2.6522    0.2941 H       1  LIG1        0.0258
     27 H           0.2973   -2.5682    1.9393 H       1  LIG1        0.0258
     28 H           1.2080   -3.3997    0.6681 H       1  LIG1        0.0258
@<TRIPOS>BOND
     1     1     2    1
     2     1     3    1
     3     1     4    1
     4     4     5    1
     5     5     6    1
     6     5     7    1
     7     4     7    1
     8     5     8    1
     9     8     9    1
    10     8    10    1
    11    10    11    1
    12    11    12    1
    13     4    12    1
    14    10    13    1
    15     8    13    1
    16    10    14    1
    17     1    15    1
    18     2    16    1
    19     2    17    1
    20     2    18    1
    21     3    19    1
    22     3    20    1
    23     3    21    1
    24    11    22    1
    25    11    23    1
    26    12    24    1
    27    12    25    1
    28    14    26    1
    29    14    27    1
    30    14    28    1
