@<TRIPOS>MOLECULE
NuBBE_1432
 51 53 0 0 0
SMALL
GASTEIGER

@<TRIPOS>ATOM
      1 C          -3.3739    1.9748    1.8286 C.3     1  LIG1       -0.0440
      2 C          -1.9659    1.5772    2.2046 C.2     1  LIG1       -0.0795
      3 C          -1.3095    2.4882    3.2053 C.3     1  LIG1       -0.0440
      4 C          -1.4046    0.4819    1.6493 C.2     1  LIG1       -0.0821
      5 C          -0.0393   -0.1295    1.9109 C.3     1  LIG1        0.0039
      6 C           0.9629   -0.2714    0.7023 C.3     1  LIG1        0.1510
      7 O           2.1469   -0.9109    1.2831 O.3     1  LIG1       -0.3664
      8 C           3.2066   -1.2264    0.3807 C.3     1  LIG1        0.0378
      9 C           1.3932    1.1064    0.1163 C.3     1  LIG1        0.1380
     10 H           2.2742    0.9805   -0.5154 H       1  LIG1        0.0767
     11 O           1.6784    2.0388    1.1877 O.3     1  LIG1       -0.4582
     12 C           2.9647    2.4566    1.3156 C.2     1  LIG1        0.3043
     13 C           3.1467    3.2544    2.5838 C.3     1  LIG1        0.0332
     14 O           3.8923    2.2012    0.5334 O.2     1  LIG1       -0.2512
     15 C           0.3412    1.7137   -0.7960 C.3     1  LIG1       -0.0084
     16 C          -0.0080    0.7632   -1.9380 C.3     1  LIG1       -0.0189
     17 C          -0.1675   -0.6931   -1.5602 C.ar    1  LIG1        0.0195
     18 C           0.3089   -1.1953   -0.3403 C.ar    1  LIG1        0.0874
     19 N           0.2206   -2.4992    0.0242 N.ar    1  LIG1       -0.2135
     20 C          -0.2987   -3.3162   -0.8988 C.ar    1  LIG1        0.2309
     21 O          -0.3900   -4.6609   -0.7053 O.2     1  LIG1       -0.4449
     22 C          -0.9139   -5.1945   -1.8336 C.ar    1  LIG1        0.0952
     23 C          -1.1737   -4.2066   -2.7544 C.ar    1  LIG1       -0.0109
     24 C          -0.7897   -2.9708   -2.1545 C.ar    1  LIG1        0.0816
     25 C          -0.7502   -1.5979   -2.4836 C.ar    1  LIG1        0.1374
     26 O          -1.1413   -1.0490   -3.6962 O.3     1  LIG1       -0.4940
     27 C          -2.2589   -1.6697   -4.3201 C.3     1  LIG1        0.0788
     28 H          -4.0990    1.4387    2.4499 H       1  LIG1        0.0274
     29 H          -3.5845    1.7584    0.7756 H       1  LIG1        0.0274
     30 H          -3.5378    3.0488    1.9720 H       1  LIG1        0.0274
     31 H          -1.8590    2.4719    4.1525 H       1  LIG1        0.0274
     32 H          -1.3091    3.5182    2.8305 H       1  LIG1        0.0274
     33 H          -0.2713    2.2276    3.4173 H       1  LIG1        0.0274
     34 H          -2.0132   -0.0919    0.9473 H       1  LIG1        0.0572
     35 H          -0.2360   -1.1333    2.3162 H       1  LIG1        0.0340
     36 H           0.4714    0.3778    2.7362 H       1  LIG1        0.0340
     37 H           3.9591   -1.8039    0.9247 H       1  LIG1        0.0524
     38 H           3.7078   -0.3268    0.0194 H       1  LIG1        0.0524
     39 H           2.8677   -1.8245   -0.4698 H       1  LIG1        0.0524
     40 H           4.1152    3.7532    2.5543 H       1  LIG1        0.0342
     41 H           3.1090    2.5926    3.4496 H       1  LIG1        0.0342
     42 H           2.3708    4.0181    2.6438 H       1  LIG1        0.0342
     43 H           0.7265    2.6542   -1.2098 H       1  LIG1        0.0305
     44 H          -0.5513    2.0051   -0.2396 H       1  LIG1        0.0305
     45 H           0.7859    0.8202   -2.6941 H       1  LIG1        0.0316
     46 H          -0.9307    1.1306   -2.4021 H       1  LIG1        0.0316
     47 H          -1.0307   -6.2699   -1.8306 H       1  LIG1        0.1030
     48 H          -1.5800   -4.3823   -3.7384 H       1  LIG1        0.0657
     49 H          -2.6564   -0.9715   -5.0633 H       1  LIG1        0.0660
     50 H          -3.0604   -1.8931   -3.6073 H       1  LIG1        0.0660
     51 H          -1.9455   -2.5638   -4.8638 H       1  LIG1        0.0660
@<TRIPOS>BOND
     1     1     2    1
     2     2     3    1
     3     2     4    2
     4     4     5    1
     5     5     6    1
     6     6     7    1
     7     7     8    1
     8     6     9    1
     9     9    10    1
    10     9    11    1
    11    11    12    1
    12    12    13    1
    13    12    14    2
    14     9    15    1
    15    15    16    1
    16    16    17    1
    17    17    18   ar
    18     6    18    1
    19    18    19   ar
    20    19    20   ar
    21    20    21   ar
    22    21    22   ar
    23    22    23   ar
    24    20    24   ar
    25    23    24   ar
    26    24    25   ar
    27    17    25   ar
    28    25    26    1
    29    26    27    1
    30     1    28    1
    31     1    29    1
    32     1    30    1
    33     3    31    1
    34     3    32    1
    35     3    33    1
    36     4    34    1
    37     5    35    1
    38     5    36    1
    39     8    37    1
    40     8    38    1
    41     8    39    1
    42    13    40    1
    43    13    41    1
    44    13    42    1
    45    15    43    1
    46    15    44    1
    47    16    45    1
    48    16    46    1
    49    22    47    1
    50    23    48    1
    51    27    49    1
    52    27    50    1
    53    27    51    1
