REMARK  Name = NuBBE_1627
REMARK  12 active torsions:
REMARK  status: ('A' for Active; 'I' for Inactive)
REMARK    1  A    between atoms: C_1  and  C_10
REMARK    2  A    between atoms: C_2  and  C_3
REMARK    3  A    between atoms: C_2  and  C_9
REMARK    4  A    between atoms: C_3  and  C_4
REMARK    5  A    between atoms: C_4  and  C_5
REMARK    6  A    between atoms: C_6  and  C_7
REMARK    7  A    between atoms: C_6  and  C_8
REMARK    8  A    between atoms: C_10  and  C_11
REMARK    9  A    between atoms: C_11  and  C_12
REMARK   10  A    between atoms: C_12  and  C_13
REMARK   11  A    between atoms: C_12  and  C_15
REMARK   12  A    between atoms: C_12  and  O_16
REMARK                            x       y       z     vdW  Elec       q    Type
REMARK                         _______ _______ _______ _____ _____    ______ ____
ROOT
ATOM      1  C   LIG A   1       1.102  -0.071  -0.422  0.00  0.00    -0.028 C 
ATOM      2  C   LIG A   1       0.438   1.044  -0.782  0.00  0.00    -0.076 C 
ATOM      3  C   LIG A   1      -0.055   1.158  -2.207  0.00  0.00    +0.038 C 
ENDROOT
BRANCH   2   4
ATOM      4  C   LIG A   1       0.184   2.233   0.119  0.00  0.00    +0.034 C 
BRANCH   4   5
ATOM      5  C   LIG A   1      -1.084   2.085   0.978  0.00  0.00    +0.031 C 
BRANCH   5   6
ATOM      6  C   LIG A   1      -2.357   1.960   0.177  0.00  0.00    -0.028 C 
ATOM      7  C   LIG A   1      -3.426   2.775   0.199  0.00  0.00    -0.080 C 
ATOM      8  C   LIG A   1      -3.538   3.967   1.105  0.00  0.00    +0.038 C 
ATOM      9  C   LIG A   1      -4.605   2.521  -0.701  0.00  0.00    +0.038 C 
ENDBRANCH   5   6
ENDBRANCH   4   5
ENDBRANCH   2   4
BRANCH   1  10
ATOM     10  C   LIG A   1       1.807  -0.472   0.826  0.00  0.00    +0.030 C 
BRANCH  10  11
ATOM     11  C   LIG A   1       1.838  -2.002   1.052  0.00  0.00    +0.043 C 
BRANCH  11  12
ATOM     12  C   LIG A   1       2.686  -2.880   0.072  0.00  0.00    +0.081 C 
ATOM     13  C   LIG A   1       2.292  -2.822  -1.405  0.00  0.00    +0.046 C 
BRANCH  12  14
ATOM     14  C   LIG A   1       2.695  -4.353   0.440  0.00  0.00    -0.001 C 
ATOM     15  C   LIG A   1       1.742  -5.037   1.086  0.00  0.00    +0.007 C 
ENDBRANCH  12  14
BRANCH  12  16
ATOM     16  O   LIG A   1       4.044  -2.430   0.147  0.00  0.00    -0.385 OA
ATOM     17  H   LIG A   1       4.406  -2.737   0.994  0.00  0.00    +0.211 HD
ENDBRANCH  12  16
ENDBRANCH  11  12
ENDBRANCH  10  11
ENDBRANCH   1  10
TORSDOF 8
