REMARK  Name = NuBBE_2369
REMARK  8 active torsions:
REMARK  status: ('A' for Active; 'I' for Inactive)
REMARK    1  A    between atoms: C_5  and  C_7
REMARK    2  A    between atoms: C_7  and  C_8
REMARK    3  A    between atoms: C_14  and  C_16
REMARK    4  A    between atoms: C_16  and  C_17
REMARK    5  A    between atoms: C_19  and  O_25
REMARK    6  A    between atoms: C_20  and  O_23
REMARK    7  A    between atoms: O_23  and  C_24
REMARK    8  A    between atoms: O_25  and  C_26
REMARK                            x       y       z     vdW  Elec       q    Type
REMARK                         _______ _______ _______ _____ _____    ______ ____
ROOT
ATOM      1  C   LIG A   1      -0.342   1.222  -0.908  0.00  0.00    +0.109 C 
ATOM      2  C   LIG A   1       0.413   1.288  -2.215  0.00  0.00    +0.311 C 
ATOM      3  O   LIG A   1       0.206   2.089  -3.110  0.00  0.00    -0.251 OA
ATOM      4  O   LIG A   1       1.380   0.327  -2.272  0.00  0.00    -0.464 OA
ATOM      5  C   LIG A   1       1.280  -0.496  -1.126  0.00  0.00    +0.236 C 
ATOM      6  C   LIG A   1      -0.125  -0.263  -0.593  0.00  0.00    +0.045 C 
ENDROOT
BRANCH   1   7
ATOM      7  C   LIG A   1       0.252   2.209   0.100  0.00  0.00    +0.050 C 
BRANCH   7  12
ATOM      8  C   LIG A   1      -1.127   5.775  -0.225  0.00  0.00    +0.050 A 
ATOM      9  C   LIG A   1      -0.081   6.364  -0.903  0.00  0.00    +0.166 A 
ATOM     10  C   LIG A   1       1.028   5.646  -1.280  0.00  0.00    +0.167 A 
ATOM     11  C   LIG A   1       1.156   4.303  -0.994  0.00  0.00    +0.053 A 
ATOM     12  C   LIG A   1       0.122   3.669  -0.282  0.00  0.00    -0.043 A 
ATOM     13  C   LIG A   1      -1.021   4.413   0.088  0.00  0.00    +0.007 A 
ATOM     14  O   LIG A   1       1.949   6.413  -1.923  0.00  0.00    -0.453 OA
ATOM     15  C   LIG A   1       1.337   7.714  -1.811  0.00  0.00    +0.466 C 
ATOM     16  O   LIG A   1       0.002   7.673  -1.263  0.00  0.00    -0.453 OA
ENDBRANCH   7  12
ENDBRANCH   1   7
BRANCH   6  17
ATOM     17  C   LIG A   1      -0.327  -0.716   0.853  0.00  0.00    +0.042 C 
BRANCH  17  18
ATOM     18  C   LIG A   1      -0.158  -2.211   1.036  0.00  0.00    -0.043 A 
ATOM     19  C   LIG A   1      -0.985  -3.113   0.347  0.00  0.00    +0.053 A 
ATOM     20  C   LIG A   1      -0.830  -4.497   0.498  0.00  0.00    +0.162 A 
ATOM     21  C   LIG A   1       0.167  -4.997   1.352  0.00  0.00    +0.162 A 
ATOM     22  C   LIG A   1       0.993  -4.104   2.040  0.00  0.00    +0.050 A 
ATOM     23  C   LIG A   1       0.828  -2.722   1.888  0.00  0.00    +0.007 A 
BRANCH  21  24
ATOM     24  O   LIG A   1       0.285  -6.362   1.434  0.00  0.00    -0.491 OA
ATOM     25  C   LIG A   1       0.780  -6.872   2.665  0.00  0.00    +0.277 C 
ENDBRANCH  21  24
BRANCH  20  26
ATOM     26  O   LIG A   1      -1.587  -5.422  -0.179  0.00  0.00    -0.491 OA
ATOM     27  C   LIG A   1      -2.913  -5.021  -0.504  0.00  0.00    +0.277 C 
ENDBRANCH  20  26
ENDBRANCH  17  18
ENDBRANCH   6  17
TORSDOF 6
