@<TRIPOS>MOLECULE
NuBBE_1366
 74 79 0 0 0
SMALL
GASTEIGER

@<TRIPOS>ATOM
      1 O           4.7104    1.5205    3.1727 O.2     1  LIG1       -0.2507
      2 C           4.0277    0.6638    2.6094 C.2     1  LIG1        0.3106
      3 C           3.2156    1.0307    1.3941 C.3     1  LIG1        0.0771
      4 C           2.0491    0.0895    1.1205 C.3     1  LIG1        0.1143
      5 O           1.0530    0.2815    2.1441 O.3     1  LIG1       -0.3845
      6 C           1.3142    0.4183   -0.2286 C.3     1  LIG1        0.1070
      7 O           2.1984    0.4180   -1.3380 O.3     1  LIG1       -0.3849
      8 C           0.0798   -0.7017   -0.4080 C.3     1  LIG1       -0.0005
      9 C          -0.8029   -0.2313   -1.6347 C.3     1  LIG1        0.0090
     10 C          -0.2392   -0.9168   -2.9074 C.3     1  LIG1       -0.0562
     11 C          -0.4696    1.1729   -1.2522 C.3     1  LIG1        0.0807
     12 O          -1.6316    1.4231   -0.1916 O.3     1  LIG1       -0.3875
     13 C          -0.5136    1.9141   -2.6503 C.3     1  LIG1       -0.0148
     14 C           0.4745    1.6806   -0.2367 C.3     1  LIG1        0.0486
     15 H           0.0959    1.7141    0.7920 H       1  LIG1        0.0384
     16 C           0.3169    3.1899   -0.5442 C.3     1  LIG1        0.0897
     17 H           0.3415    3.7642    0.3912 H       1  LIG1        0.0624
     18 O           1.4267    3.6325   -1.3182 O.3     1  LIG1       -0.3887
     19 C          -1.2717    3.5132   -1.2671 C.3     1  LIG1        0.0873
     20 H          -1.1228    4.4264   -1.8590 H       1  LIG1        0.0625
     21 O          -2.2282    3.8187   -0.2605 O.3     1  LIG1       -0.3887
     22 C          -1.8860    2.2982   -2.3413 C.3     1  LIG1        0.0052
     23 C          -2.7228    2.9125   -3.4423 C.3     1  LIG1       -0.0567
     24 C          -2.2772    0.5411   -2.1008 C.3     1  LIG1        0.0117
     25 H          -2.4723    0.2095   -3.1336 H       1  LIG1        0.0344
     26 C          -3.5763    0.1853   -1.3391 C.3     1  LIG1        0.1555
     27 H          -3.6209    0.6159   -0.3355 H       1  LIG1        0.0713
     28 C          -3.6970   -1.3451   -1.1837 C.2     1  LIG1        0.3361
     29 O          -4.3424   -1.6561   -0.0105 O.3     1  LIG1       -0.4661
     30 C          -4.5967   -3.0502    0.1592 C.3     1  LIG1        0.0817
     31 O          -3.3253   -2.1548   -2.0161 O.2     1  LIG1       -0.2479
     32 O          -4.7032    0.6948   -2.0393 O.3     1  LIG1       -0.3803
     33 C           0.7027   -2.1013   -0.4646 C.3     1  LIG1       -0.0462
     34 C           1.4062   -2.4012    0.8668 C.3     1  LIG1       -0.0408
     35 C           2.5403   -1.3946    1.2169 C.3     1  LIG1        0.0412
     36 C           3.7309   -1.6916    0.2493 C.3     1  LIG1       -0.0531
     37 C           3.0921   -1.6222    2.6627 C.3     1  LIG1        0.1390
     38 H           3.6549   -2.5669    2.6461 H       1  LIG1        0.0793
     39 C           2.1077   -1.7853    3.8046 C.ar    1  LIG1        0.0310
     40 C           1.5953   -0.8040    4.6365 C.ar    1  LIG1        0.0984
     41 O           0.7258   -1.3173    5.5388 O.2     1  LIG1       -0.4706
     42 C           0.7038   -2.6565    5.3399 C.ar    1  LIG1        0.0921
     43 C           1.5451   -3.0008    4.3069 C.ar    1  LIG1       -0.0172
     44 O           4.0904   -0.6221    3.0017 O.3     1  LIG1       -0.4557
     45 H           3.9080    1.0722    0.5465 H       1  LIG1        0.0407
     46 H           2.8375    2.0471    1.5609 H       1  LIG1        0.0407
     47 H           1.1107    1.1821    2.5125 H       1  LIG1        0.2103
     48 H           2.4813    1.3396   -1.5090 H       1  LIG1        0.2103
     49 H          -0.5517   -0.7256    0.4887 H       1  LIG1        0.0336
     50 H           0.8262   -0.7231   -3.0578 H       1  LIG1        0.0236
     51 H          -0.7466   -0.6385   -3.8366 H       1  LIG1        0.0236
     52 H          -0.3913   -1.9997   -2.8444 H       1  LIG1        0.0236
     53 H          -1.5665    0.7830    0.5436 H       1  LIG1        0.2102
     54 H          -0.4247    1.3126   -3.5545 H       1  LIG1        0.0299
     55 H           0.1962    2.7124   -2.8622 H       1  LIG1        0.0299
     56 H           1.2821    4.5825   -1.4891 H       1  LIG1        0.2099
     57 H          -2.4605    2.9402    0.1040 H       1  LIG1        0.2099
     58 H          -2.2104    3.7620   -3.9055 H       1  LIG1        0.0236
     59 H          -3.6749    3.2692   -3.0380 H       1  LIG1        0.0236
     60 H          -2.9405    2.1904   -4.2350 H       1  LIG1        0.0236
     61 H          -3.6584   -3.6070    0.2333 H       1  LIG1        0.0661
     62 H          -5.2134   -3.4353   -0.6594 H       1  LIG1        0.0661
     63 H          -5.1514   -3.1800    1.0947 H       1  LIG1        0.0661
     64 H          -4.7852    0.1880   -2.8672 H       1  LIG1        0.2105
     65 H           1.4142   -2.1989   -1.2906 H       1  LIG1        0.0269
     66 H          -0.0823   -2.8487   -0.6290 H       1  LIG1        0.0269
     67 H           1.8068   -3.4223    0.8330 H       1  LIG1        0.0273
     68 H           0.6384   -2.4014    1.6480 H       1  LIG1        0.0273
     69 H           3.4826   -1.5318   -0.8011 H       1  LIG1        0.0237
     70 H           4.0452   -2.7390    0.3395 H       1  LIG1        0.0237
     71 H           4.6163   -1.0871    0.4693 H       1  LIG1        0.0237
     72 H           1.7261    0.2675    4.6913 H       1  LIG1        0.1033
     73 H           0.0613   -3.2128    6.0084 H       1  LIG1        0.1029
     74 H           1.7258   -4.0071    3.9560 H       1  LIG1        0.0653
@<TRIPOS>BOND
     1     2     3    1
     2     3     4    1
     3     4     6    1
     4     6     8    1
     5     8     9    1
     6     9    11    1
     7    11    13    1
     8    11    14    1
     9     6    14    1
    10    14    16    1
    11    16    19    1
    12    19    22    1
    13    13    22    1
    14    22    24    1
    15     9    24    1
    16    28    29    1
    17    29    30    1
    18    28    31    2
    19    26    32    1
    20     8    33    1
    21    33    34    1
    22    34    35    1
    23     4    35    1
    24    35    37    1
    25    39    40   ar
    26    40    41   ar
    27    41    42   ar
    28    42    43   ar
    29    39    43   ar
    30    37    44    1
    31     2    44    1
    32     1     2    2
    33     4     5    1
    34     6     7    1
    35     9    10    1
    36    11    12    1
    37    14    15    1
    38    19    20    1
    39    19    21    1
    40    22    23    1
    41    24    25    1
    42    24    26    1
    43    35    36    1
    44    37    38    1
    45    37    39    1
    46    16    18    1
    47    16    17    1
    48    26    28    1
    49    26    27    1
    50     3    45    1
    51     3    46    1
    52     5    47    1
    53     7    48    1
    54     8    49    1
    55    10    50    1
    56    10    51    1
    57    10    52    1
    58    12    53    1
    59    13    54    1
    60    13    55    1
    61    18    56    1
    62    21    57    1
    63    23    58    1
    64    23    59    1
    65    23    60    1
    66    30    61    1
    67    30    62    1
    68    30    63    1
    69    32    64    1
    70    33    65    1
    71    33    66    1
    72    34    67    1
    73    34    68    1
    74    36    69    1
    75    36    70    1
    76    36    71    1
    77    40    72    1
    78    42    73    1
    79    43    74    1
