@<TRIPOS>MOLECULE
NuBBE_2089
 47 49 0 0 0
SMALL
GASTEIGER

@<TRIPOS>ATOM
      1 C          -2.5894    2.4657    2.4153 C.3     1  LIG1        0.0788
      2 O          -1.3793    2.5962    1.6774 O.3     1  LIG1       -0.4947
      3 C          -0.7768    1.4458    1.2383 C.ar    1  LIG1        0.1278
      4 C          -1.2635    0.1578    1.4821 C.ar    1  LIG1       -0.0079
      5 C          -0.6027   -0.9656    0.9625 C.ar    1  LIG1        0.0401
      6 C          -1.1542   -2.3059    1.2281 C.2     1  LIG1        0.1949
      7 O          -2.1531   -2.4332    1.9327 O.2     1  LIG1       -0.2866
      8 C          -0.5061   -3.4917    0.6370 C.ar    1  LIG1        0.0368
      9 C          -1.0634   -4.7581    0.8865 C.ar    1  LIG1       -0.0471
     10 C          -0.4962   -5.9074    0.3287 C.ar    1  LIG1       -0.0463
     11 C          -1.0695   -7.2668    0.6037 C.3     1  LIG1       -0.0396
     12 C           0.6200   -5.7731   -0.5025 C.ar    1  LIG1       -0.0165
     13 C           1.1761   -4.5117   -0.7465 C.ar    1  LIG1        0.1286
     14 O           2.2567   -4.4316   -1.5780 O.3     1  LIG1       -0.5060
     15 C           0.6301   -3.3586   -0.1622 C.ar    1  LIG1        0.0745
     16 C           1.2248   -2.0103   -0.3518 C.2     1  LIG1        0.2015
     17 O           2.2839   -1.8325   -0.9514 O.2     1  LIG1       -0.2864
     18 C           0.5544   -0.8177    0.2095 C.ar    1  LIG1        0.0750
     19 C           1.0666    0.4742   -0.0043 C.ar    1  LIG1        0.1354
     20 O           2.2323    0.6837   -0.7021 O.3     1  LIG1       -0.5056
     21 C           0.4108    1.6124    0.5005 C.ar    1  LIG1        0.0434
     22 C           0.9628    2.9962    0.2211 C.3     1  LIG1        0.0382
     23 C           0.4537    3.6286   -1.0680 C.2     1  LIG1        0.1404
     24 O          -0.3633    3.0821   -1.8115 O.2     1  LIG1       -0.2968
     25 C           0.9907    5.0309   -1.3734 C.3     1  LIG1        0.0122
     26 C           1.0624    5.2801   -2.8776 C.3     1  LIG1       -0.0559
     27 C           0.1201    6.0803   -0.6909 C.3     1  LIG1       -0.0559
     28 H          -2.3990    1.9979    3.3869 H       1  LIG1        0.0660
     29 H          -3.3504    1.9153    1.8521 H       1  LIG1        0.0660
     30 H          -2.9800    3.4712    2.5978 H       1  LIG1        0.0660
     31 H          -2.1651   -0.0022    2.0669 H       1  LIG1        0.0661
     32 H          -1.9451   -4.8432    1.5219 H       1  LIG1        0.0627
     33 H          -1.9126   -7.2152    1.3005 H       1  LIG1        0.0278
     34 H          -0.3065   -7.9121    1.0517 H       1  LIG1        0.0278
     35 H          -1.4255   -7.7225   -0.3256 H       1  LIG1        0.0278
     36 H           1.0538   -6.6629   -0.9533 H       1  LIG1        0.0657
     37 H           2.4831   -5.3071   -1.9298 H       1  LIG1        0.2922
     38 H           2.5817   -0.1939   -0.9859 H       1  LIG1        0.2922
     39 H           2.0571    2.9582    0.1706 H       1  LIG1        0.0392
     40 H           0.7272    3.6681    1.0535 H       1  LIG1        0.0392
     41 H           2.0108    5.0957   -0.9763 H       1  LIG1        0.0372
     42 H           0.0788    5.1880   -3.3508 H       1  LIG1        0.0236
     43 H           1.7302    4.5562   -3.3567 H       1  LIG1        0.0236
     44 H           1.4457    6.2843   -3.0891 H       1  LIG1        0.0236
     45 H          -0.9172    6.0249   -1.0389 H       1  LIG1        0.0236
     46 H           0.4943    7.0896   -0.8938 H       1  LIG1        0.0236
     47 H           0.1107    5.9399    0.3950 H       1  LIG1        0.0236
@<TRIPOS>BOND
     1     1     2    1
     2     2     3    1
     3     3     4   ar
     4     4     5   ar
     5     5     6    1
     6     6     7    2
     7     6     8    1
     8     8     9   ar
     9     9    10   ar
    10    10    11    1
    11    10    12   ar
    12    12    13   ar
    13    13    14    1
    14    13    15   ar
    15     8    15   ar
    16    15    16    1
    17    16    17    2
    18    16    18    1
    19     5    18   ar
    20    18    19   ar
    21    19    20    1
    22    19    21   ar
    23     3    21   ar
    24    21    22    1
    25    22    23    1
    26    23    24    2
    27    23    25    1
    28    25    26    1
    29    25    27    1
    30     1    28    1
    31     1    29    1
    32     1    30    1
    33     4    31    1
    34     9    32    1
    35    11    33    1
    36    11    34    1
    37    11    35    1
    38    12    36    1
    39    14    37    1
    40    20    38    1
    41    22    39    1
    42    22    40    1
    43    25    41    1
    44    26    42    1
    45    26    43    1
    46    26    44    1
    47    27    45    1
    48    27    46    1
    49    27    47    1
