@<TRIPOS>MOLECULE
NuBBE_836
 71 75 0 0 0
SMALL
GASTEIGER

@<TRIPOS>ATOM
      1 O           6.3972    4.9864    0.8650 O.2     1  LIG1       -0.2927
      2 C           5.3056    4.4288    0.8990 C.2     1  LIG1        0.1565
      3 C           4.2263    4.7190   -0.1137 C.3     1  LIG1        0.0107
      4 C           3.3195    3.5081   -0.3015 C.3     1  LIG1       -0.0362
      5 C           2.6989    2.9815    1.0295 C.3     1  LIG1        0.0023
      6 C           3.7974    2.8918    2.0753 C.2     1  LIG1        0.0047
      7 C           3.5230    2.0924    3.3061 C.2     1  LIG1        0.1627
      8 C           2.2441    1.3003    3.3450 C.3     1  LIG1        0.0423
      9 C           1.8378    0.7380    2.0090 C.3     1  LIG1        0.1102
     10 O           2.1992   -0.6579    1.9254 O.3     1  LIG1       -0.3599
     11 C           0.8056   -0.3941    1.8944 C.3     1  LIG1        0.1054
     12 C          -0.0631   -0.7089    3.0587 C.3     1  LIG1       -0.0202
     13 C          -1.4132   -0.2471    2.5202 C.3     1  LIG1       -0.0464
     14 C          -1.4469   -0.7353    1.0453 C.3     1  LIG1       -0.0268
     15 H          -1.9319    0.0715    0.4754 H       1  LIG1        0.0313
     16 C          -2.4115   -1.9542    0.8938 C.3     1  LIG1       -0.0223
     17 H          -3.4070   -1.5530    1.1422 H       1  LIG1        0.0343
     18 C          -2.5265   -2.5148   -0.5054 C.2     1  LIG1       -0.0846
     19 C          -3.4262   -2.1091   -1.4173 C.2     1  LIG1       -0.0846
     20 C          -3.6653   -2.7479   -2.7759 C.3     1  LIG1       -0.0234
     21 H          -4.7143   -2.5363   -3.0282 H       1  LIG1        0.0343
     22 C          -2.7680   -2.1274   -3.8841 C.3     1  LIG1       -0.0407
     23 C          -3.0094   -2.7755   -5.2540 C.3     1  LIG1       -0.0621
     24 C          -2.9825   -0.6132   -4.0124 C.3     1  LIG1       -0.0621
     25 C          -3.5494   -4.2802   -2.7142 C.3     1  LIG1       -0.0587
     26 C          -2.2229   -3.1120    1.8859 C.3     1  LIG1       -0.0587
     27 C           0.0845   -0.7815    0.6014 C.3     1  LIG1        0.0031
     28 C           0.5880   -2.1558    0.1246 C.3     1  LIG1       -0.0566
     29 C           0.3673    0.2276   -0.5420 C.3     1  LIG1       -0.0443
     30 C           0.7721    1.6209   -0.0641 C.3     1  LIG1       -0.0461
     31 C           2.0844    1.5583    0.7553 C.3     1  LIG1        0.0008
     32 H           2.8242    0.9988    0.1634 H       1  LIG1        0.0338
     33 O           4.2658    2.1556    4.2846 O.2     1  LIG1       -0.2923
     34 C           4.9879    3.5097    2.0138 C.2     1  LIG1       -0.0122
     35 C           1.6381    3.9980    1.5156 C.3     1  LIG1       -0.0551
     36 H           4.7047    4.9596   -1.0696 H       1  LIG1        0.0345
     37 H           3.6637    5.5979    0.2165 H       1  LIG1        0.0345
     38 H           3.9146    2.7114   -0.7695 H       1  LIG1        0.0278
     39 H           2.5348    3.7692   -1.0209 H       1  LIG1        0.0278
     40 H           1.4533    1.9412    3.7474 H       1  LIG1        0.0374
     41 H           2.4010    0.4870    4.0655 H       1  LIG1        0.0374
     42 H           0.1834   -0.1838    3.9838 H       1  LIG1        0.0294
     43 H          -0.0580   -1.7838    3.2643 H       1  LIG1        0.0294
     44 H          -1.4463    0.8513    2.5270 H       1  LIG1        0.0269
     45 H          -2.2530   -0.5891    3.1307 H       1  LIG1        0.0269
     46 H          -1.8817   -3.3576   -0.7430 H       1  LIG1        0.0572
     47 H          -4.0810   -1.2726   -1.1755 H       1  LIG1        0.0572
     48 H          -1.7144   -2.2931   -3.6215 H       1  LIG1        0.0301
     49 H          -4.0673   -2.7273   -5.5340 H       1  LIG1        0.0233
     50 H          -2.7000   -3.8251   -5.2596 H       1  LIG1        0.0233
     51 H          -2.4301   -2.2701   -6.0344 H       1  LIG1        0.0233
     52 H          -4.0314   -0.3799   -4.2247 H       1  LIG1        0.0233
     53 H          -2.3748   -0.2022   -4.8259 H       1  LIG1        0.0233
     54 H          -2.6924   -0.0875   -3.0974 H       1  LIG1        0.0233
     55 H          -4.0838   -4.6837   -1.8462 H       1  LIG1        0.0235
     56 H          -2.5053   -4.6061   -2.6554 H       1  LIG1        0.0235
     57 H          -3.9955   -4.7433   -3.6003 H       1  LIG1        0.0235
     58 H          -2.3217   -2.7817    2.9237 H       1  LIG1        0.0235
     59 H          -1.2581   -3.6096    1.7823 H       1  LIG1        0.0235
     60 H          -2.9946   -3.8765    1.7315 H       1  LIG1        0.0235
     61 H           0.4612   -2.9317    0.8803 H       1  LIG1        0.0236
     62 H           1.6646   -2.1243   -0.0865 H       1  LIG1        0.0236
     63 H           0.1119   -2.4661   -0.8078 H       1  LIG1        0.0236
     64 H          -0.5016    0.3006   -1.2079 H       1  LIG1        0.0272
     65 H           1.1826   -0.1421   -1.1791 H       1  LIG1        0.0272
     66 H          -0.0423    2.0503    0.5315 H       1  LIG1        0.0269
     67 H           0.8995    2.2565   -0.9462 H       1  LIG1        0.0269
     68 H           5.7490    3.4227    2.7833 H       1  LIG1        0.0656
     69 H           2.0995    4.9233    1.8804 H       1  LIG1        0.0238
     70 H           1.0273    3.6040    2.3328 H       1  LIG1        0.0238
     71 H           0.9532    4.2797    0.7082 H       1  LIG1        0.0238
@<TRIPOS>BOND
     1     1     2    2
     2     2     3    1
     3     3     4    1
     4     4     5    1
     5     5     6    1
     6     6     7    1
     7     7     8    1
     8     8     9    1
     9     9    10    1
    10    10    11    1
    11     9    11    1
    12    11    12    1
    13    12    13    1
    14    13    14    1
    15    14    15    1
    16    14    16    1
    17    16    17    1
    18    16    18    1
    19    18    19    2
    20    19    20    1
    21    20    21    1
    22    20    22    1
    23    22    23    1
    24    22    24    1
    25    20    25    1
    26    16    26    1
    27    11    27    1
    28    14    27    1
    29    27    28    1
    30    27    29    1
    31    29    30    1
    32    30    31    1
    33     9    31    1
    34     5    31    1
    35    31    32    1
    36     7    33    2
    37     6    34    2
    38     2    34    1
    39     5    35    1
    40     3    36    1
    41     3    37    1
    42     4    38    1
    43     4    39    1
    44     8    40    1
    45     8    41    1
    46    12    42    1
    47    12    43    1
    48    13    44    1
    49    13    45    1
    50    18    46    1
    51    19    47    1
    52    22    48    1
    53    23    49    1
    54    23    50    1
    55    23    51    1
    56    24    52    1
    57    24    53    1
    58    24    54    1
    59    25    55    1
    60    25    56    1
    61    25    57    1
    62    26    58    1
    63    26    59    1
    64    26    60    1
    65    28    61    1
    66    28    62    1
    67    28    63    1
    68    29    64    1
    69    29    65    1
    70    30    66    1
    71    30    67    1
    72    34    68    1
    73    35    69    1
    74    35    70    1
    75    35    71    1
