REMARK  Name = NuBBE_2127
REMARK  2 active torsions:
REMARK  status: ('A' for Active; 'I' for Inactive)
REMARK    1  A    between atoms: C_1  and  C_2
REMARK    2  A    between atoms: C_2  and  C_3
REMARK                            x       y       z     vdW  Elec       q    Type
REMARK                         _______ _______ _______ _____ _____    ______ ____
ROOT
ATOM      1  C   LIG A   1       0.403   0.688  -0.541  0.00  0.00    -0.011 C 
ATOM      2  C   LIG A   1       1.639  -0.111  -0.088  0.00  0.00    +0.003 C 
ATOM      3  C   LIG A   1       1.290  -1.286   0.824  0.00  0.00    +0.000 C 
ATOM      4  C   LIG A   1       0.246  -2.202   0.192  0.00  0.00    +0.000 C 
ATOM      5  C   LIG A   1      -0.993  -1.433  -0.257  0.00  0.00    +0.000 C 
ATOM      6  C   LIG A   1      -0.628  -0.265  -1.171  0.00  0.00    +0.003 C 
ENDROOT
BRANCH   1   8
ATOM      7  C   LIG A   1      -1.277   2.479   0.198  0.00  0.00    +0.004 C 
ATOM      8  C   LIG A   1      -0.162   1.532   0.620  0.00  0.00    -0.000 C 
ENDBRANCH   1   8
TORSDOF 1
