REMARK  Name = NuBBE_334
REMARK  12 active torsions:
REMARK  status: ('A' for Active; 'I' for Inactive)
REMARK    1  A    between atoms: C_2  and  C_3
REMARK    2  A    between atoms: C_2  and  O_36
REMARK    3  A    between atoms: C_6  and  O_19
REMARK    4  A    between atoms: C_11  and  O_16
REMARK    5  A    between atoms: C_13  and  C_15
REMARK    6  A    between atoms: O_19  and  C_20
REMARK    7  A    between atoms: C_23  and  C_34
REMARK    8  A    between atoms: C_25  and  O_33
REMARK    9  A    between atoms: C_27  and  O_32
REMARK   10  A    between atoms: C_29  and  O_31
REMARK   11  A    between atoms: C_34  and  O_35
REMARK   12  A    between atoms: O_36  and  C_37
REMARK                            x       y       z     vdW  Elec       q    Type
REMARK                         _______ _______ _______ _____ _____    ______ ____
ROOT
ATOM      1  C   LIG A   1       0.581  -0.161  -2.739  0.00  0.00    +0.074 C 
ATOM      2  C   LIG A   1       1.289   0.777  -2.093  0.00  0.00    +0.201 C 
ATOM      3  O   LIG A   1       1.619   0.751  -0.756  0.00  0.00    -0.470 OA
ATOM      4  C   LIG A   1       0.884  -0.199   0.030  0.00  0.00    +0.313 C 
ATOM      5  C   LIG A   1       0.790  -1.564  -0.668  0.00  0.00    +0.071 C 
ATOM      6  C   LIG A   1       0.121  -1.421  -2.049  0.00  0.00    +0.041 C 
ATOM      7  C   LIG A   1       0.501  -2.738  -2.754  0.00  0.00    +0.040 C 
ATOM      8  C   LIG A   1       1.772  -3.264  -2.075  0.00  0.00    +0.118 C 
ATOM      9  C   LIG A   1       2.142  -2.231  -1.000  0.00  0.00    +0.024 C 
ATOM     10  C   LIG A   1       2.852  -2.804   0.218  0.00  0.00    +0.010 C 
ENDROOT
BRANCH   1  12
ATOM     11  O   LIG A   1       0.780   0.918  -4.873  0.00  0.00    -0.245 OA
ATOM     12  C   LIG A   1       0.225   0.109  -4.161  0.00  0.00    +0.338 C 
BRANCH  12  13
ATOM     13  O   LIG A   1      -0.816  -0.694  -4.517  0.00  0.00    -0.465 OA
ATOM     14  C   LIG A   1      -1.232  -0.560  -5.875  0.00  0.00    +0.280 C 
ENDBRANCH  12  13
ENDBRANCH   1  12
BRANCH   8  15
ATOM     15  O   LIG A   1       1.524  -4.552  -1.525  0.00  0.00    -0.392 OA
ATOM     16  H   LIG A   1       0.740  -4.502  -0.953  0.00  0.00    +0.210 HD
ENDBRANCH   8  15
BRANCH   4  17
ATOM     17  O   LIG A   1      -0.450   0.246   0.310  0.00  0.00    -0.310 OA
BRANCH  17  18
ATOM     18  C   LIG A   1      -0.507   1.398   1.166  0.00  0.00    +0.286 C 
ATOM     19  O   LIG A   1       0.039   1.044   2.444  0.00  0.00    -0.340 OA
ATOM     20  C   LIG A   1      -0.111   2.080   3.427  0.00  0.00    +0.178 C 
ATOM     21  C   LIG A   1      -1.604   2.241   3.729  0.00  0.00    +0.177 C 
ATOM     22  C   LIG A   1      -2.284   2.743   2.458  0.00  0.00    +0.179 C 
ATOM     23  C   LIG A   1      -2.001   1.822   1.267  0.00  0.00    +0.201 C 
BRANCH  23  24
ATOM     24  O   LIG A   1      -2.431   2.494   0.068  0.00  0.00    -0.384 OA
ATOM     25  H   LIG A   1      -3.384   2.669   0.198  0.00  0.00    +0.210 HD
ENDBRANCH  23  24
BRANCH  22  26
ATOM     26  O   LIG A   1      -3.706   2.817   2.674  0.00  0.00    -0.386 OA
ATOM     27  H   LIG A   1      -3.814   3.321   3.506  0.00  0.00    +0.210 HD
ENDBRANCH  22  26
BRANCH  21  28
ATOM     28  O   LIG A   1      -1.864   3.183   4.772  0.00  0.00    -0.387 OA
ATOM     29  H   LIG A   1      -2.045   2.662   5.579  0.00  0.00    +0.210 HD
ENDBRANCH  21  28
BRANCH  20  30
ATOM     30  C   LIG A   1       0.692   1.677   4.667  0.00  0.00    +0.190 C 
BRANCH  30  31
ATOM     31  O   LIG A   1       0.200   0.452   5.208  0.00  0.00    -0.392 OA
ATOM     32  H   LIG A   1       0.246  -0.196   4.480  0.00  0.00    +0.209 HD
ENDBRANCH  30  31
ENDBRANCH  20  30
ENDBRANCH  17  18
ENDBRANCH   4  17
TORSDOF 10
