REMARK  Name = NuBBE_1826
REMARK  9 active torsions:
REMARK  status: ('A' for Active; 'I' for Inactive)
REMARK    1  A    between atoms: C_1  and  C_2
REMARK    2  A    between atoms: C_4  and  C_36
REMARK    3  A    between atoms: C_8  and  C_35
REMARK    4  A    between atoms: C_11  and  C_34
REMARK    5  A    between atoms: C_17  and  C_18
REMARK    6  A    between atoms: C_17  and  C_33
REMARK    7  A    between atoms: C_22  and  C_31
REMARK    8  A    between atoms: C_27  and  C_30
REMARK    9  A    between atoms: C_28  and  C_29
REMARK                            x       y       z     vdW  Elec       q    Type
REMARK                         _______ _______ _______ _____ _____    ______ ____
ROOT
ATOM      1  C   LIG A   1       0.997  -1.757   0.842  0.00  0.00    +0.008 C 
ATOM      2  C   LIG A   1       1.999  -1.178  -0.140  0.00  0.00    -0.004 C 
ATOM      3  C   LIG A   1       3.025  -2.389  -0.354  0.00  0.00    -0.011 C 
ATOM      4  C   LIG A   1       3.109  -2.910  -1.763  0.00  0.00    +0.004 C 
ATOM      5  C   LIG A   1       3.373  -1.730  -2.656  0.00  0.00    +0.007 C 
ATOM      6  C   LIG A   1       2.239  -0.665  -2.684  0.00  0.00    -0.026 C 
ATOM      7  C   LIG A   1       1.113  -1.468  -3.287  0.00  0.00    +0.008 C 
ATOM      8  C   LIG A   1       0.070  -2.091  -2.081  0.00  0.00    +0.012 C 
ATOM      9  C   LIG A   1      -1.108  -1.056  -1.356  0.00  0.00    -0.005 C 
ATOM     10  C   LIG A   1      -1.744  -0.351   0.005  0.00  0.00    -0.063 C 
ATOM     11  C   LIG A   1      -2.490  -0.990   0.925  0.00  0.00    -0.026 C 
ATOM     12  C   LIG A   1      -3.106  -0.299   2.080  0.00  0.00    +0.032 C 
ATOM     13  C   LIG A   1      -2.333   0.906   2.635  0.00  0.00    +0.012 C 
ATOM     14  C   LIG A   1      -1.173   0.816   3.622  0.00  0.00    +0.027 C 
ATOM     15  C   LIG A   1      -0.008   0.125   2.952  0.00  0.00    +0.019 C 
ATOM     16  C   LIG A   1      -0.939   2.297   3.977  0.00  0.00    +0.139 C 
ATOM     17  C   LIG A   1      -2.199   3.256   3.780  0.00  0.00    +0.075 C 
ATOM     18  C   LIG A   1      -2.942   3.090   2.293  0.00  0.00    +0.015 C 
ATOM     19  C   LIG A   1      -2.034   2.044   1.554  0.00  0.00    -0.021 C 
ATOM     20  C   LIG A   1      -1.714   1.219   0.197  0.00  0.00    +0.021 C 
ATOM     21  C   LIG A   1      -2.097   1.891  -1.093  0.00  0.00    +0.009 C 
ATOM     22  C   LIG A   1      -0.929   1.618  -2.027  0.00  0.00    +0.008 C 
ATOM     23  C   LIG A   1      -0.416   0.120  -2.061  0.00  0.00    -0.017 C 
ATOM     24  C   LIG A   1       1.416  -0.113  -1.465  0.00  0.00    -0.018 C 
ATOM     25  C   LIG A   1       1.995   1.239  -0.912  0.00  0.00    +0.013 C 
ATOM     26  C   LIG A   1      -1.162  -0.181  -3.537  0.00  0.00    +0.013 C 
ATOM     27  C   LIG A   1      -0.852   3.154   1.360  0.00  0.00    +0.012 C 
ATOM     28  O   LIG A   1       0.116   2.701   4.338  0.00  0.00    -0.297 OA
ATOM     29  C   LIG A   1      -1.486   0.002   4.878  0.00  0.00    +0.019 C 
ATOM     30  C   LIG A   1      -2.281  -2.046  -1.674  0.00  0.00    +0.016 C 
ATOM     31  C   LIG A   1       2.868   0.488  -3.512  0.00  0.00    +0.012 C 
ATOM     32  C   LIG A   1       4.455  -2.134   0.163  0.00  0.00    +0.008 C 
ENDROOT
TORSDOF 0
