REMARK  Name = NuBBE_1731
REMARK  7 active torsions:
REMARK  status: ('A' for Active; 'I' for Inactive)
REMARK    1  A    between atoms: C_1  and  C_2
REMARK    2  A    between atoms: C_5  and  C_6
REMARK    3  A    between atoms: C_11  and  C_12
REMARK    4  A    between atoms: C_11  and  C_13
REMARK    5  A    between atoms: C_22  and  C_23
REMARK    6  A    between atoms: C_26  and  C_28
REMARK    7  A    between atoms: C_28  and  C_29
REMARK                            x       y       z     vdW  Elec       q    Type
REMARK                         _______ _______ _______ _____ _____    ______ ____
ROOT
ATOM      1  C   LIG A   1      -1.663  -0.061   0.382  0.00  0.00    +0.012 C 
ATOM      2  C   LIG A   1      -0.451  -0.373  -0.549  0.00  0.00    -0.023 C 
ATOM      3  C   LIG A   1       0.798  -0.872   0.254  0.00  0.00    +0.002 C 
ATOM      4  C   LIG A   1       0.658  -2.273   0.988  0.00  0.00    -0.025 C 
ATOM      5  C   LIG A   1      -0.294  -2.172   2.201  0.00  0.00    +0.012 C 
ATOM      6  C   LIG A   1       0.211  -3.328  -0.094  0.00  0.00    +0.008 C 
ATOM      7  C   LIG A   1      -1.071  -2.885  -0.828  0.00  0.00    +0.005 C 
ATOM      8  C   LIG A   1      -0.905  -1.514  -1.503  0.00  0.00    +0.008 C 
ATOM      9  C   LIG A   1       0.206  -4.827   0.369  0.00  0.00    +0.027 C 
ATOM     10  C   LIG A   1      -0.915  -5.207   1.347  0.00  0.00    +0.019 C 
ATOM     11  C   LIG A   1       0.065  -5.753  -0.866  0.00  0.00    +0.019 C 
ATOM     12  C   LIG A   1       1.556  -5.146   1.037  0.00  0.00    +0.139 C 
ATOM     13  O   LIG A   1       2.120  -6.233   0.891  0.00  0.00    -0.297 OA
ATOM     14  C   LIG A   1       2.115  -4.146   2.022  0.00  0.00    +0.075 C 
ATOM     15  C   LIG A   1       2.063  -2.719   1.493  0.00  0.00    +0.015 C 
ATOM     16  C   LIG A   1       1.472   0.243   1.091  0.00  0.00    +0.005 C 
ATOM     17  C   LIG A   1       0.899   1.656   0.969  0.00  0.00    +0.005 C 
ATOM     18  C   LIG A   1       0.456   2.100  -0.429  0.00  0.00    +0.002 C 
ATOM     19  C   LIG A   1      -0.004   0.931  -1.371  0.00  0.00    -0.023 C 
ATOM     20  C   LIG A   1       1.177   0.668  -2.355  0.00  0.00    +0.012 C 
ATOM     21  C   LIG A   1      -1.150   1.533  -2.228  0.00  0.00    +0.008 C 
ATOM     22  C   LIG A   1      -1.162   3.023  -1.923  0.00  0.00    +0.008 C 
ATOM     23  C   LIG A   1      -0.706   3.139  -0.458  0.00  0.00    +0.036 C 
ENDROOT
BRANCH  23  24
ATOM     24  C   LIG A   1      -0.363   4.601  -0.041  0.00  0.00    +0.114 C 
ATOM     25  C   LIG A   1       0.092   4.703   1.424  0.00  0.00    +0.056 C 
ATOM     26  O   LIG A   1       0.695   5.114  -0.869  0.00  0.00    -0.458 OA
ATOM     27  C   LIG A   1       0.492   6.438  -1.132  0.00  0.00    +0.308 C 
ATOM     28  O   LIG A   1       1.286   7.149  -1.726  0.00  0.00    -0.251 OA
ATOM     29  C   LIG A   1      -0.814   6.891  -0.555  0.00  0.00    +0.124 C 
ATOM     30  C   LIG A   1      -1.516   5.579  -0.283  0.00  0.00    +0.059 C 
ENDBRANCH  23  24
TORSDOF 1
