@<TRIPOS>MOLECULE
NuBBE_1897
 43 44 0 0 0
SMALL
GASTEIGER

@<TRIPOS>ATOM
      1 C          -0.3617    2.1878   -3.8251 C.3     1  LIG1       -0.0360
      2 C          -0.4249    2.3921   -2.3032 C.3     1  LIG1        0.0664
      3 O          -1.7975    2.5496   -1.9207 O.3     1  LIG1       -0.3887
      4 C           0.1960    1.2185   -1.4694 C.3     1  LIG1        0.0246
      5 H           1.2490    1.1216   -1.7735 H       1  LIG1        0.0361
      6 C          -0.4810   -0.1375   -1.6934 C.3     1  LIG1        0.1233
      7 H          -1.5365   -0.1332   -1.3980 H       1  LIG1        0.0680
      8 C           0.2468   -1.1943   -0.8797 C.2     1  LIG1        0.1923
      9 C           0.3486   -0.9585    0.5756 C.ar    1  LIG1        0.0289
     10 C           0.3407    0.3862    1.0202 C.ar    1  LIG1       -0.0307
     11 C           0.4531    0.6492    2.4070 C.ar    1  LIG1       -0.0183
     12 C           0.4143    2.0393    2.9994 C.3     1  LIG1        0.0695
     13 O          -0.9239    2.4187    3.2773 O.3     1  LIG1       -0.3904
     14 C           0.5748   -0.4276    3.2982 C.ar    1  LIG1       -0.0558
     15 C           0.5808   -1.7442    2.8429 C.ar    1  LIG1       -0.0554
     16 C           0.4353   -2.0387    1.4818 C.ar    1  LIG1       -0.0111
     17 C           0.3869   -3.4890    1.0401 C.3     1  LIG1        0.0730
     18 O          -0.1692   -4.3006    2.0827 O.3     1  LIG1       -0.3784
     19 C          -0.2760   -5.6611    1.6886 C.3     1  LIG1        0.0369
     20 C           0.1649    1.5371    0.0476 C.3     1  LIG1       -0.0185
     21 O           0.7237   -2.1982   -1.4179 O.2     1  LIG1       -0.2893
     22 O          -0.4150   -0.5324   -3.0633 O.3     1  LIG1       -0.3835
     23 C           0.2641    3.7349   -2.0000 C.3     1  LIG1       -0.0360
     24 H          -1.0436    1.4058   -4.1697 H       1  LIG1        0.0257
     25 H           0.6552    1.9543   -4.1564 H       1  LIG1        0.0257
     26 H          -0.6933    3.0909   -4.3517 H       1  LIG1        0.0257
     27 H          -2.3328    1.9453   -2.4665 H       1  LIG1        0.2101
     28 H           0.8761    2.7869    2.3493 H       1  LIG1        0.0607
     29 H           0.9740    2.0666    3.9410 H       1  LIG1        0.0607
     30 H          -1.3858    2.5044    2.4271 H       1  LIG1        0.2098
     31 H           0.6482   -0.2469    4.3699 H       1  LIG1        0.0621
     32 H           0.6697   -2.5498    3.5710 H       1  LIG1        0.0621
     33 H           1.4020   -3.8323    0.8100 H       1  LIG1        0.0610
     34 H          -0.2620   -3.6077    0.1679 H       1  LIG1        0.0610
     35 H          -0.7174   -6.2228    2.5164 H       1  LIG1        0.0524
     36 H           0.7134   -6.0745    1.4728 H       1  LIG1        0.0524
     37 H          -0.9276   -5.7612    0.8150 H       1  LIG1        0.0524
     38 H           0.9654    2.2605    0.2412 H       1  LIG1        0.0318
     39 H          -0.7902    2.0137    0.2988 H       1  LIG1        0.0318
     40 H          -0.0263   -1.4336   -3.0788 H       1  LIG1        0.2104
     41 H          -0.2355    4.5525   -2.5348 H       1  LIG1        0.0257
     42 H           1.3176    3.7227   -2.2980 H       1  LIG1        0.0257
     43 H           0.1996    4.0056   -0.9418 H       1  LIG1        0.0257
@<TRIPOS>BOND
     1     1     2    1
     2     2     3    1
     3     2     4    1
     4     4     5    1
     5     4     6    1
     6     6     7    1
     7     6     8    1
     8     8     9    1
     9     9    10   ar
    10    10    11   ar
    11    11    12    1
    12    12    13    1
    13    11    14   ar
    14    14    15   ar
    15    15    16   ar
    16     9    16   ar
    17    16    17    1
    18    17    18    1
    19    18    19    1
    20    10    20    1
    21     4    20    1
    22     8    21    2
    23     6    22    1
    24     2    23    1
    25     1    24    1
    26     1    25    1
    27     1    26    1
    28     3    27    1
    29    12    28    1
    30    12    29    1
    31    13    30    1
    32    14    31    1
    33    15    32    1
    34    17    33    1
    35    17    34    1
    36    19    35    1
    37    19    36    1
    38    19    37    1
    39    20    38    1
    40    20    39    1
    41    22    40    1
    42    23    41    1
    43    23    42    1
    44    23    43    1
