REMARK  Name = NuBBE_2055
REMARK  7 active torsions:
REMARK  status: ('A' for Active; 'I' for Inactive)
REMARK    1  A    between atoms: C_6  and  O_7
REMARK    2  A    between atoms: O_7  and  C_8
REMARK    3  A    between atoms: C_8  and  C_9
REMARK    4  A    between atoms: C_11  and  C_12
REMARK    5  A    between atoms: C_11  and  C_13
REMARK    6  A    between atoms: C_14  and  O_15
REMARK    7  A    between atoms: O_15  and  C_16
REMARK                            x       y       z     vdW  Elec       q    Type
REMARK                         _______ _______ _______ _____ _____    ______ ____
ROOT
ATOM      1  O   LIG A   1      -5.036   3.616   0.198  0.00  0.00    -0.245 OA
ATOM      2  C   LIG A   1      -3.819   3.536   0.303  0.00  0.00    +0.337 A 
ATOM      3  O   LIG A   1      -3.139   2.338   0.143  0.00  0.00    -0.422 OA
ATOM      4  C   LIG A   1      -1.740   2.269   0.313  0.00  0.00    +0.143 A 
ATOM      5  C   LIG A   1      -1.163   1.012   0.179  0.00  0.00    +0.096 A 
ATOM      6  C   LIG A   1       0.216   0.847   0.350  0.00  0.00    +0.166 A 
ATOM      7  C   LIG A   1       1.006   1.979   0.629  0.00  0.00    +0.162 A 
ATOM      8  C   LIG A   1       0.392   3.245   0.755  0.00  0.00    +0.061 A 
ATOM      9  C   LIG A   1      -0.989   3.395   0.603  0.00  0.00    +0.021 A 
ATOM     10  C   LIG A   1      -1.671   4.671   0.740  0.00  0.00    +0.019 A 
ATOM     11  C   LIG A   1      -3.006   4.720   0.600  0.00  0.00    +0.092 A 
ENDROOT
BRANCH   7  12
ATOM     12  O   LIG A   1       2.365   2.041   0.814  0.00  0.00    -0.491 OA
ATOM     13  C   LIG A   1       3.120   0.839   0.737  0.00  0.00    +0.277 C 
ENDBRANCH   7  12
BRANCH   6  14
ATOM     14  O   LIG A   1       0.815  -0.375   0.184  0.00  0.00    -0.485 OA
BRANCH  14  15
ATOM     15  C   LIG A   1       0.024  -1.527   0.492  0.00  0.00    +0.263 C 
BRANCH  15  16
ATOM     16  C   LIG A   1       0.855  -2.748   0.272  0.00  0.00    +0.188 C 
ATOM     17  O   LIG A   1       0.126  -3.977   0.436  0.00  0.00    -0.362 OA
ATOM     18  C   LIG A   1       0.665  -3.740  -0.873  0.00  0.00    +0.094 C 
ATOM     19  C   LIG A   1      -0.386  -3.577  -1.931  0.00  0.00    +0.044 C 
ATOM     20  C   LIG A   1       1.799  -4.654  -1.221  0.00  0.00    +0.044 C 
ENDBRANCH  15  16
ENDBRANCH  14  15
ENDBRANCH   6  14
TORSDOF 4
