REMARK  Name = NuBBE_2484
REMARK  6 active torsions:
REMARK  status: ('A' for Active; 'I' for Inactive)
REMARK    1  A    between atoms: C_1  and  C_2
REMARK    2  A    between atoms: C_10  and  C_11
REMARK    3  A    between atoms: C_21  and  C_22
REMARK    4  A    between atoms: C_27  and  O_31
REMARK    5  A    between atoms: C_34  and  C_38
REMARK    6  A    between atoms: C_38  and  O_39
REMARK                            x       y       z     vdW  Elec       q    Type
REMARK                         _______ _______ _______ _____ _____    ______ ____
ROOT
ATOM      1  C   LIG A   1      -3.947  -0.549   0.351  0.00  0.00    +0.012 C 
ATOM      2  C   LIG A   1      -3.001   0.635   0.429  0.00  0.00    +0.039 C 
ATOM      3  C   LIG A   1      -2.341   0.936   1.832  0.00  0.00    +0.124 C 
ATOM      4  O   LIG A   1      -1.081   1.615   1.526  0.00  0.00    -0.355 OA
ATOM      5  C   LIG A   1      -1.039   1.751   0.116  0.00  0.00    +0.125 C 
ATOM      6  C   LIG A   1      -1.724   0.498  -0.373  0.00  0.00    +0.031 C 
ATOM      7  C   LIG A   1      -1.477   0.445  -1.891  0.00  0.00    -0.023 C 
ATOM      8  C   LIG A   1      -2.615   1.102  -2.689  0.00  0.00    +0.012 C 
ATOM      9  C   LIG A   1      -0.164   1.316  -2.029  0.00  0.00    +0.001 C 
ATOM     10  C   LIG A   1       0.288   1.689  -0.594  0.00  0.00    +0.036 C 
ATOM     11  C   LIG A   1       0.904   0.811  -3.012  0.00  0.00    +0.000 C 
ATOM     12  C   LIG A   1       1.145  -0.709  -3.034  0.00  0.00    +0.003 C 
ATOM     13  C   LIG A   1      -0.201  -1.410  -3.274  0.00  0.00    +0.005 C 
ATOM     14  C   LIG A   1      -1.342  -1.044  -2.325  0.00  0.00    +0.007 C 
ATOM     15  C   LIG A   1       2.102  -1.282  -1.904  0.00  0.00    -0.008 C 
ATOM     16  C   LIG A   1       1.332  -1.828  -0.684  0.00  0.00    +0.016 C 
ATOM     17  C   LIG A   1       3.145  -0.240  -1.466  0.00  0.00    -0.065 C 
ATOM     18  C   LIG A   1       3.193   1.012  -1.947  0.00  0.00    -0.027 C 
ATOM     19  C   LIG A   1       2.226   1.581  -2.933  0.00  0.00    +0.031 C 
ATOM     20  C   LIG A   1       4.217  -0.720  -0.512  0.00  0.00    +0.062 C 
ATOM     21  C   LIG A   1       4.954  -1.939  -1.076  0.00  0.00    +0.119 C 
ATOM     22  C   LIG A   1       3.996  -3.030  -1.561  0.00  0.00    +0.032 C 
ATOM     23  C   LIG A   1       2.915  -2.478  -2.502  0.00  0.00    +0.013 C 
ATOM     24  C   LIG A   1      -2.001  -0.352   2.622  0.00  0.00    +0.052 C 
ATOM     25  C   LIG A   1      -1.272  -0.037   3.922  0.00  0.00    +0.011 C 
ATOM     26  C   LIG A   1      -2.068   0.969   4.756  0.00  0.00    +0.028 C 
ATOM     27  C   LIG A   1      -2.506   2.176   3.905  0.00  0.00    +0.089 C 
ATOM     28  N   LIG A   1      -3.189   1.791   2.658  0.00  0.00    -0.288 NA
ATOM     29  H   LIG A   1      -4.040   1.286   2.896  0.00  0.00    +0.125 HD
ENDROOT
BRANCH  21  30
ATOM     30  O   LIG A   1       5.824  -2.482  -0.084  0.00  0.00    -0.392 OA
ATOM     31  H   LIG A   1       5.282  -2.729   0.686  0.00  0.00    +0.210 HD
ENDBRANCH  21  30
BRANCH  26  32
ATOM     32  C   LIG A   1      -1.232   1.402   5.963  0.00  0.00    +0.160 C 
BRANCH  32  33
ATOM     33  O   LIG A   1      -2.011   2.208   6.835  0.00  0.00    -0.395 OA
ATOM     34  H   LIG A   1      -1.432   2.462   7.575  0.00  0.00    +0.209 HD
ENDBRANCH  32  33
ENDBRANCH  26  32
TORSDOF 3
