REMARK  Name = NuBBE_1967
REMARK  13 active torsions:
REMARK  status: ('A' for Active; 'I' for Inactive)
REMARK    1  A    between atoms: O_1  and  C_2
REMARK    2  A    between atoms: C_4  and  C_29
REMARK    3  A    between atoms: C_6  and  C_22
REMARK    4  A    between atoms: C_11  and  C_13
REMARK    5  A    between atoms: C_14  and  C_15
REMARK    6  A    between atoms: C_18  and  O_21
REMARK    7  A    between atoms: C_25  and  O_28
REMARK    8  A    between atoms: C_33  and  O_35
REMARK    9  A    between atoms: C_36  and  C_48
REMARK   10  A    between atoms: C_38  and  C_41
REMARK   11  A    between atoms: C_44  and  O_47
REMARK   12  A    between atoms: C_50  and  O_51
REMARK   13  A    between atoms: C_53  and  O_55
REMARK                            x       y       z     vdW  Elec       q    Type
REMARK                         _______ _______ _______ _____ _____    ______ ____
ROOT
ATOM      1  C   LIG A   1       0.105   1.414  -2.053  0.00  0.00    +0.125 A 
ATOM      2  C   LIG A   1       0.783   0.233  -1.859  0.00  0.00    +0.047 A 
ATOM      3  C   LIG A   1       0.287  -1.158  -1.659  0.00  0.00    +0.101 C 
ATOM      4  C   LIG A   1       1.621  -1.930  -1.876  0.00  0.00    +0.215 C 
ATOM      5  O   LIG A   1       2.726  -1.006  -1.636  0.00  0.00    -0.483 OA
ATOM      6  C   LIG A   1       2.169   0.243  -1.779  0.00  0.00    +0.129 A 
ATOM      7  C   LIG A   1       2.913   1.408  -1.853  0.00  0.00    +0.054 A 
ATOM      8  C   LIG A   1       2.237   2.621  -2.042  0.00  0.00    -0.018 A 
ATOM      9  C   LIG A   1       0.829   2.599  -2.157  0.00  0.00    +0.054 A 
ENDROOT
BRANCH   3  10
ATOM     10  C   LIG A   1      -0.306  -1.361  -0.270  0.00  0.00    -0.029 A 
ATOM     11  C   LIG A   1      -1.647  -1.745  -0.128  0.00  0.00    +0.050 A 
ATOM     12  C   LIG A   1      -2.143  -1.923   1.151  0.00  0.00    +0.129 A 
ATOM     13  C   LIG A   1      -1.368  -1.761   2.293  0.00  0.00    +0.047 A 
ATOM     14  C   LIG A   1      -0.059  -1.355   2.173  0.00  0.00    +0.124 A 
ATOM     15  C   LIG A   1       0.469  -1.151   0.899  0.00  0.00    +0.050 A 
ATOM     16  C   LIG A   1      -2.180  -2.129   3.491  0.00  0.00    +0.101 C 
ATOM     17  C   LIG A   1      -3.596  -2.017   2.850  0.00  0.00    +0.215 C 
ATOM     18  O   LIG A   1      -3.455  -2.244   1.413  0.00  0.00    -0.483 OA
BRANCH  17  19
ATOM     19  C   LIG A   1      -4.284  -0.672   3.110  0.00  0.00    -0.006 A 
ATOM     20  C   LIG A   1      -4.124   0.427   2.244  0.00  0.00    +0.011 A 
ATOM     21  C   LIG A   1      -4.753   1.647   2.496  0.00  0.00    +0.046 A 
ATOM     22  C   LIG A   1      -5.551   1.781   3.623  0.00  0.00    +0.117 A 
ATOM     23  C   LIG A   1      -5.723   0.717   4.500  0.00  0.00    +0.046 A 
ATOM     24  C   LIG A   1      -5.089  -0.505   4.248  0.00  0.00    +0.011 A 
BRANCH  22  25
ATOM     25  O   LIG A   1      -6.187   2.954   3.903  0.00  0.00    -0.507 OA
ATOM     26  H   LIG A   1      -5.967   3.596   3.207  0.00  0.00    +0.292 HD
ENDBRANCH  22  25
ENDBRANCH  17  19
BRANCH  16  27
ATOM     27  C   LIG A   1      -1.840  -3.529   4.002  0.00  0.00    -0.029 A 
ATOM     28  C   LIG A   1      -1.996  -4.674   3.194  0.00  0.00    +0.050 A 
ATOM     29  C   LIG A   1      -1.659  -5.937   3.678  0.00  0.00    +0.121 A 
ATOM     30  C   LIG A   1      -1.161  -6.101   4.962  0.00  0.00    +0.090 A 
ATOM     31  C   LIG A   1      -0.998  -4.978   5.763  0.00  0.00    +0.121 A 
ATOM     32  C   LIG A   1      -1.327  -3.703   5.298  0.00  0.00    +0.050 A 
BRANCH  29  33
ATOM     33  O   LIG A   1      -1.806  -7.052   2.906  0.00  0.00    -0.507 OA
ATOM     34  H   LIG A   1      -2.155  -6.788   2.039  0.00  0.00    +0.292 HD
ENDBRANCH  29  33
BRANCH  31  35
ATOM     35  O   LIG A   1      -0.509  -5.084   7.033  0.00  0.00    -0.507 OA
ATOM     36  H   LIG A   1      -0.319  -6.021   7.211  0.00  0.00    +0.292 HD
ENDBRANCH  31  35
ENDBRANCH  16  27
BRANCH  14  37
ATOM     37  O   LIG A   1       0.759  -1.130   3.235  0.00  0.00    -0.506 OA
ATOM     38  H   LIG A   1       0.280  -1.309   4.059  0.00  0.00    +0.292 HD
ENDBRANCH  14  37
ENDBRANCH   3  10
BRANCH   4  39
ATOM     39  C   LIG A   1       1.742  -2.555  -3.266  0.00  0.00    -0.006 A 
ATOM     40  C   LIG A   1       2.326  -1.859  -4.338  0.00  0.00    +0.011 A 
ATOM     41  C   LIG A   1       2.434  -2.437  -5.603  0.00  0.00    +0.046 A 
ATOM     42  C   LIG A   1       1.950  -3.722  -5.808  0.00  0.00    +0.117 A 
ATOM     43  C   LIG A   1       1.363  -4.433  -4.769  0.00  0.00    +0.046 A 
ATOM     44  C   LIG A   1       1.254  -3.852  -3.501  0.00  0.00    +0.011 A 
BRANCH  42  45
ATOM     45  O   LIG A   1       2.038  -4.322  -7.029  0.00  0.00    -0.507 OA
ATOM     46  H   LIG A   1       2.473  -3.707  -7.642  0.00  0.00    +0.292 HD
ENDBRANCH  42  45
ENDBRANCH   4  39
BRANCH   1  47
ATOM     47  O   LIG A   1      -1.249   1.500  -2.148  0.00  0.00    -0.506 OA
ATOM     48  H   LIG A   1      -1.637   0.646  -1.904  0.00  0.00    +0.292 HD
ENDBRANCH   1  47
BRANCH   8  49
ATOM     49  C   LIG A   1       3.007   3.880  -2.124  0.00  0.00    +0.009 C 
ATOM     50  C   LIG A   1       2.452   5.087  -2.278  0.00  0.00    +0.008 C 
BRANCH  50  51
ATOM     51  C   LIG A   1       3.222   6.323  -2.382  0.00  0.00    -0.025 A 
ATOM     52  C   LIG A   1       3.653   6.769  -3.636  0.00  0.00    +0.011 A 
ATOM     53  C   LIG A   1       4.337   7.979  -3.751  0.00  0.00    +0.046 A 
ATOM     54  C   LIG A   1       4.585   8.733  -2.607  0.00  0.00    +0.117 A 
ATOM     55  C   LIG A   1       4.158   8.300  -1.357  0.00  0.00    +0.046 A 
ATOM     56  C   LIG A   1       3.472   7.091  -1.242  0.00  0.00    +0.011 A 
BRANCH  54  57
ATOM     57  O   LIG A   1       5.249   9.922  -2.674  0.00  0.00    -0.507 OA
ATOM     58  H   LIG A   1       5.487  10.089  -3.600  0.00  0.00    +0.292 HD
ENDBRANCH  54  57
ENDBRANCH  50  51
ENDBRANCH   8  49
TORSDOF 13
