REMARK  Name = NuBBE_1172
REMARK  4 active torsions:
REMARK  status: ('A' for Active; 'I' for Inactive)
REMARK    1  A    between atoms: C_6  and  O_7
REMARK    2  A    between atoms: C_8  and  O_9
REMARK    3  A    between atoms: C_14  and  O_15
REMARK    4  A    between atoms: C_16  and  O_17
REMARK                            x       y       z     vdW  Elec       q    Type
REMARK                         _______ _______ _______ _____ _____    ______ ____
ROOT
ATOM      1  O   LIG A   1      -3.613   0.691  -0.000  0.00  0.00    -0.244 OA
ATOM      2  C   LIG A   1      -2.390   0.661   0.000  0.00  0.00    +0.345 A 
ATOM      3  O   LIG A   1      -1.627   1.832   0.001  0.00  0.00    -0.418 OA
ATOM      4  C   LIG A   1      -1.647  -0.625   0.000  0.00  0.00    +0.074 A 
ATOM      5  C   LIG A   1      -2.350  -1.841   0.000  0.00  0.00    +0.065 A 
ATOM      6  C   LIG A   1      -1.635  -3.036   0.000  0.00  0.00    +0.163 A 
ATOM      7  C   LIG A   1      -0.240  -3.031   0.000  0.00  0.00    +0.202 A 
ATOM      8  C   LIG A   1       0.443  -1.822   0.001  0.00  0.00    +0.185 A 
ATOM      9  C   LIG A   1      -0.251  -0.617   0.001  0.00  0.00    +0.047 A 
ATOM     10  C   LIG A   1       0.479   0.618   0.001  0.00  0.00    +0.047 A 
ATOM     11  C   LIG A   1      -0.215   1.823   0.001  0.00  0.00    +0.185 A 
ATOM     12  C   LIG A   1       0.461   3.035  -0.000  0.00  0.00    +0.202 A 
ATOM     13  C   LIG A   1       1.853   3.038  -0.001  0.00  0.00    +0.163 A 
ATOM     14  C   LIG A   1       2.571   1.846  -0.000  0.00  0.00    +0.065 A 
ATOM     15  C   LIG A   1       1.877   0.628   0.001  0.00  0.00    +0.074 A 
ATOM     16  C   LIG A   1       2.624  -0.656   0.001  0.00  0.00    +0.345 A 
ATOM     17  O   LIG A   1       1.855  -1.821   0.001  0.00  0.00    -0.418 OA
ATOM     18  O   LIG A   1       3.847  -0.682   0.002  0.00  0.00    -0.244 OA
ENDROOT
BRANCH   6  19
ATOM     19  O   LIG A   1      -2.263  -4.250   0.000  0.00  0.00    -0.503 OA
ATOM     20  H   LIG A   1      -3.227  -4.111   0.002  0.00  0.00    +0.292 HD
ENDBRANCH   6  19
BRANCH   7  21
ATOM     21  O   LIG A   1       0.438  -4.215  -0.000  0.00  0.00    -0.501 OA
ATOM     22  H   LIG A   1      -0.249  -4.911  -0.001  0.00  0.00    +0.292 HD
ENDBRANCH   7  21
BRANCH  12  23
ATOM     23  O   LIG A   1      -0.193   4.235  -0.000  0.00  0.00    -0.501 OA
ATOM     24  H   LIG A   1      -1.151   4.042   0.002  0.00  0.00    +0.292 HD
ENDBRANCH  12  23
BRANCH  13  25
ATOM     25  O   LIG A   1       2.534   4.220  -0.003  0.00  0.00    -0.503 OA
ATOM     26  H   LIG A   1       1.847   4.917  -0.005  0.00  0.00    +0.292 HD
ENDBRANCH  13  25
TORSDOF 4
