@<TRIPOS>MOLECULE
NuBBE_100
 70 74 0 0 0
SMALL
GASTEIGER

@<TRIPOS>ATOM
      1 C          -2.7847   -1.0307    0.0864 C.2     1  LIG1       -0.1022
      2 C          -1.7121   -0.3776   -0.3853 C.2     1  LIG1       -0.0816
      3 C          -0.2232   -0.6163   -0.1144 C.3     1  LIG1        0.0470
      4 C           0.3217   -1.6200   -1.1732 C.3     1  LIG1        0.2102
      5 H           1.3886   -1.8065   -0.9890 H       1  LIG1        0.1062
      6 O          -0.3883   -2.8706   -1.0097 O.2     1  LIG1       -0.4699
      7 C          -0.3380   -3.3505    0.2841 C.2     1  LIG1        0.0981
      8 C           0.0139   -2.6398    1.3927 C.2     1  LIG1        0.0749
      9 C           0.2170   -1.1247    1.2996 C.3     1  LIG1        0.0112
     10 C          -0.3745   -0.3060    2.4793 C.3     1  LIG1       -0.0009
     11 C          -0.2396    1.2101    2.3652 C.2     1  LIG1        0.0600
     12 N           0.7344    1.7399    1.6946 N.2     1  LIG1       -0.2858
     13 C           0.8497    3.2264    1.6649 C.3     1  LIG1        0.0441
     14 C          -0.4927    3.9911    1.6939 C.3     1  LIG1       -0.0055
     15 C          -1.3699    3.3862    2.7262 C.ar    1  LIG1       -0.0115
     16 C          -1.2051    2.0519    3.0358 C.ar    1  LIG1        0.0646
     17 N          -2.0853    1.7508    4.0376 N.ar    1  LIG1       -0.3530
     18 C          -2.8523    2.8569    4.3424 C.ar    1  LIG1        0.0472
     19 C          -3.8748    3.0055    5.2876 C.ar    1  LIG1       -0.0378
     20 C          -4.5225    4.2419    5.3561 C.ar    1  LIG1       -0.0598
     21 C          -4.1536    5.2910    4.5173 C.ar    1  LIG1       -0.0611
     22 C          -3.1082    5.1375    3.5958 C.ar    1  LIG1       -0.0523
     23 C          -2.4407    3.8988    3.5056 C.ar    1  LIG1        0.0035
     24 C           0.3970   -3.3597    2.6368 C.2     1  LIG1        0.3381
     25 O           0.8414   -4.5998    2.2809 O.3     1  LIG1       -0.4646
     26 C           1.8518   -5.1577    3.1290 C.3     1  LIG1        0.0820
     27 O           0.4666   -2.8628    3.7725 O.2     1  LIG1       -0.2452
     28 O           0.2232   -1.0332   -2.4954 O.3     1  LIG1       -0.3093
     29 C           0.6616   -1.9142   -3.5354 C.3     1  LIG1        0.1918
     30 H           0.1270   -2.8593   -3.3908 H       1  LIG1        0.0939
     31 O           2.0497   -2.2458   -3.4425 O.3     1  LIG1       -0.3404
     32 C           2.9979   -1.3331   -4.0097 C.3     1  LIG1        0.1130
     33 H           3.9232   -1.9226   -4.0697 H       1  LIG1        0.0647
     34 C           2.6685   -0.9160   -5.4537 C.3     1  LIG1        0.1119
     35 H           3.3617   -0.1445   -5.8101 H       1  LIG1        0.0647
     36 C           1.2235   -0.4278   -5.5976 C.3     1  LIG1        0.1141
     37 H           1.0053   -0.3696   -6.6743 H       1  LIG1        0.0648
     38 O           1.0625    0.8881   -5.0748 O.3     1  LIG1       -0.3864
     39 O           2.8420   -2.0649   -6.3134 O.3     1  LIG1       -0.3865
     40 C           3.3070   -0.1475   -3.0933 C.3     1  LIG1        0.0730
     41 O           4.3712    0.6279   -3.6427 O.3     1  LIG1       -0.3924
     42 C           0.2460   -1.4262   -4.9564 C.3     1  LIG1        0.1342
     43 H          -0.7516   -0.9745   -4.9072 H       1  LIG1        0.0671
     44 O           0.1474   -2.5649   -5.8396 O.3     1  LIG1       -0.3841
     45 H          -3.7725   -0.8029   -0.3086 H       1  LIG1        0.0532
     46 H          -2.7342   -1.8482    0.7970 H       1  LIG1        0.0532
     47 H          -1.8904    0.3719   -1.1565 H       1  LIG1        0.0571
     48 H           0.2680    0.3452   -0.3006 H       1  LIG1        0.0410
     49 H          -0.5898   -4.4041    0.2963 H       1  LIG1        0.1029
     50 H           1.3101   -0.9876    1.3584 H       1  LIG1        0.0363
     51 H           0.1468   -0.5568    3.4123 H       1  LIG1        0.0335
     52 H          -1.4262   -0.5690    2.6326 H       1  LIG1        0.0335
     53 H           1.3924    3.5056    0.7545 H       1  LIG1        0.0511
     54 H           1.4754    3.5353    2.5122 H       1  LIG1        0.0511
     55 H          -0.9813    3.9151    0.7154 H       1  LIG1        0.0332
     56 H          -0.3102    5.0522    1.8965 H       1  LIG1        0.0332
     57 H          -2.1691    0.8566    4.4998 H       1  LIG1        0.1659
     58 H          -4.1651    2.1902    5.9421 H       1  LIG1        0.0638
     59 H          -5.3292    4.3832    6.0724 H       1  LIG1        0.0618
     60 H          -4.6815    6.2399    4.5801 H       1  LIG1        0.0618
     61 H          -2.8286    5.9667    2.9526 H       1  LIG1        0.0624
     62 H           2.7918   -4.6301    2.9393 H       1  LIG1        0.0661
     63 H           1.9897   -6.2055    2.8582 H       1  LIG1        0.0661
     64 H           1.5845   -5.0968    4.1899 H       1  LIG1        0.0661
     65 H           0.1704    1.1851   -5.3353 H       1  LIG1        0.2100
     66 H           3.7904   -2.2967   -6.2700 H       1  LIG1        0.2100
     67 H           2.4365    0.4918   -2.9358 H       1  LIG1        0.0584
     68 H           3.6292   -0.5150   -2.1135 H       1  LIG1        0.0584
     69 H           4.4416    1.4356   -3.1033 H       1  LIG1        0.2095
     70 H           1.0686   -2.7992   -6.0922 H       1  LIG1        0.2101
@<TRIPOS>BOND
     1     1     2    2
     2     2     3    1
     3     3     4    1
     4     4     6    1
     5     6     7    1
     6     7     8    2
     7     8     9    1
     8     3     9    1
     9     9    10    1
    10    10    11    1
    11    11    12    2
    12    12    13    1
    13    13    14    1
    14    14    15    1
    15    15    16   ar
    16    11    16    1
    17    16    17   ar
    18    17    18   ar
    19    18    19   ar
    20    19    20   ar
    21    20    21   ar
    22    21    22   ar
    23    22    23   ar
    24    18    23   ar
    25    15    23   ar
    26     8    24    1
    27    24    25    1
    28    25    26    1
    29    24    27    2
    30    28    29    1
    31    29    30    1
    32    29    31    1
    33    31    32    1
    34    32    34    1
    35    34    35    1
    36    34    36    1
    37    34    39    1
    38    40    41    1
    39    29    42    1
    40    36    42    1
    41     4    28    1
    42     4     5    1
    43    32    40    1
    44    32    33    1
    45    36    38    1
    46    36    37    1
    47    42    44    1
    48    42    43    1
    49     1    45    1
    50     1    46    1
    51     2    47    1
    52     3    48    1
    53     7    49    1
    54     9    50    1
    55    10    51    1
    56    10    52    1
    57    13    53    1
    58    13    54    1
    59    14    55    1
    60    14    56    1
    61    17    57    1
    62    19    58    1
    63    20    59    1
    64    21    60    1
    65    22    61    1
    66    26    62    1
    67    26    63    1
    68    26    64    1
    69    38    65    1
    70    39    66    1
    71    40    67    1
    72    40    68    1
    73    41    69    1
    74    44    70    1
