REMARK  Name = NuBBE_265
REMARK  11 active torsions:
REMARK  status: ('A' for Active; 'I' for Inactive)
REMARK    1  A    between atoms: C_1  and  C_2
REMARK    2  A    between atoms: C_2  and  C_3
REMARK    3  A    between atoms: C_2  and  C_6
REMARK    4  A    between atoms: C_3  and  O_4
REMARK    5  A    between atoms: C_6  and  C_7
REMARK    6  A    between atoms: C_7  and  O_8
REMARK    7  A    between atoms: C_10  and  C_11
REMARK    8  A    between atoms: C_11  and  C_12
REMARK    9  A    between atoms: C_12  and  C_13
REMARK   10  A    between atoms: C_13  and  C_14
REMARK   11  A    between atoms: C_14  and  C_15
REMARK                            x       y       z     vdW  Elec       q    Type
REMARK                         _______ _______ _______ _____ _____    ______ ____
ROOT
ATOM      1  C   LIG A   1      -0.985   1.316   1.014  0.00  0.00    +0.046 C 
ATOM      2  C   LIG A   1       0.296   0.904   0.913  0.00  0.00    -0.016 C 
ENDROOT
BRANCH   1   4
ATOM      3  C   LIG A   1      -0.227   3.771   0.767  0.00  0.00    +0.024 C 
ATOM      4  C   LIG A   1      -1.389   2.794   0.984  0.00  0.00    +0.131 C 
BRANCH   4   5
ATOM      5  C   LIG A   1      -2.452   3.073  -0.069  0.00  0.00    +0.312 C 
ATOM      6  O   LIG A   1      -2.576   2.546  -1.174  0.00  0.00    -0.250 OA
BRANCH   5   7
ATOM      7  O   LIG A   1      -3.330   4.024   0.323  0.00  0.00    -0.480 OA
ATOM      8  H   LIG A   1      -4.014   4.035  -0.380  0.00  0.00    +0.295 HD
ENDBRANCH   5   7
ENDBRANCH   4   5
ENDBRANCH   1   4
BRANCH   1   9
ATOM      9  C   LIG A   1      -2.087   0.335   1.188  0.00  0.00    +0.333 C 
ATOM     10  O   LIG A   1      -1.998  -0.869   1.216  0.00  0.00    -0.245 OA
BRANCH   9  11
ATOM     11  O   LIG A   1      -3.300   0.914   1.312  0.00  0.00    -0.477 OA
ATOM     12  H   LIG A   1      -3.911   0.148   1.345  0.00  0.00    +0.295 HD
ENDBRANCH   9  11
ENDBRANCH   1   9
BRANCH   2  13
ATOM     13  C   LIG A   1       0.893  -0.475   0.957  0.00  0.00    +0.028 C 
BRANCH  13  14
ATOM     14  C   LIG A   1       1.034  -1.055  -0.451  0.00  0.00    +0.004 C 
BRANCH  14  15
ATOM     15  C   LIG A   1       1.675  -2.443  -0.418  0.00  0.00    +0.000 C 
BRANCH  15  16
ATOM     16  C   LIG A   1       1.804  -3.032  -1.822  0.00  0.00    -0.003 C 
ATOM     17  C   LIG A   1       2.430  -4.418  -1.790  0.00  0.00    +0.004 C 
ENDBRANCH  15  16
ENDBRANCH  14  15
ENDBRANCH  13  14
ENDBRANCH   2  13
TORSDOF 9
