@<TRIPOS>MOLECULE
NuBBE_1048
 83 87 0 0 0
SMALL
GASTEIGER

@<TRIPOS>ATOM
      1 O          -6.9541   -0.6490    0.6018 O.2     1  LIG1       -0.2968
      2 C          -5.8911   -0.0635    0.3863 C.2     1  LIG1        0.1392
      3 C          -5.0974    0.4889    1.5445 C.3     1  LIG1        0.0069
      4 C          -3.6053    0.2193    1.3998 C.3     1  LIG1       -0.0404
      5 C          -2.9893    0.6747    0.0387 C.3     1  LIG1       -0.0246
      6 C          -3.8506    0.0023   -1.0943 C.3     1  LIG1       -0.0235
      7 C          -5.3975    0.2488   -1.0367 C.3     1  LIG1        0.0267
      8 C          -6.1186   -0.7244   -2.0043 C.3     1  LIG1       -0.0528
      9 C          -5.8464    1.6689   -1.4061 C.3     1  LIG1       -0.0528
     10 H          -3.7508   -1.0818   -0.9124 H       1  LIG1        0.0315
     11 C          -3.2196    0.2336   -2.4818 C.3     1  LIG1       -0.0483
     12 C          -1.8208   -0.3879   -2.5524 C.3     1  LIG1       -0.0466
     13 C          -0.8161    0.1415   -1.4861 C.3     1  LIG1       -0.0231
     14 C          -1.5102    0.0882   -0.0706 C.3     1  LIG1       -0.0294
     15 C          -0.5383    0.5958    1.0098 C.3     1  LIG1       -0.0489
     16 C           0.6969   -0.2879    1.1037 C.3     1  LIG1       -0.0491
     17 C           1.4420   -0.5329   -0.2079 C.3     1  LIG1       -0.0297
     18 H           2.0352   -1.4403   -0.0411 H       1  LIG1        0.0310
     19 C           0.5185   -0.7797   -1.4435 C.3     1  LIG1       -0.0232
     20 C           0.1706   -2.2964   -1.4668 C.3     1  LIG1       -0.0588
     21 C           1.5017   -0.5260   -2.6087 C.3     1  LIG1       -0.0465
     22 C           2.4898    0.5427   -2.1470 C.3     1  LIG1       -0.0468
     23 C           2.4483    0.5749   -0.6068 C.3     1  LIG1       -0.0088
     24 H           2.0314    1.5375   -0.2862 H       1  LIG1        0.0331
     25 C           3.8668    0.4715    0.0383 C.3     1  LIG1        0.0704
     26 O           3.7555    0.5016    1.4857 O.3     1  LIG1       -0.3673
     27 C           4.7715   -0.3817    2.0142 C.3     1  LIG1        0.0876
     28 H           5.7203    0.1693    1.9476 H       1  LIG1        0.0625
     29 C           4.7829   -1.5371    1.0373 C.3     1  LIG1       -0.0213
     30 C           4.6364   -0.8251   -0.2941 C.3     1  LIG1       -0.0213
     31 C           4.5170   -0.7089    3.5032 C.3     1  LIG1        0.0865
     32 O           4.5448    0.5356    4.2247 O.3     1  LIG1       -0.3866
     33 C           3.1601   -1.3516    3.7915 C.3     1  LIG1       -0.0339
     34 C           5.6359   -1.5831    4.0715 C.3     1  LIG1       -0.0339
     35 C           4.7036    1.7046   -0.3566 C.3     1  LIG1       -0.0355
     36 H          -1.6490   -0.9798    0.1488 H       1  LIG1        0.0312
     37 C          -0.4778    1.5978   -1.9067 C.3     1  LIG1       -0.0588
     38 C          -3.0018    2.2204    0.0041 C.3     1  LIG1       -0.0590
     39 H          -5.4526    0.0084    2.4640 H       1  LIG1        0.0342
     40 H          -5.3192    1.5551    1.6401 H       1  LIG1        0.0342
     41 H          -3.4419   -0.8595    1.5273 H       1  LIG1        0.0275
     42 H          -3.0991    0.7113    2.2376 H       1  LIG1        0.0275
     43 H          -5.8199   -1.7625   -1.8189 H       1  LIG1        0.0239
     44 H          -5.9138   -0.4896   -3.0532 H       1  LIG1        0.0239
     45 H          -7.2080   -0.6781   -1.8848 H       1  LIG1        0.0239
     46 H          -6.9403    1.7222   -1.4741 H       1  LIG1        0.0239
     47 H          -5.4454    1.9822   -2.3748 H       1  LIG1        0.0239
     48 H          -5.5650    2.4131   -0.6597 H       1  LIG1        0.0239
     49 H          -3.1928    1.2941   -2.7444 H       1  LIG1        0.0269
     50 H          -3.8156   -0.2496   -3.2620 H       1  LIG1        0.0269
     51 H          -1.4156   -0.2433   -3.5614 H       1  LIG1        0.0271
     52 H          -1.9730   -1.4654   -2.4382 H       1  LIG1        0.0271
     53 H          -1.0105    0.5913    1.9962 H       1  LIG1        0.0268
     54 H          -0.2312    1.6298    0.8311 H       1  LIG1        0.0268
     55 H           1.3646    0.1518    1.8457 H       1  LIG1        0.0268
     56 H           0.3882   -1.2605    1.5094 H       1  LIG1        0.0268
     57 H           1.0630   -2.9143   -1.3061 H       1  LIG1        0.0235
     58 H          -0.2267   -2.6049   -2.4393 H       1  LIG1        0.0235
     59 H          -0.5456   -2.5747   -0.6898 H       1  LIG1        0.0235
     60 H           1.0070   -0.2534   -3.5456 H       1  LIG1        0.0271
     61 H           2.0777   -1.4355   -2.8276 H       1  LIG1        0.0271
     62 H           3.4824    0.3184   -2.5513 H       1  LIG1        0.0269
     63 H           2.2212    1.5267   -2.5456 H       1  LIG1        0.0269
     64 H           3.9235   -2.1982    1.1861 H       1  LIG1        0.0292
     65 H           5.6928   -2.1407    1.0945 H       1  LIG1        0.0292
     66 H           4.1392   -1.4606   -1.0330 H       1  LIG1        0.0294
     67 H           5.6298   -0.5996   -0.7014 H       1  LIG1        0.0294
     68 H           3.9827    1.1476    3.7090 H       1  LIG1        0.2102
     69 H           2.3404   -0.6708    3.5531 H       1  LIG1        0.0258
     70 H           3.0566   -1.5654    4.8623 H       1  LIG1        0.0258
     71 H           3.0172   -2.2893    3.2480 H       1  LIG1        0.0258
     72 H           6.6136   -1.1119    3.9202 H       1  LIG1        0.0258
     73 H           5.6518   -2.5755    3.6105 H       1  LIG1        0.0258
     74 H           5.5210   -1.7083    5.1546 H       1  LIG1        0.0258
     75 H           5.6695    1.7126    0.1611 H       1  LIG1        0.0257
     76 H           4.1935    2.6282   -0.0603 H       1  LIG1        0.0257
     77 H           4.9004    1.7462   -1.4319 H       1  LIG1        0.0257
     78 H          -1.3565    2.2340   -1.9872 H       1  LIG1        0.0235
     79 H          -0.0288    1.6328   -2.9042 H       1  LIG1        0.0235
     80 H           0.1993    2.1005   -1.2174 H       1  LIG1        0.0235
     81 H          -3.8213    2.6489    0.5857 H       1  LIG1        0.0235
     82 H          -3.1099    2.6225   -1.0042 H       1  LIG1        0.0235
     83 H          -2.0970    2.6526    0.4383 H       1  LIG1        0.0235
@<TRIPOS>BOND
     1     1     2    2
     2     2     3    1
     3     3     4    1
     4     4     5    1
     5     5     6    1
     6     6     7    1
     7     7     8    1
     8     2     7    1
     9     7     9    1
    10     6    10    1
    11     6    11    1
    12    11    12    1
    13    12    13    1
    14    13    14    1
    15    14    15    1
    16    15    16    1
    17    16    17    1
    18    17    18    1
    19    17    19    1
    20    19    20    1
    21    19    21    1
    22    21    22    1
    23    22    23    1
    24    17    23    1
    25    25    26    1
    26    26    27    1
    27    27    28    1
    28    27    29    1
    29    29    30    1
    30    27    31    1
    31    31    32    1
    32    31    33    1
    33    31    34    1
    34    30    25    1
    35    14    36    1
    36    19    13    1
    37    13    37    1
    38    14     5    1
    39     5    38    1
    40    23    24    1
    41    25    23    1
    42    25    35    1
    43     3    39    1
    44     3    40    1
    45     4    41    1
    46     4    42    1
    47     8    43    1
    48     8    44    1
    49     8    45    1
    50     9    46    1
    51     9    47    1
    52     9    48    1
    53    11    49    1
    54    11    50    1
    55    12    51    1
    56    12    52    1
    57    15    53    1
    58    15    54    1
    59    16    55    1
    60    16    56    1
    61    20    57    1
    62    20    58    1
    63    20    59    1
    64    21    60    1
    65    21    61    1
    66    22    62    1
    67    22    63    1
    68    29    64    1
    69    29    65    1
    70    30    66    1
    71    30    67    1
    72    32    68    1
    73    33    69    1
    74    33    70    1
    75    33    71    1
    76    34    72    1
    77    34    73    1
    78    34    74    1
    79    35    75    1
    80    35    76    1
    81    35    77    1
    82    37    78    1
    83    37    79    1
    84    37    80    1
    85    38    81    1
    86    38    82    1
    87    38    83    1
