REMARK  Name = NuBBE_2342
REMARK  9 active torsions:
REMARK  status: ('A' for Active; 'I' for Inactive)
REMARK    1  A    between atoms: C_1  and  O_2
REMARK    2  A    between atoms: O_2  and  C_3
REMARK    3  A    between atoms: C_10  and  C_11
REMARK    4  A    between atoms: C_15  and  C_16
REMARK    5  A    between atoms: C_16  and  C_17
REMARK    6  A    between atoms: C_19  and  O_20
REMARK    7  A    between atoms: C_21  and  O_22
REMARK    8  A    between atoms: O_22  and  C_23
REMARK    9  A    between atoms: C_26  and  C_28
REMARK                            x       y       z     vdW  Elec       q    Type
REMARK                         _______ _______ _______ _____ _____    ______ ____
ROOT
ATOM      1  C   LIG A   1      -1.224   0.390   1.764  0.00  0.00    +0.211 C 
ATOM      2  O   LIG A   1      -0.177  -0.627   1.762  0.00  0.00    -0.483 OA
ATOM      3  C   LIG A   1       0.927   0.021   1.253  0.00  0.00    +0.132 A 
ATOM      4  C   LIG A   1       2.044  -0.613   0.722  0.00  0.00    +0.043 A 
ATOM      5  C   LIG A   1       3.030   0.226   0.156  0.00  0.00    +0.166 A 
ATOM      6  C   LIG A   1       2.864   1.628   0.088  0.00  0.00    +0.162 A 
ATOM      7  C   LIG A   1       1.729   2.217   0.656  0.00  0.00    +0.057 A 
ATOM      8  C   LIG A   1       0.774   1.403   1.234  0.00  0.00    +0.005 A 
ATOM      9  C   LIG A   1      -0.536   1.774   1.839  0.00  0.00    +0.065 C 
ATOM     10  C   LIG A   1      -0.349   2.251   3.280  0.00  0.00    +0.016 C 
ENDROOT
BRANCH   1  18
ATOM     11  C   LIG A   1      -2.408  -0.057  -1.900  0.00  0.00    +0.166 A 
ATOM     12  C   LIG A   1      -3.740  -0.340  -1.679  0.00  0.00    +0.207 A 
ATOM     13  O   LIG A   1      -4.698  -0.599  -2.611  0.00  0.00    -0.449 OA
ATOM     14  C   LIG A   1      -5.855  -0.808  -1.785  0.00  0.00    +0.467 C 
ATOM     15  O   LIG A   1      -5.590  -0.645  -0.380  0.00  0.00    -0.453 OA
ATOM     16  C   LIG A   1      -4.258  -0.358  -0.401  0.00  0.00    +0.170 A 
ATOM     17  C   LIG A   1      -3.489  -0.108   0.721  0.00  0.00    +0.057 A 
ATOM     18  C   LIG A   1      -2.126   0.175   0.545  0.00  0.00    +0.000 A 
ATOM     19  C   LIG A   1      -1.613   0.213  -0.777  0.00  0.00    +0.057 A 
BRANCH  11  21
ATOM     20  C   LIG A   1      -2.231  -0.821  -4.130  0.00  0.00    +0.277 C 
ATOM     21  O   LIG A   1      -1.767   0.043  -3.100  0.00  0.00    -0.491 OA
ENDBRANCH  11  21
ENDBRANCH   1  18
BRANCH   5  22
ATOM     22  O   LIG A   1       4.182  -0.343  -0.319  0.00  0.00    -0.503 OA
ATOM     23  H   LIG A   1       4.447  -1.022   0.326  0.00  0.00    +0.292 HD
ENDBRANCH   5  22
BRANCH   6  24
ATOM     24  O   LIG A   1       3.747   2.542  -0.425  0.00  0.00    -0.491 OA
ATOM     25  C   LIG A   1       4.532   2.134  -1.538  0.00  0.00    +0.277 C 
ENDBRANCH   6  24
BRANCH   4  26
ATOM     26  C   LIG A   1       2.154  -2.110   0.695  0.00  0.00    +0.069 C 
BRANCH  26  27
ATOM     27  C   LIG A   1       2.869  -2.694   1.891  0.00  0.00    -0.030 C 
ATOM     28  C   LIG A   1       3.972  -3.452   1.822  0.00  0.00    +0.004 C 
ENDBRANCH  26  27
ENDBRANCH   4  26
TORSDOF 6
