@<TRIPOS>MOLECULE
NuBBE_1185
 65 69 0 0 0
SMALL
GASTEIGER

@<TRIPOS>ATOM
      1 O          -4.2838   -6.4866    1.8267 O.3     1  LIG1       -0.5009
      2 C          -4.1920   -5.4458    0.9451 C.ar    1  LIG1        0.2024
      3 C          -5.3064   -5.0570    0.1848 C.ar    1  LIG1        0.1658
      4 C          -5.2163   -3.9219   -0.6185 C.ar    1  LIG1       -0.0015
      5 C          -4.0406   -3.1629   -0.6127 C.ar    1  LIG1        0.0744
      6 C          -2.9268   -3.5635    0.1242 C.ar    1  LIG1        0.0468
      7 C          -3.0019   -4.7243    0.8755 C.ar    1  LIG1        0.1854
      8 O          -1.8707   -5.1545    1.6066 O.2     1  LIG1       -0.4178
      9 C          -0.6329   -4.5046    1.5578 C.ar    1  LIG1        0.3454
     10 O           0.3606   -4.9540    2.1145 O.2     1  LIG1       -0.2445
     11 C          -4.0066   -1.8924   -1.3583 C.ar    1  LIG1        0.3454
     12 O          -2.8975   -1.0983   -1.1161 O.2     1  LIG1       -0.4178
     13 C          -1.7322   -1.5019   -0.4174 C.ar    1  LIG1        0.1856
     14 C          -1.7339   -2.7643    0.1693 C.ar    1  LIG1        0.0468
     15 C          -0.6003   -3.2028    0.8406 C.ar    1  LIG1        0.0744
     16 C           0.5394   -2.3882    0.8809 C.ar    1  LIG1       -0.0013
     17 C           0.5111   -1.0824    0.3523 C.ar    1  LIG1        0.1699
     18 O           1.6933   -0.4034    0.5312 O.3     1  LIG1       -0.4570
     19 C           1.6336    1.0214    0.7232 C.3     1  LIG1        0.2321
     20 H           0.7183    1.2832    1.2707 H       1  LIG1        0.1085
     21 O           1.7161    1.6879   -0.5294 O.3     1  LIG1       -0.3301
     22 C           1.5317    3.0959   -0.4240 C.3     1  LIG1        0.1260
     23 H           0.6197    3.3074    0.1506 H       1  LIG1        0.0659
     24 C           2.7518    3.6919    0.2772 C.3     1  LIG1        0.1240
     25 H           3.6393    3.5700   -0.3559 H       1  LIG1        0.0658
     26 C           3.0186    2.9787    1.6201 C.3     1  LIG1        0.1628
     27 H           2.3583    3.3704    2.4042 H       1  LIG1        0.0789
     28 C           2.8643    1.4451    1.5522 C.3     1  LIG1        0.1564
     29 H           3.7668    0.9953    1.1185 H       1  LIG1        0.0694
     30 O           2.7649    0.9399    2.8966 O.3     1  LIG1       -0.3818
     31 O           4.4040    3.2372    1.9913 O.3     1  LIG1       -0.4560
     32 C           4.6679    4.3919    2.6576 C.2     1  LIG1        0.3044
     33 C           6.1584    4.6220    2.6643 C.3     1  LIG1        0.0332
     34 O           3.8408    5.1197    3.1483 O.2     1  LIG1       -0.2512
     35 O           2.5685    5.1044    0.4401 O.3     1  LIG1       -0.3853
     36 C           1.3301    3.6848   -1.8320 C.3     1  LIG1        0.1212
     37 O           2.4723    3.4661   -2.6852 O.3     1  LIG1       -0.4621
     38 C           2.5177    2.2543   -3.3088 C.2     1  LIG1        0.3040
     39 C           3.7234    2.1610   -4.1901 C.3     1  LIG1        0.0332
     40 O           1.6782    1.3681   -3.2308 O.2     1  LIG1       -0.2512
     41 C          -0.6435   -0.6235   -0.3124 C.ar    1  LIG1        0.2050
     42 O          -0.6825    0.6733   -0.7404 O.3     1  LIG1       -0.4885
     43 C          -1.4485    0.9751   -1.9011 C.3     1  LIG1        0.0791
     44 O          -4.9193   -1.5380   -2.0935 O.2     1  LIG1       -0.2445
     45 O          -6.4252   -5.8430    0.2871 O.3     1  LIG1       -0.4913
     46 C          -7.6601   -5.2002   -0.0321 C.3     1  LIG1        0.0790
     47 H          -5.2361   -6.6229    1.9884 H       1  LIG1        0.2924
     48 H          -6.0462   -3.5868   -1.2347 H       1  LIG1        0.0664
     49 H           1.4460   -2.7480    1.3676 H       1  LIG1        0.0664
     50 H           3.6185    1.1208    3.3289 H       1  LIG1        0.2102
     51 H           6.6387    3.9332    3.3611 H       1  LIG1        0.0342
     52 H           6.3651    5.6526    2.9623 H       1  LIG1        0.0342
     53 H           6.5554    4.4796    1.6555 H       1  LIG1        0.0342
     54 H           2.3240    5.3057    1.3643 H       1  LIG1        0.2101
     55 H           1.1606    4.7661   -1.7715 H       1  LIG1        0.0724
     56 H           0.4406    3.2680   -2.3097 H       1  LIG1        0.0724
     57 H           3.5901    2.8100   -5.0585 H       1  LIG1        0.0342
     58 H           3.8250    1.1277   -4.5362 H       1  LIG1        0.0342
     59 H           4.6293    2.4263   -3.6400 H       1  LIG1        0.0342
     60 H          -2.5157    1.0211   -1.6698 H       1  LIG1        0.0660
     61 H          -1.2311    0.2884   -2.7255 H       1  LIG1        0.0660
     62 H          -1.1911    1.9836   -2.2236 H       1  LIG1        0.0660
     63 H          -8.4710   -5.8923    0.2112 H       1  LIG1        0.0660
     64 H          -7.7390   -4.9654   -1.0996 H       1  LIG1        0.0660
     65 H          -7.7911   -4.2995    0.5773 H       1  LIG1        0.0660
@<TRIPOS>BOND
     1     1     2    1
     2     2     3   ar
     3     3     4   ar
     4     4     5   ar
     5     5     6   ar
     6     6     7   ar
     7     2     7   ar
     8     7     8   ar
     9     8     9   ar
    10     9    10    2
    11     5    11   ar
    12    11    12   ar
    13    12    13   ar
    14    13    14   ar
    15     6    14   ar
    16    14    15   ar
    17     9    15   ar
    18    15    16   ar
    19    16    17   ar
    20    17    18    1
    21    18    19    1
    22    19    20    1
    23    19    21    1
    24    21    22    1
    25    22    23    1
    26    22    24    1
    27    24    26    1
    28    26    27    1
    29    26    28    1
    30    19    28    1
    31    26    31    1
    32    31    32    1
    33    32    33    1
    34    32    34    2
    35    22    36    1
    36    36    37    1
    37    37    38    1
    38    38    39    1
    39    38    40    2
    40    17    41   ar
    41    13    41   ar
    42    41    42    1
    43    42    43    1
    44    11    44    2
    45     3    45    1
    46    45    46    1
    47    24    35    1
    48    24    25    1
    49    28    30    1
    50    28    29    1
    51     1    47    1
    52     4    48    1
    53    16    49    1
    54    30    50    1
    55    33    51    1
    56    33    52    1
    57    33    53    1
    58    35    54    1
    59    36    55    1
    60    36    56    1
    61    39    57    1
    62    39    58    1
    63    39    59    1
    64    43    60    1
    65    43    61    1
    66    43    62    1
    67    46    63    1
    68    46    64    1
    69    46    65    1
