REMARK  Name = NuBBE_1164
REMARK  12 active torsions:
REMARK  status: ('A' for Active; 'I' for Inactive)
REMARK    1  A    between atoms: O_1  and  C_2
REMARK    2  A    between atoms: O_1  and  C_3
REMARK    3  A    between atoms: C_13  and  O_25
REMARK    4  A    between atoms: C_14  and  O_16
REMARK    5  A    between atoms: O_16  and  C_17
REMARK    6  A    between atoms: C_17  and  C_18
REMARK    7  A    between atoms: C_18  and  C_20
REMARK    8  A    between atoms: C_18  and  O_24
REMARK    9  A    between atoms: C_20  and  C_21
REMARK   10  A    between atoms: C_20  and  C_22
REMARK   11  A    between atoms: C_20  and  O_23
REMARK   12  A    between atoms: O_25  and  C_26
REMARK                            x       y       z     vdW  Elec       q    Type
REMARK                         _______ _______ _______ _____ _____    ______ ____
ROOT
ATOM      1  C   LIG A   1      -1.424  -1.841   2.515  0.00  0.00    +0.142 A 
ATOM      2  C   LIG A   1      -1.361  -1.072   1.324  0.00  0.00    +0.046 A 
ATOM      3  C   LIG A   1      -2.540  -0.428   0.892  0.00  0.00    +0.082 A 
ATOM      4  N   LIG A   1      -3.702  -0.457   1.535  0.00  0.00    -0.212 NA
ATOM      5  C   LIG A   1      -3.711  -1.175   2.654  0.00  0.00    +0.231 A 
ATOM      6  C   LIG A   1      -2.656  -1.906   3.210  0.00  0.00    +0.082 A 
ATOM      7  C   LIG A   1      -3.206  -2.495   4.382  0.00  0.00    +0.055 A 
ATOM      8  C   LIG A   1      -4.516  -2.093   4.465  0.00  0.00    +0.198 A 
ATOM      9  O   LIG A   1      -4.824  -1.285   3.425  0.00  0.00    -0.445 OA
ATOM     10  C   LIG A   1      -2.530   0.289  -0.276  0.00  0.00    +0.078 A 
ATOM     11  C   LIG A   1      -1.378   0.459  -1.050  0.00  0.00    +0.164 A 
ATOM     12  C   LIG A   1      -0.182  -0.134  -0.621  0.00  0.00    +0.163 A 
ATOM     13  C   LIG A   1      -0.191  -0.918   0.535  0.00  0.00    +0.063 A 
ENDROOT
BRANCH   1  14
ATOM     14  O   LIG A   1      -0.210  -2.360   2.960  0.00  0.00    -0.494 OA
ATOM     15  C   LIG A   1      -0.258  -3.605   3.639  0.00  0.00    +0.277 C 
ENDBRANCH   1  14
BRANCH  11  16
ATOM     16  O   LIG A   1      -1.373   1.170  -2.223  0.00  0.00    -0.491 OA
ATOM     17  C   LIG A   1      -2.380   2.178  -2.321  0.00  0.00    +0.277 C 
ENDBRANCH  11  16
BRANCH  12  18
ATOM     18  O   LIG A   1       0.939   0.062  -1.393  0.00  0.00    -0.486 OA
BRANCH  18  19
ATOM     19  C   LIG A   1       2.189   0.105  -0.696  0.00  0.00    +0.263 C 
BRANCH  19  20
ATOM     20  C   LIG A   1       3.357   0.414  -1.650  0.00  0.00    +0.183 C 
BRANCH  20  21
ATOM     21  C   LIG A   1       3.278   1.750  -2.437  0.00  0.00    +0.089 C 
ATOM     22  C   LIG A   1       2.203   1.771  -3.526  0.00  0.00    +0.044 C 
ATOM     23  C   LIG A   1       3.103   2.955  -1.508  0.00  0.00    +0.044 C 
BRANCH  21  24
ATOM     24  O   LIG A   1       4.555   1.884  -3.104  0.00  0.00    -0.387 OA
ATOM     25  H   LIG A   1       4.635   2.804  -3.412  0.00  0.00    +0.210 HD
ENDBRANCH  21  24
ENDBRANCH  20  21
BRANCH  20  26
ATOM     26  O   LIG A   1       3.541  -0.685  -2.560  0.00  0.00    -0.386 OA
ATOM     27  H   LIG A   1       4.245  -0.393  -3.171  0.00  0.00    +0.210 HD
ENDBRANCH  20  26
ENDBRANCH  19  20
ENDBRANCH  18  19
ENDBRANCH  12  18
TORSDOF 8
