@<TRIPOS>MOLECULE
NuBBE_2429
 81 85 0 0 0
SMALL
GASTEIGER

@<TRIPOS>ATOM
      1 O           4.1584   -1.7673   -4.7068 O.3     1  LIG1       -0.3912
      2 C           2.7509   -1.5289   -4.6382 C.3     1  LIG1        0.0606
      3 H           2.4306   -1.3556   -5.6748 H       1  LIG1        0.0599
      4 C           2.4489   -0.2456   -3.8256 C.3     1  LIG1       -0.0056
      5 C           0.8894   -0.1004   -3.7384 C.3     1  LIG1       -0.0273
      6 H           0.5380   -0.0658   -4.7823 H       1  LIG1        0.0312
      7 C           0.1833   -1.3516   -3.1453 C.3     1  LIG1       -0.0193
      8 C          -0.9631   -1.1986   -2.1113 C.3     1  LIG1       -0.0194
      9 C          -1.0145    0.1905   -1.4598 C.3     1  LIG1       -0.0289
     10 H          -0.0804    0.2653   -0.8862 H       1  LIG1        0.0312
     11 C          -2.1591    0.3250   -0.4066 C.3     1  LIG1       -0.0231
     12 C          -1.9242   -0.7493    0.7479 C.3     1  LIG1       -0.0233
     13 C          -1.2363    0.0712    1.9265 C.3     1  LIG1       -0.0325
     14 H          -1.4660   -0.4306    2.8729 H       1  LIG1        0.0309
     15 C          -2.0482    1.3826    1.8319 C.3     1  LIG1       -0.0489
     16 C          -2.0891    1.6913    0.3401 C.3     1  LIG1       -0.0466
     17 C           0.3101    0.4176    1.9483 C.3     1  LIG1       -0.0403
     18 H           0.5262    1.0755    1.0982 H       1  LIG1        0.0301
     19 C           0.7229    1.2323    3.2147 C.3     1  LIG1       -0.0467
     20 C           0.6270    0.4550    4.5341 C.3     1  LIG1       -0.0343
     21 C           1.0538    1.3030    5.6975 C.2     1  LIG1       -0.0853
     22 C           0.2536    2.0766    6.4555 C.2     1  LIG1       -0.0796
     23 C          -1.2236    2.2560    6.2311 C.3     1  LIG1       -0.0440
     24 C           0.8088    2.8630    7.6135 C.3     1  LIG1       -0.0440
     25 C           1.2889   -0.7598    1.8458 C.3     1  LIG1       -0.0621
     26 C          -1.1495   -1.9962    0.2638 C.3     1  LIG1       -0.0463
     27 C          -1.4203   -2.3303   -1.1930 C.3     1  LIG1       -0.0460
     28 C          -3.2803   -1.3048    1.2954 C.3     1  LIG1       -0.0588
     29 C          -3.5304    0.2489   -1.1172 C.3     1  LIG1       -0.0588
     30 C          -0.9382    1.2952   -2.5172 C.3     1  LIG1       -0.0489
     31 C           0.4563    1.2578   -3.1329 C.3     1  LIG1       -0.0488
     32 C          -1.2644   -1.4809   -3.5683 C.3     1  LIG1       -0.0401
     33 C           1.0184   -2.6141   -3.0565 C.3     1  LIG1       -0.0442
     34 C           2.0503   -2.7963   -4.1556 C.3     1  LIG1       -0.0258
     35 C           3.1457   -0.2565   -2.4441 C.3     1  LIG1       -0.0572
     36 C           3.0524    0.9539   -4.6057 C.3     1  LIG1       -0.0572
     37 H           4.2991   -2.5235   -5.3018 H       1  LIG1        0.2098
     38 H          -1.6389    2.2266    2.3877 H       1  LIG1        0.0268
     39 H          -3.0634    1.2478    2.2191 H       1  LIG1        0.0268
     40 H          -1.1815    2.2465    0.0801 H       1  LIG1        0.0271
     41 H          -2.9344    2.3494    0.1093 H       1  LIG1        0.0271
     42 H           0.1425    2.1560    3.2897 H       1  LIG1        0.0271
     43 H           1.7600    1.5725    3.0797 H       1  LIG1        0.0271
     44 H           1.2808   -0.4253    4.5111 H       1  LIG1        0.0307
     45 H          -0.3817    0.0672    4.6935 H       1  LIG1        0.0307
     46 H           2.1149    1.2593    5.9308 H       1  LIG1        0.0571
     47 H          -1.5983    1.7203    5.3559 H       1  LIG1        0.0274
     48 H          -1.4550    3.3161    6.0791 H       1  LIG1        0.0274
     49 H          -1.7839    1.8998    7.1023 H       1  LIG1        0.0274
     50 H           1.8781    2.6817    7.7635 H       1  LIG1        0.0274
     51 H           0.2931    2.5887    8.5401 H       1  LIG1        0.0274
     52 H           0.6727    3.9364    7.4435 H       1  LIG1        0.0274
     53 H           2.2549   -0.5312    2.3115 H       1  LIG1        0.0233
     54 H           1.5405   -0.9694    0.8021 H       1  LIG1        0.0233
     55 H           0.8957   -1.6595    2.3286 H       1  LIG1        0.0233
     56 H          -1.3759   -2.8654    0.8936 H       1  LIG1        0.0271
     57 H          -0.0807   -1.8678    0.3216 H       1  LIG1        0.0271
     58 H          -2.4875   -2.5250   -1.3454 H       1  LIG1        0.0271
     59 H          -0.9181   -3.2728   -1.4273 H       1  LIG1        0.0271
     60 H          -3.9809   -0.5219    1.5965 H       1  LIG1        0.0235
     61 H          -3.1114   -1.9356    2.1766 H       1  LIG1        0.0235
     62 H          -3.7921   -1.9253    0.5518 H       1  LIG1        0.0235
     63 H          -3.7041   -0.7150   -1.6006 H       1  LIG1        0.0235
     64 H          -3.6156    1.0189   -1.8921 H       1  LIG1        0.0235
     65 H          -4.3592    0.4253   -0.4234 H       1  LIG1        0.0235
     66 H          -1.0851    2.2865   -2.0774 H       1  LIG1        0.0268
     67 H          -1.7066    1.1932   -3.2889 H       1  LIG1        0.0268
     68 H           1.1578    1.5716   -2.3529 H       1  LIG1        0.0268
     69 H           0.5156    2.0319   -3.9085 H       1  LIG1        0.0268
     70 H          -1.7229   -0.7167   -4.1836 H       1  LIG1        0.0276
     71 H          -1.6283   -2.4675   -3.8455 H       1  LIG1        0.0276
     72 H           0.3789   -3.5050   -3.0792 H       1  LIG1        0.0272
     73 H           1.5127   -2.6434   -2.0794 H       1  LIG1        0.0272
     74 H           1.5476   -3.2466   -5.0221 H       1  LIG1        0.0290
     75 H           2.7808   -3.5473   -3.8275 H       1  LIG1        0.0290
     76 H           2.7484   -1.0111   -1.7653 H       1  LIG1        0.0236
     77 H           3.0517    0.7073   -1.9334 H       1  LIG1        0.0236
     78 H           4.2209   -0.4445   -2.5438 H       1  LIG1        0.0236
     79 H           2.5836    1.0613   -5.5902 H       1  LIG1        0.0236
     80 H           4.1298    0.8285   -4.7627 H       1  LIG1        0.0236
     81 H           2.9191    1.8989   -4.0685 H       1  LIG1        0.0236
@<TRIPOS>BOND
     1     2     4    1
     2     4     5    1
     3     5     7    1
     4     7     8    1
     5     8     9    1
     6     9    11    1
     7    11    12    1
     8    12    13    1
     9    13    15    1
    10    15    16    1
    11    11    16    1
    12    17    18    1
    13    17    19    1
    14    19    20    1
    15    20    21    1
    16    21    22    2
    17    22    23    1
    18    22    24    1
    19    17    25    1
    20    12    26    1
    21    26    27    1
    22     8    27    1
    23     9    30    1
    24    30    31    1
    25     5    31    1
    26     8    32    1
    27     7    32    1
    28     7    33    1
    29    33    34    1
    30     2    34    1
    31     4    35    1
    32     4    36    1
    33     5     6    1
    34     9    10    1
    35    11    29    1
    36    12    28    1
    37    13    14    1
    38    13    17    1
    39     2     3    1
    40     2     1    1
    41     1    37    1
    42    15    38    1
    43    15    39    1
    44    16    40    1
    45    16    41    1
    46    19    42    1
    47    19    43    1
    48    20    44    1
    49    20    45    1
    50    21    46    1
    51    23    47    1
    52    23    48    1
    53    23    49    1
    54    24    50    1
    55    24    51    1
    56    24    52    1
    57    25    53    1
    58    25    54    1
    59    25    55    1
    60    26    56    1
    61    26    57    1
    62    27    58    1
    63    27    59    1
    64    28    60    1
    65    28    61    1
    66    28    62    1
    67    29    63    1
    68    29    64    1
    69    29    65    1
    70    30    66    1
    71    30    67    1
    72    31    68    1
    73    31    69    1
    74    32    70    1
    75    32    71    1
    76    33    72    1
    77    33    73    1
    78    34    74    1
    79    34    75    1
    80    35    76    1
    81    35    77    1
    82    35    78    1
    83    36    79    1
    84    36    80    1
    85    36    81    1
