@<TRIPOS>MOLECULE
NuBBE_2264
 45 46 0 0 0
SMALL
GASTEIGER

@<TRIPOS>ATOM
      1 C          -2.2101    3.3884    0.0639 C.3     1  LIG1       -0.0391
      2 C          -0.7150    3.2096    0.0018 C.ar    1  LIG1       -0.0427
      3 C           0.0866    4.3553   -0.0722 C.ar    1  LIG1       -0.0580
      4 C           1.4711    4.2491   -0.1212 C.ar    1  LIG1       -0.0580
      5 C           2.0918    2.9945   -0.0888 C.ar    1  LIG1       -0.0426
      6 C           3.5991    2.9486   -0.1362 C.3     1  LIG1       -0.0391
      7 C           1.2996    1.8168   -0.0016 C.ar    1  LIG1       -0.0112
      8 C           1.8676    0.5285    0.0774 C.ar    1  LIG1       -0.0109
      9 C           1.0794   -0.6191    0.2176 C.ar    1  LIG1        0.1391
     10 O           1.6617   -1.9019    0.3603 O.3     1  LIG1       -0.4256
     11 C           3.0081   -2.2621    0.4308 C.2     1  LIG1        0.3092
     12 C           3.0772   -3.7547    0.3672 C.3     1  LIG1        0.0336
     13 O           3.9780   -1.5160    0.5210 O.2     1  LIG1       -0.2507
     14 C          -0.3184   -0.5535    0.2192 C.ar    1  LIG1        0.0382
     15 C          -1.2487   -1.7594    0.4278 C.3     1  LIG1        0.1362
     16 C          -1.4927   -1.8574    1.9514 C.3     1  LIG1       -0.0207
     17 O          -2.5716   -1.5253   -0.1548 O.3     1  LIG1       -0.4539
     18 C          -2.7370   -1.6543   -1.5011 C.2     1  LIG1        0.3048
     19 C          -4.1856   -1.5303   -1.8578 C.3     1  LIG1        0.0333
     20 O          -1.8601   -1.8710   -2.3243 O.2     1  LIG1       -0.2511
     21 C          -0.7715   -3.1539   -0.0326 C.3     1  LIG1       -0.0207
     22 C          -0.8806    0.7369    0.1308 C.ar    1  LIG1       -0.0433
     23 C          -0.1133    1.9247    0.0362 C.ar    1  LIG1       -0.0141
     24 H          -2.4925    4.4462    0.0547 H       1  LIG1        0.0278
     25 H          -2.6045    2.9555    0.9893 H       1  LIG1        0.0278
     26 H          -2.6865    2.9128   -0.7994 H       1  LIG1        0.0278
     27 H          -0.3646    5.3449   -0.0843 H       1  LIG1        0.0620
     28 H           2.0664    5.1581   -0.1728 H       1  LIG1        0.0620
     29 H           4.0325    3.9551   -0.1335 H       1  LIG1        0.0278
     30 H           3.9380    2.4479   -1.0489 H       1  LIG1        0.0278
     31 H           3.9953    2.4284    0.7417 H       1  LIG1        0.0278
     32 H           2.9470    0.4333    0.0463 H       1  LIG1        0.0661
     33 H           2.5422   -4.0982   -0.5230 H       1  LIG1        0.0342
     34 H           2.6353   -4.1859    1.2687 H       1  LIG1        0.0342
     35 H           4.1199   -4.0721    0.2861 H       1  LIG1        0.0342
     36 H          -1.8554   -0.9101    2.3683 H       1  LIG1        0.0271
     37 H          -0.5749   -2.1269    2.4883 H       1  LIG1        0.0271
     38 H          -2.2583   -2.6079    2.1793 H       1  LIG1        0.0271
     39 H          -4.7700   -2.2713   -1.3058 H       1  LIG1        0.0342
     40 H          -4.3075   -1.7308   -2.9270 H       1  LIG1        0.0342
     41 H          -4.5360   -0.5185   -1.6462 H       1  LIG1        0.0342
     42 H          -0.0032   -3.5785    0.6184 H       1  LIG1        0.0271
     43 H          -0.3621   -3.1365   -1.0472 H       1  LIG1        0.0271
     44 H          -1.6118   -3.8597   -0.0372 H       1  LIG1        0.0271
     45 H          -1.9648    0.8205    0.1690 H       1  LIG1        0.0629
@<TRIPOS>BOND
     1     1     2    1
     2     2     3   ar
     3     3     4   ar
     4     4     5   ar
     5     5     6    1
     6     5     7   ar
     7     7     8   ar
     8     8     9   ar
     9     9    10    1
    10    10    11    1
    11    11    12    1
    12    11    13    2
    13     9    14   ar
    14    14    15    1
    15    15    16    1
    16    15    17    1
    17    17    18    1
    18    18    19    1
    19    18    20    2
    20    15    21    1
    21    14    22   ar
    22    22    23   ar
    23     2    23   ar
    24     7    23   ar
    25     1    24    1
    26     1    25    1
    27     1    26    1
    28     3    27    1
    29     4    28    1
    30     6    29    1
    31     6    30    1
    32     6    31    1
    33     8    32    1
    34    12    33    1
    35    12    34    1
    36    12    35    1
    37    16    36    1
    38    16    37    1
    39    16    38    1
    40    19    39    1
    41    19    40    1
    42    19    41    1
    43    21    42    1
    44    21    43    1
    45    21    44    1
    46    22    45    1
