@<TRIPOS>MOLECULE
NuBBE_1806
 55 54 0 0 0
SMALL
GASTEIGER

@<TRIPOS>ATOM
      1 O           3.2468    6.8385    5.7454 O.3     1  LIG1       -0.3925
      2 C           2.1908    6.0207    5.2348 C.3     1  LIG1        0.0701
      3 C           2.7144    5.1439    4.0890 C.3     1  LIG1        0.0786
      4 O           3.7560    4.2846    4.5584 O.3     1  LIG1       -0.3895
      5 C           1.6005    4.2840    3.4853 C.3     1  LIG1       -0.0197
      6 C           2.0221    3.3343    2.3262 C.3     1  LIG1       -0.0131
      7 C           0.7784    2.4666    1.9561 C.3     1  LIG1       -0.0219
      8 C           0.9965    1.4190    0.8535 C.3     1  LIG1        0.0556
      9 C          -0.1857    0.4365    0.7397 C.3     1  LIG1       -0.0268
     10 C           0.0619   -0.6014   -0.3632 C.3     1  LIG1       -0.0507
     11 C          -1.0978   -1.5868   -0.5258 C.3     1  LIG1       -0.0530
     12 C          -0.8378   -2.5143   -1.7167 C.3     1  LIG1       -0.0531
     13 C          -2.0009   -3.4721   -1.9730 C.3     1  LIG1       -0.0530
     14 C          -1.7037   -4.3772   -3.1715 C.3     1  LIG1       -0.0528
     15 C          -2.8573   -5.3416   -3.4463 C.3     1  LIG1       -0.0496
     16 C          -2.5414   -6.2604   -4.6270 C.3     1  LIG1       -0.0350
     17 C          -3.6672   -7.2142   -4.8893 C.2     1  LIG1       -0.0911
     18 C          -4.6588   -6.9688   -5.7700 C.2     1  LIG1       -0.1026
     19 O           1.1523    2.0792   -0.4006 O.3     1  LIG1       -0.3918
     20 C           2.5943    4.1081    1.1221 C.3     1  LIG1        0.0472
     21 O           3.7811    4.8281    1.4364 O.3     1  LIG1       -0.3947
     22 H           3.3700    7.5758    5.1217 H       1  LIG1        0.2095
     23 H           1.3829    6.6764    4.8913 H       1  LIG1        0.0583
     24 H           1.8217    5.4096    6.0632 H       1  LIG1        0.0583
     25 H           3.1518    5.8174    3.3507 H       1  LIG1        0.0616
     26 H           4.4575    4.8780    4.8867 H       1  LIG1        0.2099
     27 H           0.7896    4.9368    3.1385 H       1  LIG1        0.0294
     28 H           1.1820    3.6609    4.2886 H       1  LIG1        0.0294
     29 H           2.8030    2.6630    2.7075 H       1  LIG1        0.0324
     30 H          -0.0366    3.1376    1.6547 H       1  LIG1        0.0293
     31 H           0.4469    1.9464    2.8647 H       1  LIG1        0.0293
     32 H           1.9161    0.8587    1.0568 H       1  LIG1        0.0593
     33 H          -1.1017    0.9910    0.4975 H       1  LIG1        0.0290
     34 H          -0.3510   -0.0706    1.6972 H       1  LIG1        0.0290
     35 H           0.9812   -1.1562   -0.1400 H       1  LIG1        0.0266
     36 H           0.2222   -0.0881   -1.3190 H       1  LIG1        0.0266
     37 H          -2.0338   -1.0379   -0.6832 H       1  LIG1        0.0265
     38 H          -1.2155   -2.1787    0.3897 H       1  LIG1        0.0265
     39 H           0.0788   -3.0897   -1.5370 H       1  LIG1        0.0265
     40 H          -0.6659   -1.9109   -2.6168 H       1  LIG1        0.0265
     41 H          -2.9161   -2.8983   -2.1631 H       1  LIG1        0.0265
     42 H          -2.1798   -4.0849   -1.0816 H       1  LIG1        0.0265
     43 H          -0.7858   -4.9469   -2.9826 H       1  LIG1        0.0265
     44 H          -1.5231   -3.7608   -4.0611 H       1  LIG1        0.0265
     45 H          -3.7669   -4.7655   -3.6607 H       1  LIG1        0.0268
     46 H          -3.0603   -5.9407   -2.5505 H       1  LIG1        0.0268
     47 H          -1.6346   -6.8437   -4.4215 H       1  LIG1        0.0307
     48 H          -2.3296   -5.6639   -5.5229 H       1  LIG1        0.0307
     49 H          -3.6707   -8.1485   -4.3393 H       1  LIG1        0.0566
     50 H          -4.6976   -6.0425   -6.3294 H       1  LIG1        0.0532
     51 H          -5.4516   -7.6884   -5.9240 H       1  LIG1        0.0532
     52 H           0.2821    2.4162   -0.6754 H       1  LIG1        0.2098
     53 H           1.8593    4.8284    0.7500 H       1  LIG1        0.0560
     54 H           2.8731    3.4425    0.3057 H       1  LIG1        0.0560
     55 H           4.4576    4.1707    1.6800 H       1  LIG1        0.2094
@<TRIPOS>BOND
     1     1     2    1
     2     2     3    1
     3     3     4    1
     4     3     5    1
     5     5     6    1
     6     6     7    1
     7     7     8    1
     8     8     9    1
     9     9    10    1
    10    10    11    1
    11    11    12    1
    12    12    13    1
    13    13    14    1
    14    14    15    1
    15    15    16    1
    16    16    17    1
    17    17    18    2
    18     8    19    1
    19     6    20    1
    20    20    21    1
    21     1    22    1
    22     2    23    1
    23     2    24    1
    24     3    25    1
    25     4    26    1
    26     5    27    1
    27     5    28    1
    28     6    29    1
    29     7    30    1
    30     7    31    1
    31     8    32    1
    32     9    33    1
    33     9    34    1
    34    10    35    1
    35    10    36    1
    36    11    37    1
    37    11    38    1
    38    12    39    1
    39    12    40    1
    40    13    41    1
    41    13    42    1
    42    14    43    1
    43    14    44    1
    44    15    45    1
    45    15    46    1
    46    16    47    1
    47    16    48    1
    48    17    49    1
    49    18    50    1
    50    18    51    1
    51    19    52    1
    52    20    53    1
    53    20    54    1
    54    21    55    1
