REMARK  Name = NuBBE_572
REMARK  7 active torsions:
REMARK  status: ('A' for Active; 'I' for Inactive)
REMARK    1  A    between atoms: C_1  and  C_2
REMARK    2  A    between atoms: C_6  and  O_7
REMARK    3  A    between atoms: C_10  and  O_11
REMARK    4  A    between atoms: C_10  and  C_12
REMARK    5  A    between atoms: C_18  and  C_19
REMARK    6  A    between atoms: C_18  and  C_20
REMARK    7  A    between atoms: C_23  and  C_25
REMARK                            x       y       z     vdW  Elec       q    Type
REMARK                         _______ _______ _______ _____ _____    ______ ____
ROOT
ATOM      1  C   LIG A   1      -3.392  -1.990   2.029  0.00  0.00    +0.047 C 
ATOM      2  C   LIG A   1      -1.953  -1.770   1.788  0.00  0.00    -0.004 C 
ATOM      3  C   LIG A   1      -1.431  -0.438   1.434  0.00  0.00    +0.188 C 
ATOM      4  O   LIG A   1      -2.146   0.502   1.212  0.00  0.00    -0.287 OA
ATOM      5  C   LIG A   1      -0.917  -2.601   1.866  0.00  0.00    +0.027 C 
ATOM      6  C   LIG A   1       0.409  -1.935   1.644  0.00  0.00    +0.171 C 
ATOM      7  C   LIG A   1       0.087  -0.454   1.478  0.00  0.00    +0.041 C 
ATOM      8  C   LIG A   1       0.449   0.588   2.264  0.00  0.00    +0.018 C 
ATOM      9  C   LIG A   1       0.634   2.042   1.873  0.00  0.00    +0.082 C 
ATOM     10  C   LIG A   1      -0.509   2.949   2.340  0.00  0.00    +0.046 C 
ATOM     11  C   LIG A   1       1.030   2.303   0.398  0.00  0.00    +0.039 C 
ATOM     12  C   LIG A   1      -0.029   2.059  -0.681  0.00  0.00    +0.007 C 
ATOM     13  C   LIG A   1       0.544   1.446  -1.925  0.00  0.00    -0.001 C 
ATOM     14  C   LIG A   1       0.865  -0.024  -2.219  0.00  0.00    -0.001 C 
ATOM     15  C   LIG A   1      -0.301   0.673  -2.929  0.00  0.00    -0.029 C 
ATOM     16  C   LIG A   1      -0.106   0.927  -4.400  0.00  0.00    +0.011 C 
ATOM     17  C   LIG A   1      -1.735   0.296  -2.599  0.00  0.00    +0.011 C 
ATOM     18  C   LIG A   1       0.529  -1.315  -1.542  0.00  0.00    +0.015 C 
ATOM     19  C   LIG A   1       1.639  -2.024  -0.758  0.00  0.00    +0.056 C 
ATOM     20  C   LIG A   1       2.899  -1.264  -0.383  0.00  0.00    +0.015 C 
ATOM     21  C   LIG A   1       1.059  -2.736   0.457  0.00  0.00    +0.176 C 
ATOM     22  O   LIG A   1       1.127  -3.976   0.494  0.00  0.00    -0.293 OA
ENDROOT
BRANCH   6  23
ATOM     23  O   LIG A   1       1.221  -2.119   2.798  0.00  0.00    -0.373 OA
ATOM     24  H   LIG A   1       0.661  -1.989   3.580  0.00  0.00    +0.211 HD
ENDBRANCH   6  23
BRANCH   9  25
ATOM     25  O   LIG A   1       1.803   2.454   2.619  0.00  0.00    -0.385 OA
ATOM     26  H   LIG A   1       1.595   2.405   3.567  0.00  0.00    +0.211 HD
ENDBRANCH   9  25
TORSDOF 2
