@<TRIPOS>MOLECULE
NuBBE_1389
 34 33 0 0 0
SMALL
GASTEIGER

@<TRIPOS>ATOM
      1 C           0.5902    3.3447   -2.8275 C.3     1  LIG1        0.0333
      2 C          -0.5882    2.7553   -2.1024 C.2     1  LIG1        0.3048
      3 O          -0.1157    1.8700   -1.1844 O.3     1  LIG1       -0.4544
      4 C          -1.0205    1.0730   -0.3688 C.3     1  LIG1        0.1289
      5 C          -1.8614    1.9885    0.5079 C.2     1  LIG1       -0.0483
      6 C          -3.1080    1.7686    0.9527 C.2     1  LIG1       -0.0989
      7 C          -1.8347    0.1223   -1.2630 C.3     1  LIG1       -0.0211
      8 C          -0.0808    0.2691    0.5691 C.3     1  LIG1       -0.0060
      9 C           0.9753   -0.5822   -0.1545 C.3     1  LIG1       -0.0306
     10 C           1.8702   -1.2683    0.8415 C.2     1  LIG1       -0.0851
     11 C           1.7000   -2.4919    1.3785 C.2     1  LIG1       -0.0796
     12 C           0.5588   -3.4196    1.0641 C.3     1  LIG1       -0.0440
     13 C           2.6690   -3.0212    2.4021 C.3     1  LIG1       -0.0440
     14 O          -1.7500    3.0407   -2.3188 O.2     1  LIG1       -0.2511
     15 H           1.2164    2.5369   -3.2178 H       1  LIG1        0.0342
     16 H           1.1662    3.9742   -2.1441 H       1  LIG1        0.0342
     17 H           0.2391    3.9454   -3.6665 H       1  LIG1        0.0342
     18 H          -1.3881    2.9266    0.7940 H       1  LIG1        0.0605
     19 H          -3.6579    0.8602    0.7318 H       1  LIG1        0.0533
     20 H          -3.6110    2.5108    1.5663 H       1  LIG1        0.0533
     21 H          -2.5396    0.6694   -1.8982 H       1  LIG1        0.0271
     22 H          -2.4092   -0.6009   -0.6742 H       1  LIG1        0.0271
     23 H          -1.1876   -0.4329   -1.9499 H       1  LIG1        0.0271
     24 H          -0.6782   -0.3732    1.2303 H       1  LIG1        0.0310
     25 H           0.4575    0.9753    1.2189 H       1  LIG1        0.0310
     26 H           1.6059    0.0485   -0.7936 H       1  LIG1        0.0309
     27 H           0.5126   -1.3135   -0.8229 H       1  LIG1        0.0309
     28 H           2.7321   -0.6770    1.1508 H       1  LIG1        0.0571
     29 H          -0.1511   -3.0068    0.3433 H       1  LIG1        0.0274
     30 H          -0.0028   -3.6482    1.9759 H       1  LIG1        0.0274
     31 H           0.9420   -4.3578    0.6497 H       1  LIG1        0.0274
     32 H           3.4774   -2.3134    2.6138 H       1  LIG1        0.0274
     33 H           3.1233   -3.9529    2.0507 H       1  LIG1        0.0274
     34 H           2.1488   -3.2196    3.3452 H       1  LIG1        0.0274
@<TRIPOS>BOND
     1     1     2    1
     2     2     3    1
     3     3     4    1
     4     4     5    1
     5     5     6    2
     6     4     7    1
     7     4     8    1
     8     8     9    1
     9     9    10    1
    10    10    11    2
    11    11    12    1
    12    11    13    1
    13     2    14    2
    14     1    15    1
    15     1    16    1
    16     1    17    1
    17     5    18    1
    18     6    19    1
    19     6    20    1
    20     7    21    1
    21     7    22    1
    22     7    23    1
    23     8    24    1
    24     8    25    1
    25     9    26    1
    26     9    27    1
    27    10    28    1
    28    12    29    1
    29    12    30    1
    30    12    31    1
    31    13    32    1
    32    13    33    1
    33    13    34    1
