REMARK  Name = NuBBE_928
REMARK  12 active torsions:
REMARK  status: ('A' for Active; 'I' for Inactive)
REMARK    1  A    between atoms: C_1  and  C_2
REMARK    2  A    between atoms: C_12  and  C_14
REMARK    3  A    between atoms: C_15  and  O_19
REMARK    4  A    between atoms: C_22  and  C_23
REMARK    5  A    between atoms: C_24  and  C_28
REMARK    6  A    between atoms: C_28  and  C_30
REMARK    7  A    between atoms: C_28  and  C_37
REMARK    8  A    between atoms: C_30  and  C_31
REMARK    9  A    between atoms: C_31  and  C_32
REMARK   10  A    between atoms: C_32  and  C_34
REMARK   11  A    between atoms: C_34  and  C_35
REMARK   12  A    between atoms: C_34  and  C_36
REMARK                            x       y       z     vdW  Elec       q    Type
REMARK                         _______ _______ _______ _____ _____    ______ ____
ROOT
ATOM      1  C   LIG A   1      -3.346   1.861   2.227  0.00  0.00    +0.012 C 
ATOM      2  C   LIG A   1      -2.187   1.683   1.225  0.00  0.00    -0.023 C 
ATOM      3  C   LIG A   1      -2.058   0.169   0.805  0.00  0.00    +0.002 C 
ATOM      4  C   LIG A   1      -1.467  -0.701   1.917  0.00  0.00    -0.019 C 
ATOM      5  C   LIG A   1      -1.595  -2.233   1.758  0.00  0.00    -0.020 C 
ATOM      6  C   LIG A   1      -2.325  -1.500   2.873  0.00  0.00    +0.015 C 
ATOM      7  C   LIG A   1      -2.488  -2.849   0.658  0.00  0.00    +0.001 C 
ATOM      8  C   LIG A   1      -3.013  -1.819  -0.359  0.00  0.00    +0.005 C 
ATOM      9  C   LIG A   1      -3.340  -0.454   0.231  0.00  0.00    +0.005 C 
ATOM     10  C   LIG A   1      -1.740  -3.992  -0.087  0.00  0.00    +0.018 C 
ATOM     11  C   LIG A   1      -2.573  -4.634  -1.206  0.00  0.00    +0.010 C 
ATOM     12  C   LIG A   1      -1.271  -5.092   0.886  0.00  0.00    +0.118 C 
ATOM     13  C   LIG A   1      -0.770  -4.568   2.228  0.00  0.00    +0.032 C 
ATOM     14  C   LIG A   1      -0.402  -3.095   2.159  0.00  0.00    +0.010 C 
ATOM     15  C   LIG A   1      -0.155  -0.164   2.443  0.00  0.00    +0.008 C 
ATOM     16  C   LIG A   1      -0.220   1.308   2.809  0.00  0.00    +0.008 C 
ATOM     17  C   LIG A   1      -0.798   2.243   1.736  0.00  0.00    -0.023 C 
ATOM     18  C   LIG A   1      -0.953   3.623   2.458  0.00  0.00    +0.012 C 
ATOM     19  C   LIG A   1       0.031   2.549   0.409  0.00  0.00    -0.002 C 
ATOM     20  C   LIG A   1      -1.072   2.720  -0.677  0.00  0.00    +0.005 C 
ATOM     21  C   LIG A   1      -2.430   2.588   0.002  0.00  0.00    +0.008 C 
ENDROOT
BRANCH  12  22
ATOM     22  O   LIG A   1      -0.229  -5.850   0.263  0.00  0.00    -0.392 OA
ATOM     23  H   LIG A   1       0.518  -5.249   0.097  0.00  0.00    +0.210 HD
ENDBRANCH  12  22
BRANCH  19  24
ATOM     24  C   LIG A   1       1.224   1.661  -0.116  0.00  0.00    -0.010 C 
ATOM     25  C   LIG A   1       2.385   1.560   0.882  0.00  0.00    +0.008 C 
BRANCH  24  26
ATOM     26  C   LIG A   1       1.804   2.255  -1.442  0.00  0.00    +0.008 C 
BRANCH  26  27
ATOM     27  C   LIG A   1       2.924   1.426  -2.119  0.00  0.00    +0.030 C 
BRANCH  27  28
ATOM     28  C   LIG A   1       3.486   1.974  -3.425  0.00  0.00    -0.074 C 
ATOM     29  C   LIG A   1       3.029   3.126  -3.976  0.00  0.00    +0.008 C 
BRANCH  28  30
ATOM     30  C   LIG A   1       4.599   1.185  -4.125  0.00  0.00    +0.008 C 
ATOM     31  C   LIG A   1       6.005   1.618  -3.686  0.00  0.00    +0.012 C 
ATOM     32  C   LIG A   1       4.483  -0.335  -3.955  0.00  0.00    +0.012 C 
ENDBRANCH  28  30
ENDBRANCH  27  28
ENDBRANCH  26  27
ENDBRANCH  24  26
ENDBRANCH  19  24
TORSDOF 6
