REMARK  Name = NuBBE_1864
REMARK  10 active torsions:
REMARK  status: ('A' for Active; 'I' for Inactive)
REMARK    1  A    between atoms: C_1  and  O_2
REMARK    2  A    between atoms: O_2  and  C_3
REMARK    3  A    between atoms: C_4  and  C_5
REMARK    4  A    between atoms: C_7  and  O_8
REMARK    5  A    between atoms: C_9  and  O_10
REMARK    6  A    between atoms: O_10  and  C_11
REMARK    7  A    between atoms: C_13  and  O_14
REMARK    8  A    between atoms: C_18  and  O_19
REMARK    9  A    between atoms: C_21  and  O_22
REMARK   10  A    between atoms: O_22  and  C_23
REMARK                            x       y       z     vdW  Elec       q    Type
REMARK                         _______ _______ _______ _____ _____    ______ ____
ROOT
ATOM      1  C   LIG A   1      -0.660   1.344  -1.255  0.00  0.00    +0.211 A 
ATOM      2  C   LIG A   1      -0.185   0.272  -0.578  0.00  0.00    +0.184 A 
ATOM      3  O   LIG A   1       0.592   0.344   0.566  0.00  0.00    -0.451 OA
ATOM      4  C   LIG A   1       0.881   1.571   1.096  0.00  0.00    +0.146 A 
ATOM      5  C   LIG A   1       0.450   2.763   0.535  0.00  0.00    +0.109 A 
ATOM      6  C   LIG A   1       0.778   3.979   1.157  0.00  0.00    +0.135 A 
ATOM      7  C   LIG A   1       1.531   3.992   2.330  0.00  0.00    +0.092 A 
ATOM      8  C   LIG A   1       1.960   2.789   2.896  0.00  0.00    +0.127 A 
ATOM      9  C   LIG A   1       1.636   1.582   2.269  0.00  0.00    +0.092 A 
ATOM     10  C   LIG A   1      -0.355   2.696  -0.687  0.00  0.00    +0.238 A 
ATOM     11  O   LIG A   1      -0.766   3.757  -1.170  0.00  0.00    -0.283 OA
ENDROOT
BRANCH   2  12
ATOM     12  C   LIG A   1      -0.476  -1.133  -0.954  0.00  0.00    +0.066 A 
ATOM     13  C   LIG A   1      -1.556  -1.796  -0.346  0.00  0.00    +0.064 A 
ATOM     14  C   LIG A   1      -1.785  -3.167  -0.563  0.00  0.00    +0.159 A 
ATOM     15  C   LIG A   1      -0.949  -3.903  -1.408  0.00  0.00    +0.165 A 
ATOM     16  C   LIG A   1       0.097  -3.232  -2.054  0.00  0.00    +0.095 A 
ATOM     17  C   LIG A   1       0.333  -1.870  -1.826  0.00  0.00    +0.131 A 
BRANCH  14  18
ATOM     18  O   LIG A   1      -2.837  -3.759   0.079  0.00  0.00    -0.503 OA
ATOM     19  H   LIG A   1      -3.280  -3.106   0.645  0.00  0.00    +0.292 HD
ENDBRANCH  14  18
BRANCH  15  20
ATOM     20  O   LIG A   1      -1.002  -5.236  -1.716  0.00  0.00    -0.491 OA
ATOM     21  C   LIG A   1      -1.932  -6.057  -1.022  0.00  0.00    +0.277 C 
ENDBRANCH  15  20
BRANCH  17  22
ATOM     22  O   LIG A   1       1.381  -1.259  -2.461  0.00  0.00    -0.506 OA
ATOM     23  H   LIG A   1       1.749  -1.883  -3.109  0.00  0.00    +0.292 HD
ENDBRANCH  17  22
ENDBRANCH   2  12
BRANCH   1  25
ATOM     24  C   LIG A   1      -1.384   2.210  -3.353  0.00  0.00    +0.277 C 
ATOM     25  O   LIG A   1      -1.457   1.173  -2.377  0.00  0.00    -0.488 OA
ENDBRANCH   1  25
BRANCH   6  26
ATOM     26  O   LIG A   1       0.385   5.197   0.667  0.00  0.00    -0.506 OA
ATOM     27  H   LIG A   1      -0.150   5.042  -0.142  0.00  0.00    +0.292 HD
ENDBRANCH   6  26
BRANCH   8  28
ATOM     28  O   LIG A   1       2.681   2.903   4.054  0.00  0.00    -0.495 OA
ATOM     29  C   LIG A   1       3.091   1.677   4.652  0.00  0.00    +0.277 C 
ENDBRANCH   8  28
TORSDOF 7
