@<TRIPOS>MOLECULE
NuBBE_2349
 47 49 0 0 0
SMALL
GASTEIGER

@<TRIPOS>ATOM
      1 C           3.4270    2.9475    1.5328 C.3     1  LIG1        0.0790
      2 O           3.3488    2.7688    0.1190 O.3     1  LIG1       -0.4913
      3 C           2.0920    2.5018   -0.3669 C.ar    1  LIG1        0.1655
      4 C           1.6830    3.0368   -1.6039 C.ar    1  LIG1        0.2035
      5 O           2.4047    3.9220   -2.3730 O.3     1  LIG1       -0.4885
      6 C           3.4315    4.6730   -1.7360 C.3     1  LIG1        0.0791
      7 C           0.4318    2.6495   -2.1451 C.ar    1  LIG1        0.1655
      8 O           0.0958    3.1456   -3.3856 O.3     1  LIG1       -0.4913
      9 C          -1.1534    2.7360   -3.9366 C.3     1  LIG1        0.0790
     10 C          -0.4001    1.7856   -1.4233 C.ar    1  LIG1       -0.0094
     11 C           0.0099    1.2394   -0.2041 C.ar    1  LIG1        0.0004
     12 C          -0.8814    0.2540    0.5190 C.3     1  LIG1        0.1320
     13 H          -1.8003    0.7955    0.7919 H       1  LIG1        0.0790
     14 O          -0.2917   -0.1523    1.7858 O.3     1  LIG1       -0.4832
     15 C          -0.7813   -1.4088    1.9867 C.ar    1  LIG1        0.1287
     16 C          -0.6513   -2.1047    3.1740 C.ar    1  LIG1        0.0255
     17 C          -1.1856   -3.3856    3.2052 C.ar    1  LIG1        0.1620
     18 O          -1.0605   -4.1016    4.3691 O.3     1  LIG1       -0.5032
     19 C          -1.8315   -3.9625    2.0931 C.ar    1  LIG1        0.1618
     20 O          -2.2810   -5.2434    2.2811 O.3     1  LIG1       -0.4914
     21 C          -2.9321   -5.8503    1.1697 C.3     1  LIG1        0.0790
     22 C          -1.9447   -3.2293    0.9065 C.ar    1  LIG1       -0.0093
     23 C          -1.3976   -1.9579    0.8766 C.ar    1  LIG1        0.0046
     24 C          -1.2638   -1.0237   -0.2783 C.3     1  LIG1        0.0261
     25 H          -2.2190   -0.8780   -0.7939 H       1  LIG1        0.0387
     26 C          -0.2191   -1.5609   -1.2581 C.3     1  LIG1       -0.0546
     27 C           1.2571    1.6071    0.3101 C.ar    1  LIG1       -0.0094
     28 H           4.3778    3.4424    1.7518 H       1  LIG1        0.0660
     29 H           3.4321    1.9842    2.0520 H       1  LIG1        0.0660
     30 H           2.6208    3.5902    1.9046 H       1  LIG1        0.0660
     31 H           4.3668    4.1035   -1.7246 H       1  LIG1        0.0660
     32 H           3.1513    5.0090   -0.7315 H       1  LIG1        0.0660
     33 H           3.6051    5.5775   -2.3265 H       1  LIG1        0.0660
     34 H          -1.9839    3.1632   -3.3636 H       1  LIG1        0.0660
     35 H          -1.2384    1.6442   -3.9934 H       1  LIG1        0.0660
     36 H          -1.2224    3.1156   -4.9602 H       1  LIG1        0.0660
     37 H          -1.3720    1.4935   -1.8075 H       1  LIG1        0.0659
     38 H          -0.1501   -1.6749    4.0296 H       1  LIG1        0.0692
     39 H          -1.4765   -4.9628    4.1792 H       1  LIG1        0.2923
     40 H          -3.1497   -6.8880    1.4327 H       1  LIG1        0.0660
     41 H          -2.2869   -5.8645    0.2838 H       1  LIG1        0.0660
     42 H          -3.8813   -5.3463    0.9579 H       1  LIG1        0.0660
     43 H          -2.4122   -3.6238    0.0169 H       1  LIG1        0.0659
     44 H           0.7788   -1.6147   -0.8088 H       1  LIG1        0.0237
     45 H          -0.1573   -0.9367   -2.1548 H       1  LIG1        0.0237
     46 H          -0.4803   -2.5720   -1.5935 H       1  LIG1        0.0237
     47 H           1.5910    1.1565    1.2400 H       1  LIG1        0.0659
@<TRIPOS>BOND
     1     1     2    1
     2     2     3    1
     3     3     4   ar
     4     4     5    1
     5     5     6    1
     6     4     7   ar
     7     7     8    1
     8     8     9    1
     9     7    10   ar
    10    10    11   ar
    11    11    12    1
    12    12    13    1
    13    12    14    1
    14    14    15    1
    15    15    16   ar
    16    16    17   ar
    17    17    18    1
    18    17    19   ar
    19    19    20    1
    20    20    21    1
    21    19    22   ar
    22    22    23   ar
    23    15    23   ar
    24    23    24    1
    25    12    24    1
    26    11    27   ar
    27     3    27   ar
    28    24    26    1
    29    24    25    1
    30     1    28    1
    31     1    29    1
    32     1    30    1
    33     6    31    1
    34     6    32    1
    35     6    33    1
    36     9    34    1
    37     9    35    1
    38     9    36    1
    39    10    37    1
    40    16    38    1
    41    18    39    1
    42    21    40    1
    43    21    41    1
    44    21    42    1
    45    22    43    1
    46    26    44    1
    47    26    45    1
    48    26    46    1
    49    27    47    1
