@<TRIPOS>MOLECULE
NuBBE_1427
 43 44 0 0 0
SMALL
GASTEIGER

@<TRIPOS>ATOM
      1 C           0.5872    0.1356    2.1003 C.3     1  LIG1       -0.0566
      2 C           1.1981    0.3805    0.6947 C.3     1  LIG1        0.0028
      3 C           0.1894    1.0937   -0.2624 C.3     1  LIG1        0.0139
      4 C          -1.0316    0.1960   -0.6135 C.3     1  LIG1        0.0653
      5 H          -1.6619    0.0685    0.2723 H       1  LIG1        0.0602
      6 O          -1.8112    0.8620   -1.6149 O.3     1  LIG1       -0.3909
      7 C          -0.5957   -1.1805   -1.1816 C.3     1  LIG1       -0.0120
      8 H          -0.0627   -0.9738   -2.1225 H       1  LIG1        0.0328
      9 C          -1.8023   -2.0882   -1.5807 C.3     1  LIG1       -0.0415
     10 H          -2.4154   -1.5327   -2.3017 H       1  LIG1        0.0299
     11 C          -1.3485   -3.3600   -2.3081 C.3     1  LIG1       -0.0623
     12 C          -2.7128   -2.4681   -0.4098 C.3     1  LIG1       -0.0623
     13 C           0.4000   -1.8783   -0.2425 C.3     1  LIG1       -0.0470
     14 C           1.5960   -0.9867    0.0873 C.3     1  LIG1       -0.0443
     15 H           0.7000    1.2713   -1.2232 H       1  LIG1        0.0377
     16 C          -0.1071    2.4954    0.2856 C.2     1  LIG1       -0.0704
     17 C           1.1213    3.3711    0.3886 C.3     1  LIG1       -0.0293
     18 C           2.1907    2.7093    1.2507 C.3     1  LIG1       -0.0226
     19 C           2.4779    1.2703    0.8051 C.3     1  LIG1        0.0615
     20 H           2.9584    1.3162   -0.1810 H       1  LIG1        0.0599
     21 O           3.4418    0.6901    1.6837 O.3     1  LIG1       -0.3912
     22 C          -1.3115    2.9573    0.6599 C.2     1  LIG1       -0.0991
     23 H          -0.3541   -0.4194    2.0534 H       1  LIG1        0.0236
     24 H           0.3745    1.0685    2.6304 H       1  LIG1        0.0236
     25 H           1.2676   -0.4478    2.7308 H       1  LIG1        0.0236
     26 H          -2.7078    0.4891   -1.5870 H       1  LIG1        0.2098
     27 H          -2.2113   -3.8846   -2.7334 H       1  LIG1        0.0232
     28 H          -0.8418   -4.0583   -1.6347 H       1  LIG1        0.0232
     29 H          -0.6693   -3.1188   -3.1323 H       1  LIG1        0.0232
     30 H          -3.5552   -3.0736   -0.7630 H       1  LIG1        0.0232
     31 H          -3.1359   -1.5843    0.0754 H       1  LIG1        0.0232
     32 H          -2.1820   -3.0552    0.3456 H       1  LIG1        0.0232
     33 H           0.7857   -2.7907   -0.7104 H       1  LIG1        0.0269
     34 H          -0.0940   -2.1915    0.6828 H       1  LIG1        0.0269
     35 H           2.1691   -0.8249   -0.8356 H       1  LIG1        0.0272
     36 H           2.2626   -1.5293    0.7694 H       1  LIG1        0.0272
     37 H           0.8813    4.3561    0.8063 H       1  LIG1        0.0311
     38 H           1.5159    3.5477   -0.6199 H       1  LIG1        0.0311
     39 H           1.8916    2.7298    2.3061 H       1  LIG1        0.0293
     40 H           3.1174    3.2953    1.2064 H       1  LIG1        0.0293
     41 H           3.1351    0.8173    2.5973 H       1  LIG1        0.2098
     42 H          -2.2117    2.3573    0.5906 H       1  LIG1        0.0535
     43 H          -1.4379    3.9686    1.0355 H       1  LIG1        0.0535
@<TRIPOS>BOND
     1     2     3    1
     2     3     4    1
     3     4     7    1
     4     9    10    1
     5     9    11    1
     6     9    12    1
     7     7    13    1
     8    13    14    1
     9     2    14    1
    10     3    16    1
    11    16    17    1
    12    17    18    1
    13    18    19    1
    14     2    19    1
    15     1     2    1
    16     3    15    1
    17     7     8    1
    18     7     9    1
    19    16    22    2
    20    19    20    1
    21    19    21    1
    22     4     6    1
    23     4     5    1
    24     1    23    1
    25     1    24    1
    26     1    25    1
    27     6    26    1
    28    11    27    1
    29    11    28    1
    30    11    29    1
    31    12    30    1
    32    12    31    1
    33    12    32    1
    34    13    33    1
    35    13    34    1
    36    14    35    1
    37    14    36    1
    38    17    37    1
    39    17    38    1
    40    18    39    1
    41    18    40    1
    42    21    41    1
    43    22    42    1
    44    22    43    1
