REMARK  Name = NuBBE_2452
REMARK  3 active torsions:
REMARK  status: ('A' for Active; 'I' for Inactive)
REMARK    1  A    between atoms: C_6  and  C_8
REMARK    2  A    between atoms: C_11  and  O_14
REMARK    3  A    between atoms: C_16  and  O_19
REMARK                            x       y       z     vdW  Elec       q    Type
REMARK                         _______ _______ _______ _____ _____    ______ ____
ROOT
ATOM      1  O   LIG A   1      -3.574  -0.909   0.554  0.00  0.00    -0.292 OA
ATOM      2  C   LIG A   1      -2.356  -0.819   0.448  0.00  0.00    +0.171 C 
ATOM      3  C   LIG A   1      -1.518  -2.021   0.258  0.00  0.00    +0.059 A 
ATOM      4  C   LIG A   1      -0.135  -1.864   0.132  0.00  0.00    +0.135 A 
ATOM      5  O   LIG A   1       0.489  -0.644   0.134  0.00  0.00    -0.483 OA
ATOM      6  C   LIG A   1      -0.378   0.421  -0.292  0.00  0.00    +0.211 C 
ATOM      7  C   LIG A   1      -1.627   0.489   0.577  0.00  0.00    +0.129 C 
ATOM      8  C   LIG A   1       0.687  -2.985   0.021  0.00  0.00    +0.091 A 
ATOM      9  C   LIG A   1       0.110  -4.252   0.003  0.00  0.00    +0.120 A 
ATOM     10  C   LIG A   1      -1.269  -4.415   0.107  0.00  0.00    +0.046 A 
ATOM     11  C   LIG A   1      -2.091  -3.295   0.240  0.00  0.00    +0.018 A 
ENDROOT
BRANCH   6  12
ATOM     12  C   LIG A   1       0.409   1.717  -0.231  0.00  0.00    -0.007 A 
ATOM     13  C   LIG A   1       0.486   2.551  -1.359  0.00  0.00    +0.011 A 
ATOM     14  C   LIG A   1       1.202   3.750  -1.313  0.00  0.00    +0.046 A 
ATOM     15  C   LIG A   1       1.843   4.120  -0.136  0.00  0.00    +0.117 A 
ATOM     16  C   LIG A   1       1.780   3.312   0.992  0.00  0.00    +0.046 A 
ATOM     17  C   LIG A   1       1.067   2.113   0.945  0.00  0.00    +0.011 A 
BRANCH  15  18
ATOM     18  O   LIG A   1       2.553   5.280  -0.047  0.00  0.00    -0.507 OA
ATOM     19  H   LIG A   1       2.518   5.732  -0.906  0.00  0.00    +0.292 HD
ENDBRANCH  15  18
ENDBRANCH   6  12
BRANCH   9  20
ATOM     20  O   LIG A   1       0.872  -5.377  -0.117  0.00  0.00    -0.507 OA
ATOM     21  H   LIG A   1       1.808  -5.120  -0.169  0.00  0.00    +0.292 HD
ENDBRANCH   9  20
TORSDOF 3
