@<TRIPOS>MOLECULE
NuBBE_1613
 41 43 0 0 0
SMALL
GASTEIGER

@<TRIPOS>ATOM
      1 O          -3.0619    0.0246   -0.0533 O.2     1  LIG1       -0.2864
      2 C          -1.8390    0.0472   -0.0495 C.ar    1  LIG1        0.2008
      3 C          -1.0706   -1.2252   -0.0558 C.ar    1  LIG1        0.0908
      4 C           0.3272   -1.1518   -0.0645 C.ar    1  LIG1        0.0579
      5 N           0.9675    0.0919    0.0023 N.ar    1  LIG1       -0.3508
      6 H           1.9643    0.1576   -0.1740 H       1  LIG1        0.1660
      7 C           0.2820    1.3246   -0.0266 C.ar    1  LIG1        0.0965
      8 C          -1.1163    1.3340   -0.0367 C.ar    1  LIG1        0.0495
      9 C          -1.8272    2.5282   -0.0345 C.ar    1  LIG1       -0.0452
     10 C          -1.1344    3.7383    0.0074 C.ar    1  LIG1       -0.0155
     11 C           0.2679    3.7644    0.0643 C.ar    1  LIG1        0.1636
     12 C           0.9817    2.5458    0.0499 C.ar    1  LIG1        0.1855
     13 O           2.3510    2.3907    0.0556 O.3     1  LIG1       -0.4895
     14 C           3.1158    3.3941    0.7104 C.3     1  LIG1        0.0791
     15 O           0.9865    4.9284    0.1230 O.3     1  LIG1       -0.4914
     16 C           0.2764    6.1596    0.1620 C.3     1  LIG1        0.0790
     17 C           1.0658   -2.3369   -0.0460 C.ar    1  LIG1        0.0080
     18 C           0.4222   -3.5841   -0.0661 C.ar    1  LIG1        0.1672
     19 C          -0.9925   -3.6516   -0.0818 C.ar    1  LIG1        0.2041
     20 C          -1.7351   -2.4599   -0.0543 C.ar    1  LIG1        0.1752
     21 O          -3.1060   -2.5006    0.0062 O.3     1  LIG1       -0.5027
     22 O          -1.5327   -4.9182   -0.0774 O.3     1  LIG1       -0.4885
     23 C          -2.8279   -5.0668   -0.6519 C.3     1  LIG1        0.0791
     24 O           1.0949   -4.7850   -0.0824 O.3     1  LIG1       -0.4913
     25 C           2.5176   -4.7484   -0.0813 C.3     1  LIG1        0.0790
     26 H          -2.9143    2.5234   -0.0599 H       1  LIG1        0.0626
     27 H          -1.7305    4.6448   -0.0035 H       1  LIG1        0.0655
     28 H           4.0937    2.9614    0.9436 H       1  LIG1        0.0660
     29 H           2.6628    3.7068    1.6572 H       1  LIG1        0.0660
     30 H           3.2915    4.2419    0.0420 H       1  LIG1        0.0660
     31 H           0.9966    6.9507    0.3903 H       1  LIG1        0.0660
     32 H          -0.4803    6.1754    0.9535 H       1  LIG1        0.0660
     33 H          -0.1658    6.3736   -0.8160 H       1  LIG1        0.0660
     34 H           2.1474   -2.2646   -0.0157 H       1  LIG1        0.0676
     35 H          -3.4515   -1.5789    0.0152 H       1  LIG1        0.2923
     36 H          -3.0153   -6.1355   -0.7905 H       1  LIG1        0.0660
     37 H          -2.8886   -4.5887   -1.6364 H       1  LIG1        0.0660
     38 H          -3.6108   -4.7085    0.0230 H       1  LIG1        0.0660
     39 H           2.8978   -4.3305    0.8571 H       1  LIG1        0.0660
     40 H           2.9056   -4.1959   -0.9442 H       1  LIG1        0.0660
     41 H           2.8846   -5.7763   -0.1608 H       1  LIG1        0.0660
@<TRIPOS>BOND
     1     1     2    2
     2     2     3   ar
     3     3     4   ar
     4     4     5   ar
     5     5     6    1
     6     5     7   ar
     7     7     8   ar
     8     2     8   ar
     9     8     9   ar
    10     9    10   ar
    11    10    11   ar
    12    11    12   ar
    13     7    12   ar
    14    12    13    1
    15    13    14    1
    16    11    15    1
    17    15    16    1
    18     4    17   ar
    19    17    18   ar
    20    18    19   ar
    21    19    20   ar
    22     3    20   ar
    23    20    21    1
    24    19    22    1
    25    22    23    1
    26    18    24    1
    27    24    25    1
    28     9    26    1
    29    10    27    1
    30    14    28    1
    31    14    29    1
    32    14    30    1
    33    16    31    1
    34    16    32    1
    35    16    33    1
    36    17    34    1
    37    21    35    1
    38    23    36    1
    39    23    37    1
    40    23    38    1
    41    25    39    1
    42    25    40    1
    43    25    41    1
