REMARK  Name = NuBBE_2402
REMARK  2 active torsions:
REMARK  status: ('A' for Active; 'I' for Inactive)
REMARK    1  A    between atoms: O_1  and  C_2
REMARK    2  A    between atoms: O_1  and  C_3
REMARK                            x       y       z     vdW  Elec       q    Type
REMARK                         _______ _______ _______ _____ _____    ______ ____
ROOT
ATOM      1  C   LIG A   1      -4.187   0.629   0.051  0.00  0.00    +0.124 A 
ATOM      2  C   LIG A   1      -3.602  -0.642   0.064  0.00  0.00    +0.092 A 
ATOM      3  C   LIG A   1      -2.214  -0.783   0.048  0.00  0.00    +0.135 A 
ATOM      4  C   LIG A   1      -1.404   0.365   0.026  0.00  0.00    +0.059 A 
ATOM      5  C   LIG A   1      -1.979   1.634   0.017  0.00  0.00    +0.019 A 
ATOM      6  C   LIG A   1      -3.372   1.765   0.029  0.00  0.00    +0.046 A 
ATOM      7  C   LIG A   1       0.006   0.117   0.013  0.00  0.00    +0.146 A 
ATOM      8  C   LIG A   1       0.567  -1.128  -0.003  0.00  0.00    +0.043 A 
ATOM      9  C   LIG A   1      -0.299  -2.325  -0.016  0.00  0.00    +0.268 C 
ATOM     10  O   LIG A   1      -1.734  -2.076   0.065  0.00  0.00    -0.486 OA
ATOM     11  C   LIG A   1       1.969  -0.926  -0.013  0.00  0.00    +0.031 A 
ATOM     12  C   LIG A   1       2.141   0.469   0.001  0.00  0.00    +0.140 A 
ATOM     13  O   LIG A   1       0.927   1.103   0.016  0.00  0.00    -0.454 OA
ATOM     14  C   LIG A   1       3.379   1.114  -0.003  0.00  0.00    +0.096 A 
ATOM     15  C   LIG A   1       4.463   0.256  -0.023  0.00  0.00    +0.170 A 
ATOM     16  C   LIG A   1       4.335  -1.115  -0.037  0.00  0.00    +0.167 A 
ATOM     17  C   LIG A   1       3.106  -1.757  -0.033  0.00  0.00    +0.061 A 
ATOM     18  O   LIG A   1       5.541  -1.748  -0.057  0.00  0.00    -0.453 OA
ATOM     19  C   LIG A   1       6.442  -0.622  -0.054  0.00  0.00    +0.466 C 
ATOM     20  O   LIG A   1       5.767   0.652  -0.032  0.00  0.00    -0.453 OA
ENDROOT
BRANCH   1  21
ATOM     21  O   LIG A   1      -5.556   0.625   0.065  0.00  0.00    -0.495 OA
ATOM     22  C   LIG A   1      -6.205   1.889   0.019  0.00  0.00    +0.277 C 
ENDBRANCH   1  21
TORSDOF 1
