@<TRIPOS>MOLECULE
NuBBE_63
 74 78 0 0 0
SMALL
GASTEIGER

@<TRIPOS>ATOM
      1 O          -0.9193   -8.6279   -1.3637 O.3     1  LIG1       -0.5068
      2 C          -0.6756   -7.5468   -0.5696 C.ar    1  LIG1        0.1169
      3 C          -1.6642   -6.6125   -0.2864 C.ar    1  LIG1       -0.0198
      4 C          -1.3701   -5.5305    0.5522 C.ar    1  LIG1       -0.0516
      5 C          -0.0927   -5.3834    1.1255 C.ar    1  LIG1       -0.0067
      6 C           0.2225   -4.2540    2.0994 C.3     1  LIG1        0.1322
      7 C          -0.6914   -4.3326    3.3141 C.3     1  LIG1        0.0520
      8 C          -0.3944   -3.1787    4.2222 C.2     1  LIG1        0.1740
      9 C          -0.0974   -1.8936    3.5580 C.ar    1  LIG1        0.1010
     10 C          -0.1383   -0.7031    4.2898 C.ar    1  LIG1        0.1343
     11 C           0.0790    0.5100    3.6530 C.ar    1  LIG1        0.0226
     12 C           0.4072    0.5280    2.2999 C.ar    1  LIG1        0.1296
     13 C           0.5092   -0.6536    1.5418 C.ar    1  LIG1        0.0676
     14 C           1.0021   -0.6453    0.0972 C.3     1  LIG1        0.1193
     15 H           1.5514   -1.5808   -0.0630 H       1  LIG1        0.0676
     16 O           1.9476    0.4450   -0.0404 O.3     1  LIG1       -0.3609
     17 C           2.4349    0.6990   -1.3771 C.3     1  LIG1        0.1112
     18 H           3.5276    0.6295   -1.2903 H       1  LIG1        0.0646
     19 C           1.9821   -0.3161   -2.4422 C.3     1  LIG1        0.1118
     20 H           2.2526    0.0481   -3.4397 H       1  LIG1        0.0647
     21 C           0.4871   -0.6520   -2.3533 C.3     1  LIG1        0.1121
     22 H           0.3411   -1.6959   -2.6587 H       1  LIG1        0.0647
     23 O          -0.2566    0.1243   -3.3046 O.3     1  LIG1       -0.3865
     24 O           2.7453   -1.5247   -2.2440 O.3     1  LIG1       -0.3865
     25 C           2.1180    2.1580   -1.7857 C.3     1  LIG1        0.0795
     26 O           0.7120    2.4310   -1.7785 O.3     1  LIG1       -0.3461
     27 C           0.4103    3.7528   -2.2595 C.3     1  LIG1        0.1880
     28 H           0.9152    3.8965   -3.2233 H       1  LIG1        0.0937
     29 O           0.9525    4.7252   -1.3631 O.3     1  LIG1       -0.3405
     30 C           0.1027    5.8510   -1.1070 C.3     1  LIG1        0.1130
     31 H          -0.1520    6.3546   -2.0473 H       1  LIG1        0.0647
     32 C          -1.1556    5.3441   -0.3928 C.3     1  LIG1        0.1119
     33 H          -0.8530    4.8600    0.5442 H       1  LIG1        0.0647
     34 C          -1.9131    4.3219   -1.2658 C.3     1  LIG1        0.1141
     35 H          -2.8534    4.7749   -1.6057 H       1  LIG1        0.0648
     36 O          -2.3160    3.2320   -0.4232 O.3     1  LIG1       -0.3864
     37 O          -2.0308    6.4163   -0.0156 O.3     1  LIG1       -0.3865
     38 C           0.8939    6.8598   -0.2554 C.3     1  LIG1        0.0730
     39 O           0.1811    8.0563    0.0336 O.3     1  LIG1       -0.3924
     40 C          -1.1211    3.8579   -2.5054 C.3     1  LIG1        0.1341
     41 H          -1.5004    2.8931   -2.8626 H       1  LIG1        0.0671
     42 O          -1.3534    4.7986   -3.5763 O.3     1  LIG1       -0.3841
     43 C          -0.1090   -0.4478   -0.9458 C.3     1  LIG1        0.1139
     44 H          -0.5172    0.5641   -0.8597 H       1  LIG1        0.0649
     45 O          -1.2394   -1.3200   -0.8281 O.3     1  LIG1       -0.3862
     46 C           0.1886   -1.8737    2.1852 C.ar    1  LIG1        0.1446
     47 O           0.1086   -3.0023    1.4004 O.3     1  LIG1       -0.4825
     48 O           0.6360    1.7650    1.7632 O.3     1  LIG1       -0.5062
     49 O          -0.4119   -0.6529    5.6295 O.3     1  LIG1       -0.5058
     50 O          -0.4708   -3.2464    5.4321 O.2     1  LIG1       -0.2917
     51 C           0.8920   -6.3314    0.8038 C.ar    1  LIG1       -0.0516
     52 C           0.6012   -7.4059   -0.0425 C.ar    1  LIG1       -0.0198
     53 H          -1.8647   -8.6474   -1.5851 H       1  LIG1        0.2921
     54 H          -2.6615   -6.7069   -0.7053 H       1  LIG1        0.0654
     55 H          -2.1544   -4.8054    0.7597 H       1  LIG1        0.0623
     56 H           1.2696   -4.3459    2.4217 H       1  LIG1        0.0789
     57 H          -0.5184   -5.2680    3.8632 H       1  LIG1        0.0385
     58 H          -1.7547   -4.2728    3.0582 H       1  LIG1        0.0385
     59 H           0.0220    1.4398    4.2128 H       1  LIG1        0.0691
     60 H          -1.1923   -0.0931   -3.1364 H       1  LIG1        0.2100
     61 H           2.6216   -2.0812   -3.0348 H       1  LIG1        0.2100
     62 H           2.5975    2.8338   -1.0704 H       1  LIG1        0.0587
     63 H           2.5301    2.3488   -2.7846 H       1  LIG1        0.0587
     64 H          -2.4695    2.4454   -0.9722 H       1  LIG1        0.2100
     65 H          -2.7793    6.0061    0.4576 H       1  LIG1        0.2100
     66 H           1.2146    6.4108    0.6902 H       1  LIG1        0.0584
     67 H           1.8055    7.1457   -0.7909 H       1  LIG1        0.0584
     68 H          -0.5918    7.7970    0.5751 H       1  LIG1        0.2095
     69 H          -2.2962    4.7612   -3.8169 H       1  LIG1        0.2101
     70 H          -1.6519   -1.1319    0.0342 H       1  LIG1        0.2100
     71 H           1.1736    1.6414    0.9537 H       1  LIG1        0.2922
     72 H          -0.4685   -1.5748    5.9697 H       1  LIG1        0.2922
     73 H           1.8959   -6.2505    1.2146 H       1  LIG1        0.0623
     74 H           1.3682   -8.1373   -0.2825 H       1  LIG1        0.0654
@<TRIPOS>BOND
     1     1     2    1
     2     2     3   ar
     3     3     4   ar
     4     4     5   ar
     5     5     6    1
     6     6     7    1
     7     7     8    1
     8     8     9    1
     9     9    10   ar
    10    10    11   ar
    11    11    12   ar
    12    12    13   ar
    13    13    14    1
    14    14    15    1
    15    14    16    1
    16    16    17    1
    17    17    19    1
    18    19    20    1
    19    19    21    1
    20    19    24    1
    21    25    26    1
    22    26    27    1
    23    27    28    1
    24    27    29    1
    25    29    30    1
    26    30    32    1
    27    32    33    1
    28    32    34    1
    29    32    37    1
    30    38    39    1
    31    27    40    1
    32    34    40    1
    33    14    43    1
    34    21    43    1
    35    13    46   ar
    36     9    46   ar
    37    46    47    1
    38     6    47    1
    39    12    48    1
    40    10    49    1
    41     8    50    2
    42     5    51   ar
    43    51    52   ar
    44     2    52   ar
    45    17    25    1
    46    17    18    1
    47    21    23    1
    48    21    22    1
    49    30    38    1
    50    30    31    1
    51    34    36    1
    52    34    35    1
    53    40    42    1
    54    40    41    1
    55    43    45    1
    56    43    44    1
    57     1    53    1
    58     3    54    1
    59     4    55    1
    60     6    56    1
    61     7    57    1
    62     7    58    1
    63    11    59    1
    64    23    60    1
    65    24    61    1
    66    25    62    1
    67    25    63    1
    68    36    64    1
    69    37    65    1
    70    38    66    1
    71    38    67    1
    72    39    68    1
    73    42    69    1
    74    45    70    1
    75    48    71    1
    76    49    72    1
    77    51    73    1
    78    52    74    1
