REMARK  Name = NuBBE_2088
REMARK  9 active torsions:
REMARK  status: ('A' for Active; 'I' for Inactive)
REMARK    1  A    between atoms: C_1  and  O_2
REMARK    2  A    between atoms: O_2  and  C_3
REMARK    3  A    between atoms: C_10  and  C_11
REMARK    4  A    between atoms: C_13  and  O_14
REMARK    5  A    between atoms: C_19  and  O_20
REMARK    6  A    between atoms: C_21  and  C_22
REMARK    7  A    between atoms: C_23  and  C_24
REMARK    8  A    between atoms: C_24  and  C_25
REMARK    9  A    between atoms: C_24  and  C_26
REMARK                            x       y       z     vdW  Elec       q    Type
REMARK                         _______ _______ _______ _____ _____    ______ ____
ROOT
ATOM      1  C   LIG A   1      -1.000  -0.553  -1.361  0.00  0.00    +0.131 A 
ATOM      2  C   LIG A   1      -0.396  -1.498  -0.529  0.00  0.00    +0.059 A 
ATOM      3  C   LIG A   1       0.294  -1.103   0.623  0.00  0.00    +0.040 A 
ATOM      4  C   LIG A   1       0.911  -2.146   1.456  0.00  0.00    +0.195 C 
ATOM      5  O   LIG A   1       0.835  -3.322   1.127  0.00  0.00    -0.287 OA
ATOM      6  C   LIG A   1       1.622  -1.764   2.686  0.00  0.00    +0.037 A 
ATOM      7  C   LIG A   1       2.198  -2.785   3.459  0.00  0.00    +0.016 A 
ATOM      8  C   LIG A   1       2.885  -2.483   4.636  0.00  0.00    -0.046 A 
ATOM      9  C   LIG A   1       3.497  -3.573   5.466  0.00  0.00    +0.044 C 
ATOM     10  C   LIG A   1       2.979  -1.147   5.034  0.00  0.00    +0.049 A 
ATOM     11  C   LIG A   1       2.403  -0.129   4.260  0.00  0.00    +0.129 A 
ATOM     12  C   LIG A   1       1.719  -0.426   3.071  0.00  0.00    +0.074 A 
ATOM     13  C   LIG A   1       1.101   0.624   2.211  0.00  0.00    +0.202 C 
ATOM     14  O   LIG A   1       1.159   1.819   2.478  0.00  0.00    -0.286 OA
ATOM     15  C   LIG A   1       0.381   0.237   0.972  0.00  0.00    +0.075 A 
ATOM     16  C   LIG A   1      -0.236   1.196   0.142  0.00  0.00    +0.139 A 
ATOM     17  C   LIG A   1      -0.928   0.821  -1.037  0.00  0.00    +0.059 A 
ENDROOT
BRANCH   1  19
ATOM     18  C   LIG A   1      -1.345  -2.125  -3.113  0.00  0.00    +0.277 C 
ATOM     19  O   LIG A   1      -1.749  -0.931  -2.450  0.00  0.00    -0.494 OA
ENDBRANCH   1  19
BRANCH  11  20
ATOM     20  O   LIG A   1       2.524   1.160   4.695  0.00  0.00    -0.506 OA
ATOM     21  H   LIG A   1       3.022   1.194   5.527  0.00  0.00    +0.292 HD
ENDBRANCH  11  20
BRANCH  16  22
ATOM     22  O   LIG A   1      -0.188   2.538   0.457  0.00  0.00    -0.505 OA
ATOM     23  H   LIG A   1       0.335   2.648   1.285  0.00  0.00    +0.292 HD
ENDBRANCH  16  22
BRANCH  17  24
ATOM     24  C   LIG A   1      -1.631   1.864  -1.824  0.00  0.00    +0.011 C 
ATOM     25  C   LIG A   1      -1.741   1.902  -3.163  0.00  0.00    -0.023 C 
BRANCH  25  26
ATOM     26  C   LIG A   1      -2.585   2.911  -3.905  0.00  0.00    +0.005 C 
ATOM     27  C   LIG A   1      -1.741   3.748  -4.864  0.00  0.00    +0.011 C 
ATOM     28  C   LIG A   1      -3.696   2.186  -4.670  0.00  0.00    +0.011 C 
ENDBRANCH  25  26
ENDBRANCH  17  24
TORSDOF 5
