REMARK  Name = NuBBE_366
REMARK  10 active torsions:
REMARK  status: ('A' for Active; 'I' for Inactive)
REMARK    1  A    between atoms: C_1  and  C_2
REMARK    2  A    between atoms: C_3  and  C_38
REMARK    3  A    between atoms: C_8  and  C_9
REMARK    4  A    between atoms: C_8  and  C_37
REMARK    5  A    between atoms: C_10  and  O_36
REMARK    6  A    between atoms: C_14  and  C_35
REMARK    7  A    between atoms: C_22  and  C_23
REMARK    8  A    between atoms: C_23  and  O_24
REMARK    9  A    between atoms: C_29  and  C_34
REMARK   10  A    between atoms: C_31  and  C_33
REMARK                            x       y       z     vdW  Elec       q    Type
REMARK                         _______ _______ _______ _____ _____    ______ ____
ROOT
ATOM      1  C   LIG A   1      -2.936  -1.351   0.370  0.00  0.00    +0.016 C 
ATOM      2  C   LIG A   1      -1.514  -0.738   0.112  0.00  0.00    -0.005 C 
ATOM      3  C   LIG A   1      -1.007  -1.236  -1.368  0.00  0.00    -0.019 C 
ATOM      4  C   LIG A   1      -1.563  -0.360  -2.525  0.00  0.00    +0.008 C 
ATOM      5  C   LIG A   1      -0.714   0.844  -2.931  0.00  0.00    +0.005 C 
ATOM      6  C   LIG A   1       0.721   0.413  -3.278  0.00  0.00    +0.003 C 
ATOM      7  C   LIG A   1       1.545   1.469  -4.107  0.00  0.00    -0.006 C 
ATOM      8  C   LIG A   1       0.813   1.779  -5.444  0.00  0.00    +0.014 C 
ATOM      9  C   LIG A   1       2.916   0.834  -4.479  0.00  0.00    +0.120 C 
ATOM     10  C   LIG A   1       3.669   0.247  -3.291  0.00  0.00    +0.032 C 
ATOM     11  C   LIG A   1       2.825  -0.757  -2.507  0.00  0.00    +0.010 C 
ATOM     12  C   LIG A   1       1.442  -0.204  -2.022  0.00  0.00    -0.025 C 
ATOM     13  C   LIG A   1       0.555  -1.426  -1.513  0.00  0.00    +0.006 C 
ATOM     14  C   LIG A   1       1.117  -2.225  -0.320  0.00  0.00    +0.031 C 
ATOM     15  C   LIG A   1       0.543  -1.890   1.018  0.00  0.00    -0.026 C 
ATOM     16  C   LIG A   1      -0.568  -1.173   1.259  0.00  0.00    -0.063 C 
ATOM     17  C   LIG A   1      -1.002  -0.737   2.681  0.00  0.00    +0.027 C 
ATOM     18  C   LIG A   1      -1.194   0.818   2.784  0.00  0.00    +0.001 C 
ATOM     19  C   LIG A   1      -2.123   1.295   1.630  0.00  0.00    +0.010 C 
ATOM     20  C   LIG A   1      -1.684   0.803   0.240  0.00  0.00    +0.012 C 
ATOM     21  C   LIG A   1      -1.916   1.148   4.122  0.00  0.00    +0.010 C 
ATOM     22  C   LIG A   1      -1.266   0.526   5.359  0.00  0.00    +0.004 C 
ATOM     23  C   LIG A   1      -1.031  -0.990   5.240  0.00  0.00    -0.011 C 
ATOM     24  C   LIG A   1      -0.278  -1.357   3.928  0.00  0.00    -0.003 C 
ATOM     25  C   LIG A   1       1.218  -1.035   4.107  0.00  0.00    +0.008 C 
ATOM     26  C   LIG A   1      -2.348  -1.764   5.389  0.00  0.00    +0.008 C 
ATOM     27  C   LIG A   1       1.729   0.810  -0.899  0.00  0.00    +0.012 C 
ATOM     28  C   LIG A   1       1.714   2.825  -3.394  0.00  0.00    +0.014 C 
ATOM     29  C   LIG A   1      -1.593  -2.677  -1.655  0.00  0.00    +0.012 C 
ENDROOT
BRANCH   9  30
ATOM     30  O   LIG A   1       3.764   1.764  -5.151  0.00  0.00    -0.391 OA
ATOM     31  H   LIG A   1       4.076   2.417  -4.501  0.00  0.00    +0.210 HD
ENDBRANCH   9  30
BRANCH  18  32
ATOM     32  C   LIG A   1       0.150   1.593   2.711  0.00  0.00    +0.163 C 
BRANCH  32  33
ATOM     33  O   LIG A   1      -0.038   3.006   2.658  0.00  0.00    -0.394 OA
ATOM     34  H   LIG A   1      -0.212   3.242   1.732  0.00  0.00    +0.209 HD
ENDBRANCH  32  33
ENDBRANCH  18  32
TORSDOF 3
