@<TRIPOS>MOLECULE
NuBBE_2146
 52 51 0 0 0
SMALL
GASTEIGER

@<TRIPOS>ATOM
      1 O           3.0636    3.1029    5.7967 O.3     1  LIG1       -0.4806
      2 C           2.8642    3.8542    4.6729 C.2     1  LIG1        0.3047
      3 C           2.6735    5.2992    5.0648 C.3     1  LIG1        0.0448
      4 C           2.1389    6.1843    3.9181 C.3     1  LIG1       -0.0430
      5 C           0.7668    5.9164    3.1112 C.3     1  LIG1       -0.0526
      6 C           0.3351    4.6917    2.0395 C.3     1  LIG1       -0.0530
      7 C          -0.0787    3.1093    2.4097 C.3     1  LIG1       -0.0528
      8 C          -0.5487    2.0908    1.1220 C.3     1  LIG1       -0.0496
      9 C          -0.9301    0.4198    0.9504 C.3     1  LIG1       -0.0348
     10 C          -1.9228   -0.5190    1.6476 C.2     1  LIG1       -0.0876
     11 C          -2.0490   -1.8454    1.3385 C.2     1  LIG1       -0.0842
     12 C          -1.4565   -2.7196    0.1906 C.3     1  LIG1       -0.0165
     13 C           0.0170   -2.6019   -0.2230 C.2     1  LIG1       -0.0842
     14 C           0.6869   -2.8184   -1.4118 C.2     1  LIG1       -0.0876
     15 C           0.1253   -3.0879   -2.8959 C.3     1  LIG1       -0.0348
     16 C           0.6765   -3.9166   -4.2586 C.3     1  LIG1       -0.0496
     17 C          -0.4276   -4.3569   -5.4910 C.3     1  LIG1       -0.0530
     18 C          -1.7090   -5.2359   -5.1134 C.3     1  LIG1       -0.0559
     19 C          -2.5681   -5.9948   -6.1887 C.3     1  LIG1       -0.0653
     20 O           2.9734    3.4206    3.6007 O.2     1  LIG1       -0.2510
     21 H           3.2676    2.2131    5.4449 H       1  LIG1        0.2951
     22 H           3.7026    5.6090    5.3085 H       1  LIG1        0.0377
     23 H           2.1217    5.3981    6.0071 H       1  LIG1        0.0377
     24 H           2.9584    6.3436    3.2047 H       1  LIG1        0.0270
     25 H           2.0706    7.1925    4.3976 H       1  LIG1        0.0270
     26 H           0.7270    6.8278    2.4650 H       1  LIG1        0.0265
     27 H          -0.0692    6.0870    3.8006 H       1  LIG1        0.0265
     28 H           1.0744    4.6905    1.2277 H       1  LIG1        0.0265
     29 H          -0.5827    5.0867    1.5597 H       1  LIG1        0.0265
     30 H          -0.8906    3.1721    3.1439 H       1  LIG1        0.0265
     31 H           0.7942    2.6706    2.8915 H       1  LIG1        0.0265
     32 H           0.3205    2.1660    0.4494 H       1  LIG1        0.0268
     33 H          -1.3643    2.6164    0.6121 H       1  LIG1        0.0268
     34 H           0.0035   -0.1435    1.0489 H       1  LIG1        0.0307
     35 H          -1.1899    0.2828   -0.1260 H       1  LIG1        0.0307
     36 H          -2.5306   -0.1358    2.4704 H       1  LIG1        0.0569
     37 H          -2.7319   -2.4388    1.9751 H       1  LIG1        0.0572
     38 H          -2.1232   -2.6230   -0.6700 H       1  LIG1        0.0350
     39 H          -1.5506   -3.7544    0.5580 H       1  LIG1        0.0350
     40 H           0.6283   -2.3608    0.6576 H       1  LIG1        0.0572
     41 H           1.7722   -2.6812   -1.3080 H       1  LIG1        0.0569
     42 H           0.0447   -2.0586   -3.2714 H       1  LIG1        0.0307
     43 H          -0.8613   -3.4963   -2.7093 H       1  LIG1        0.0307
     44 H           1.2711   -4.8069   -4.0011 H       1  LIG1        0.0268
     45 H           1.4315   -3.2743   -4.7672 H       1  LIG1        0.0268
     46 H           0.1376   -4.8943   -6.2785 H       1  LIG1        0.0265
     47 H          -0.7396   -3.4432   -6.0302 H       1  LIG1        0.0265
     48 H          -2.4310   -4.5910   -4.5990 H       1  LIG1        0.0263
     49 H          -1.4100   -6.0081   -4.4003 H       1  LIG1        0.0263
     50 H          -2.9718   -5.3403   -6.9683 H       1  LIG1        0.0230
     51 H          -3.4498   -6.4582   -5.7016 H       1  LIG1        0.0230
     52 H          -2.0602   -6.8401   -6.6723 H       1  LIG1        0.0230
@<TRIPOS>BOND
     1     1     2    1
     2     2     3    1
     3     3     4    1
     4     4     5    1
     5     5     6    1
     6     6     7    1
     7     7     8    1
     8     8     9    1
     9     9    10    1
    10    10    11    2
    11    11    12    1
    12    12    13    1
    13    13    14    2
    14    14    15    1
    15    15    16    1
    16    16    17    1
    17    17    18    1
    18    18    19    1
    19     2    20    2
    20     1    21    1
    21     3    22    1
    22     3    23    1
    23     4    24    1
    24     4    25    1
    25     5    26    1
    26     5    27    1
    27     6    28    1
    28     6    29    1
    29     7    30    1
    30     7    31    1
    31     8    32    1
    32     8    33    1
    33     9    34    1
    34     9    35    1
    35    10    36    1
    36    11    37    1
    37    12    38    1
    38    12    39    1
    39    13    40    1
    40    14    41    1
    41    15    42    1
    42    15    43    1
    43    16    44    1
    44    16    45    1
    45    17    46    1
    46    17    47    1
    47    18    48    1
    48    18    49    1
    49    19    50    1
    50    19    51    1
    51    19    52    1
