@<TRIPOS>MOLECULE
NuBBE_1791
 46 46 0 0 0
SMALL
GASTEIGER

@<TRIPOS>ATOM
      1 O           0.3800    5.0071    0.9839 O.2     1  LIG1       -0.2505
      2 C           0.3733    3.8179    1.2492 C.2     1  LIG1        0.3111
      3 C           0.9502    3.2112    2.5008 C.3     1  LIG1        0.0698
      4 C           0.2551    3.6846    3.7770 C.3     1  LIG1        0.0578
      5 C          -1.2109    3.4001    3.8889 C.2     1  LIG1        0.3055
      6 O          -1.6842    3.5535    5.1197 O.3     1  LIG1       -0.4806
      7 O          -1.9983    3.0582    2.9770 O.2     1  LIG1       -0.2510
      8 C           0.8774    1.7240    2.2190 C.3     1  LIG1       -0.0022
      9 C          -0.1935    1.6151    1.1564 C.3     1  LIG1        0.1039
     10 C          -0.0306    0.4281    0.2232 C.3     1  LIG1       -0.0156
     11 C          -0.1228   -0.9091    0.9740 C.3     1  LIG1       -0.0497
     12 C          -0.0083   -2.1487    0.0855 C.3     1  LIG1       -0.0529
     13 C           1.3001   -2.2120   -0.6966 C.3     1  LIG1       -0.0531
     14 C           1.4303   -3.3172   -1.7490 C.3     1  LIG1       -0.0530
     15 C           0.4530   -3.3779   -2.9256 C.3     1  LIG1       -0.0528
     16 C           0.3809   -2.1627   -3.8638 C.3     1  LIG1       -0.0496
     17 C          -0.0748   -0.8048   -3.3202 C.3     1  LIG1       -0.0350
     18 C          -1.4734   -0.7016   -2.7618 C.2     1  LIG1       -0.0911
     19 C          -2.2667   -1.6605   -2.2643 C.2     1  LIG1       -0.1026
     20 O          -0.1192    2.8429    0.4293 O.3     1  LIG1       -0.4611
     21 H           2.0049    3.5003    2.5535 H       1  LIG1        0.0420
     22 H           0.3737    4.7694    3.8753 H       1  LIG1        0.0385
     23 H           0.7498    3.2062    4.6316 H       1  LIG1        0.0385
     24 H          -2.6416    3.3538    5.0419 H       1  LIG1        0.2951
     25 H           0.6695    1.1112    3.1002 H       1  LIG1        0.0309
     26 H           1.8440    1.3954    1.8125 H       1  LIG1        0.0309
     27 H          -1.1928    1.5359    1.5881 H       1  LIG1        0.0734
     28 H           0.9111    0.5332   -0.3235 H       1  LIG1        0.0301
     29 H          -0.8232    0.4983   -0.5268 H       1  LIG1        0.0301
     30 H          -1.0908   -0.9497    1.4917 H       1  LIG1        0.0266
     31 H           0.6553   -0.9664    1.7396 H       1  LIG1        0.0266
     32 H          -0.8683   -2.1497   -0.5559 H       1  LIG1        0.0265
     33 H          -0.1238   -3.0554    0.6898 H       1  LIG1        0.0265
     34 H           2.0942   -2.3580    0.0430 H       1  LIG1        0.0265
     35 H           1.5443   -1.2601   -1.1601 H       1  LIG1        0.0265
     36 H           1.3739   -4.2799   -1.2275 H       1  LIG1        0.0265
     37 H           2.4403   -3.2506   -2.1697 H       1  LIG1        0.0265
     38 H          -0.5193   -3.6934   -2.5607 H       1  LIG1        0.0265
     39 H           0.7410   -4.2350   -3.5536 H       1  LIG1        0.0265
     40 H          -0.2967   -2.4106   -4.6920 H       1  LIG1        0.0268
     41 H           1.3702   -2.0342   -4.3244 H       1  LIG1        0.0268
     42 H          -0.0242   -0.0872   -4.1512 H       1  LIG1        0.0307
     43 H           0.6556   -0.3948   -2.6185 H       1  LIG1        0.0307
     44 H          -1.8690    0.3126   -2.7393 H       1  LIG1        0.0566
     45 H          -1.9700   -2.6915   -2.1574 H       1  LIG1        0.0532
     46 H          -3.2258   -1.4481   -1.8092 H       1  LIG1        0.0532
@<TRIPOS>BOND
     1     1     2    2
     2     2     3    1
     3     3     4    1
     4     4     5    1
     5     5     6    1
     6     5     7    2
     7     3     8    1
     8     8     9    1
     9     9    10    1
    10    10    11    1
    11    11    12    1
    12    12    13    1
    13    13    14    1
    14    14    15    1
    15    15    16    1
    16    16    17    1
    17    17    18    1
    18    18    19    2
    19     9    20    1
    20     2    20    1
    21     3    21    1
    22     4    22    1
    23     4    23    1
    24     6    24    1
    25     8    25    1
    26     8    26    1
    27     9    27    1
    28    10    28    1
    29    10    29    1
    30    11    30    1
    31    11    31    1
    32    12    32    1
    33    12    33    1
    34    13    34    1
    35    13    35    1
    36    14    36    1
    37    14    37    1
    38    15    38    1
    39    15    39    1
    40    16    40    1
    41    16    41    1
    42    17    42    1
    43    17    43    1
    44    18    44    1
    45    19    45    1
    46    19    46    1
