@<TRIPOS>MOLECULE
NuBBE_1936
 39 40 0 0 0
SMALL
GASTEIGER

@<TRIPOS>ATOM
      1 C           1.8892   -0.7513    0.4235 C.3     1  LIG1       -0.0590
      2 C           1.0646    0.5235    0.1301 C.3     1  LIG1       -0.0253
      3 C          -0.5368    0.3446    0.0116 C.3     1  LIG1        0.0003
      4 C          -1.0080   -0.6828   -1.0720 C.3     1  LIG1       -0.0392
      5 C          -0.7423   -2.1633   -0.7689 C.3     1  LIG1       -0.0312
      6 C          -0.7549   -2.5242    0.6929 C.2     1  LIG1       -0.0765
      7 C          -0.4213   -3.9458    1.0421 C.3     1  LIG1       -0.0438
      8 C          -0.9815   -1.6101    1.6459 C.2     1  LIG1       -0.0842
      9 C          -1.1920   -0.1537    1.3470 C.3     1  LIG1       -0.0247
     10 C          -1.1053    1.7362   -0.4310 C.2     1  LIG1       -0.0696
     11 C          -0.5149    2.3134   -1.7049 C.3     1  LIG1       -0.0314
     12 C           1.0013    2.4133   -1.6250 C.3     1  LIG1       -0.0488
     13 C           1.6355    1.0932   -1.2036 C.3     1  LIG1       -0.0468
     14 C          -2.0324    2.4568    0.2276 C.2     1  LIG1       -0.0989
     15 C           1.4304    1.5010    1.2851 C.3     1  LIG1       -0.0590
     16 H           1.8462   -1.4755   -0.3907 H       1  LIG1        0.0235
     17 H           1.6004   -1.2332    1.3599 H       1  LIG1        0.0235
     18 H           2.9530   -0.5032    0.5358 H       1  LIG1        0.0235
     19 H          -0.5962   -0.4587   -2.0615 H       1  LIG1        0.0277
     20 H          -2.0985   -0.5750   -1.1880 H       1  LIG1        0.0277
     21 H           0.2186   -2.4497   -1.2083 H       1  LIG1        0.0310
     22 H          -1.4940   -2.7666   -1.2930 H       1  LIG1        0.0310
     23 H           0.0019   -4.4754    0.1828 H       1  LIG1        0.0274
     24 H          -1.3136   -4.4848    1.3716 H       1  LIG1        0.0274
     25 H           0.3312   -3.9779    1.8382 H       1  LIG1        0.0274
     26 H          -0.9958   -1.9004    2.6953 H       1  LIG1        0.0572
     27 H          -0.8452    0.4410    2.1976 H       1  LIG1        0.0316
     28 H          -2.2823   -0.0203    1.3140 H       1  LIG1        0.0316
     29 H          -0.9154    3.3132   -1.9144 H       1  LIG1        0.0310
     30 H          -0.8047    1.6933   -2.5604 H       1  LIG1        0.0310
     31 H           1.2868    3.2056   -0.9226 H       1  LIG1        0.0268
     32 H           1.4005    2.7126   -2.6012 H       1  LIG1        0.0268
     33 H           2.7200    1.2413   -1.1184 H       1  LIG1        0.0271
     34 H           1.4995    0.3599   -2.0088 H       1  LIG1        0.0271
     35 H          -2.4947    2.1358    1.1533 H       1  LIG1        0.0535
     36 H          -2.3653    3.4217   -0.1472 H       1  LIG1        0.0535
     37 H           1.2299    1.0554    2.2653 H       1  LIG1        0.0235
     38 H           0.8858    2.4472    1.2345 H       1  LIG1        0.0235
     39 H           2.5001    1.7430    1.2660 H       1  LIG1        0.0235
@<TRIPOS>BOND
     1     1     2    1
     2     2     3    1
     3     3     4    1
     4     4     5    1
     5     5     6    1
     6     6     7    1
     7     6     8    2
     8     8     9    1
     9     3     9    1
    10     3    10    1
    11    10    11    1
    12    11    12    1
    13    12    13    1
    14     2    13    1
    15    10    14    2
    16     2    15    1
    17     1    16    1
    18     1    17    1
    19     1    18    1
    20     4    19    1
    21     4    20    1
    22     5    21    1
    23     5    22    1
    24     7    23    1
    25     7    24    1
    26     7    25    1
    27     8    26    1
    28     9    27    1
    29     9    28    1
    30    11    29    1
    31    11    30    1
    32    12    31    1
    33    12    32    1
    34    13    33    1
    35    13    34    1
    36    14    35    1
    37    14    36    1
    38    15    37    1
    39    15    38    1
    40    15    39    1
