@<TRIPOS>MOLECULE
NuBBE_2126
 21 21 0 0 0
SMALL
GASTEIGER

@<TRIPOS>ATOM
      1 C          -1.5162    0.3553    1.3384 C.3     1  LIG1       -0.0624
      2 C           0.0063    0.3137    1.1789 C.3     1  LIG1       -0.0439
      3 C           0.4993   -1.0917    0.8049 C.3     1  LIG1       -0.0505
      4 C           0.1626   -1.4784   -0.6340 C.3     1  LIG1       -0.0528
      5 C           0.6570   -0.4342   -1.6306 C.3     1  LIG1       -0.0530
      6 C           0.1644    0.9681   -1.2855 C.3     1  LIG1       -0.0528
      7 C           0.4981    1.3481    0.1561 C.3     1  LIG1       -0.0505
      8 H          -1.8427   -0.3610    2.1000 H       1  LIG1        0.0232
      9 H          -2.0411    0.1159    0.4093 H       1  LIG1        0.0232
     10 H          -1.8417    1.3510    1.6582 H       1  LIG1        0.0232
     11 H           0.4364    0.5732    2.1549 H       1  LIG1        0.0298
     12 H           0.0829   -1.8362    1.4937 H       1  LIG1        0.0268
     13 H           1.5893   -1.1270    0.9312 H       1  LIG1        0.0268
     14 H          -0.9209   -1.6063   -0.7427 H       1  LIG1        0.0265
     15 H           0.6164   -2.4486   -0.8666 H       1  LIG1        0.0265
     16 H           0.3260   -0.7028   -2.6399 H       1  LIG1        0.0265
     17 H           1.7542   -0.4387   -1.6442 H       1  LIG1        0.0265
     18 H          -0.9186    1.0268   -1.4460 H       1  LIG1        0.0265
     19 H           0.6209    1.6934   -1.9687 H       1  LIG1        0.0265
     20 H           0.0793    2.3356    0.3831 H       1  LIG1        0.0268
     21 H           1.5879    1.4439    0.2495 H       1  LIG1        0.0268
@<TRIPOS>BOND
     1     1     2    1
     2     2     3    1
     3     3     4    1
     4     4     5    1
     5     5     6    1
     6     6     7    1
     7     2     7    1
     8     1     8    1
     9     1     9    1
    10     1    10    1
    11     2    11    1
    12     3    12    1
    13     3    13    1
    14     4    14    1
    15     4    15    1
    16     5    16    1
    17     5    17    1
    18     6    18    1
    19     6    19    1
    20     7    20    1
    21     7    21    1
