@<TRIPOS>MOLECULE
NuBBE_2014
 39 42 0 0 0
SMALL
GASTEIGER

@<TRIPOS>ATOM
      1 O          -4.4523   -1.2105   -0.5880 O.2     1  LIG1       -0.2850
      2 C          -3.2823   -1.0398   -0.2716 C.2     1  LIG1        0.2124
      3 C          -2.4084   -2.2046   -0.0091 C.ar    1  LIG1        0.0317
      4 C          -3.0238   -3.4640    0.0939 C.ar    1  LIG1       -0.0503
      5 C          -2.2884   -4.5639    0.5107 C.ar    1  LIG1       -0.0610
      6 C          -0.9507   -4.3894    0.8469 C.ar    1  LIG1       -0.0611
      7 C          -0.3348   -3.1351    0.7056 C.ar    1  LIG1       -0.0532
      8 C          -1.0299   -2.0114    0.2214 C.ar    1  LIG1       -0.0027
      9 C          -0.4168   -0.6553    0.0197 C.ar    1  LIG1        0.0382
     10 C           0.9736   -0.3965   -0.1585 C.ar    1  LIG1        0.1735
     11 O           1.7672   -1.5034   -0.3712 O.3     1  LIG1       -0.4907
     12 C           3.1061   -1.4660    0.1129 C.3     1  LIG1        0.0790
     13 C           1.4505    0.9326   -0.2755 C.ar    1  LIG1        0.2048
     14 O           2.7824    1.1340   -0.5589 O.3     1  LIG1       -0.4885
     15 C           3.0718    2.0501   -1.6190 C.3     1  LIG1        0.0791
     16 C           0.5726    2.0106   -0.0936 C.ar    1  LIG1        0.1730
     17 O           0.9814    3.3243   -0.1220 O.3     1  LIG1       -0.4907
     18 C           1.9432    3.6710    0.8711 C.3     1  LIG1        0.0790
     19 C          -0.8169    1.7834   -0.0361 C.ar    1  LIG1        0.0318
     20 C          -1.7400    2.8462   -0.0238 C.ar    1  LIG1       -0.0322
     21 C          -3.0916    2.5766   -0.0515 C.ar    1  LIG1        0.0291
     22 N          -3.5920    1.3355   -0.1059 N.ar    1  LIG1       -0.2511
     23 C          -2.6954    0.3128   -0.1027 C.ar    1  LIG1        0.1194
     24 C          -1.3032    0.4564   -0.0279 C.ar    1  LIG1        0.0262
     25 H          -4.0848   -3.5789   -0.1246 H       1  LIG1        0.0625
     26 H          -2.7640   -5.5372    0.6073 H       1  LIG1        0.0618
     27 H          -0.3810   -5.2335    1.2281 H       1  LIG1        0.0618
     28 H           0.7042   -3.0609    1.0159 H       1  LIG1        0.0624
     29 H           3.1682   -1.0347    1.1175 H       1  LIG1        0.0660
     30 H           3.7675   -0.9549   -0.5913 H       1  LIG1        0.0660
     31 H           3.4626   -2.4997    0.1715 H       1  LIG1        0.0660
     32 H           3.7391    2.8241   -1.2259 H       1  LIG1        0.0660
     33 H           2.1979    2.5231   -2.0779 H       1  LIG1        0.0660
     34 H           3.6118    1.5158   -2.4054 H       1  LIG1        0.0660
     35 H           1.4494    4.2657    1.6472 H       1  LIG1        0.0660
     36 H           2.6998    4.3021    0.3976 H       1  LIG1        0.0660
     37 H           2.4423    2.8183    1.3436 H       1  LIG1        0.0660
     38 H          -1.4082    3.8799   -0.0178 H       1  LIG1        0.0640
     39 H          -3.8269    3.3772   -0.0529 H       1  LIG1        0.0830
@<TRIPOS>BOND
     1     1     2    2
     2     2     3    1
     3     3     4   ar
     4     4     5   ar
     5     5     6   ar
     6     6     7   ar
     7     7     8   ar
     8     3     8   ar
     9     8     9    1
    10     9    10   ar
    11    10    11    1
    12    11    12    1
    13    10    13   ar
    14    13    14    1
    15    14    15    1
    16    13    16   ar
    17    16    17    1
    18    17    18    1
    19    16    19   ar
    20    19    20   ar
    21    20    21   ar
    22    21    22   ar
    23    22    23   ar
    24     2    23    1
    25    23    24   ar
    26     9    24   ar
    27    19    24   ar
    28     4    25    1
    29     5    26    1
    30     6    27    1
    31     7    28    1
    32    12    29    1
    33    12    30    1
    34    12    31    1
    35    15    32    1
    36    15    33    1
    37    15    34    1
    38    18    35    1
    39    18    36    1
    40    18    37    1
    41    20    38    1
    42    21    39    1
