REMARK  Name = NuBBE_2489
REMARK  7 active torsions:
REMARK  status: ('A' for Active; 'I' for Inactive)
REMARK    1  A    between atoms: C_1  and  C_2
REMARK    2  A    between atoms: C_5  and  C_6
REMARK    3  A    between atoms: C_6  and  C_7
REMARK    4  A    between atoms: C_8  and  C_11
REMARK    5  A    between atoms: C_11  and  O_13
REMARK    6  A    between atoms: C_18  and  C_19
REMARK    7  A    between atoms: C_18  and  C_20
REMARK                            x       y       z     vdW  Elec       q    Type
REMARK                         _______ _______ _______ _____ _____    ______ ____
ROOT
ATOM      1  C   LIG A   1      -2.538   0.440   0.611  0.00  0.00    +0.016 C 
ATOM      2  C   LIG A   1      -1.035   0.081   0.808  0.00  0.00    -0.004 C 
ATOM      3  C   LIG A   1      -0.255   1.086  -0.088  0.00  0.00    -0.038 A 
ATOM      4  C   LIG A   1       0.494   0.691  -1.224  0.00  0.00    -0.040 A 
ATOM      5  C   LIG A   1       1.099   1.670  -2.082  0.00  0.00    -0.030 A 
ATOM      6  C   LIG A   1       0.991   3.041  -1.743  0.00  0.00    +0.062 A 
ATOM      7  C   LIG A   1       0.268   3.417  -0.606  0.00  0.00    +0.015 A 
ATOM      8  C   LIG A   1      -0.345   2.461   0.197  0.00  0.00    +0.005 A 
ATOM      9  C   LIG A   1       0.587  -0.780  -1.555  0.00  0.00    +0.036 C 
ATOM     10  C   LIG A   1       0.502  -1.648  -0.313  0.00  0.00    +0.009 C 
ATOM     11  C   LIG A   1      -0.829  -1.436   0.422  0.00  0.00    +0.005 C 
ATOM     12  C   LIG A   1      -1.009  -2.482   1.603  0.00  0.00    -0.031 C 
ATOM     13  C   LIG A   1       0.322  -2.965   2.231  0.00  0.00    +0.011 C 
ATOM     14  C   LIG A   1      -1.715  -3.740   1.041  0.00  0.00    +0.011 C 
ATOM     15  C   LIG A   1      -1.888  -1.919   2.736  0.00  0.00    +0.007 C 
ATOM     16  C   LIG A   1      -1.394  -0.588   3.288  0.00  0.00    +0.001 C 
ATOM     17  C   LIG A   1      -0.624   0.275   2.289  0.00  0.00    +0.012 C 
ENDROOT
BRANCH   5  18
ATOM     18  C   LIG A   1       1.869   1.233  -3.318  0.00  0.00    +0.033 C 
ATOM     19  C   LIG A   1       3.348   1.003  -3.036  0.00  0.00    +0.009 C 
ENDBRANCH   5  18
BRANCH   6  20
ATOM     20  C   LIG A   1       1.577   4.139  -2.567  0.00  0.00    +0.337 C 
ATOM     21  O   LIG A   1       1.761   4.164  -3.770  0.00  0.00    -0.245 OA
BRANCH  20  22
ATOM     22  O   LIG A   1       1.922   5.202  -1.813  0.00  0.00    -0.477 OA
ATOM     23  H   LIG A   1       2.287   5.835  -2.467  0.00  0.00    +0.295 HD
ENDBRANCH  20  22
ENDBRANCH   6  20
TORSDOF 3
