@<TRIPOS>MOLECULE
NuBBE_1752
 29 29 0 0 0
SMALL
GASTEIGER

@<TRIPOS>ATOM
      1 C          -1.4179   -0.1214    0.6862 C.3     1  LIG1        0.0636
      2 C          -2.1552   -1.3133    1.3210 C.3     1  LIG1       -0.0361
      3 C          -2.1504    1.1667    1.0927 C.3     1  LIG1       -0.0361
      4 O          -1.5353   -0.2511   -0.7292 O.3     1  LIG1       -0.3888
      5 C           0.0881   -0.0944    1.1191 C.3     1  LIG1       -0.0089
      6 C           0.8591    1.1801    0.7142 C.3     1  LIG1       -0.0437
      7 C           1.1384    1.2752   -0.7872 C.3     1  LIG1       -0.0317
      8 C           1.6367   -0.0185   -1.3792 C.2     1  LIG1       -0.0765
      9 C           1.5414   -1.1823   -0.7131 C.2     1  LIG1       -0.0847
     10 C           0.9116   -1.3182    0.6450 C.3     1  LIG1       -0.0291
     11 C           2.2244    0.0689   -2.7567 C.3     1  LIG1       -0.0438
     12 H          -3.2263   -1.2775    1.0878 H       1  LIG1        0.0257
     13 H          -2.0453   -1.3212    2.4102 H       1  LIG1        0.0257
     14 H          -1.8048   -2.2698    0.9220 H       1  LIG1        0.0257
     15 H          -3.2235    1.0901    0.8796 H       1  LIG1        0.0257
     16 H          -1.8012    2.0277    0.5133 H       1  LIG1        0.0257
     17 H          -2.0294    1.3794    2.1597 H       1  LIG1        0.0257
     18 H          -2.4790   -0.2900   -0.9580 H       1  LIG1        0.2101
     19 H           0.0870   -0.1187    2.2188 H       1  LIG1        0.0331
     20 H           1.8235    1.1748    1.2426 H       1  LIG1        0.0272
     21 H           0.3511    2.0867    1.0582 H       1  LIG1        0.0272
     22 H           1.8874    2.0612   -0.9444 H       1  LIG1        0.0310
     23 H           0.2344    1.5910   -1.3203 H       1  LIG1        0.0310
     24 H           1.9173   -2.0985   -1.1618 H       1  LIG1        0.0572
     25 H           1.7282   -1.4846    1.3603 H       1  LIG1        0.0311
     26 H           0.3107   -2.2312    0.6647 H       1  LIG1        0.0311
     27 H           3.0987    0.7278   -2.7558 H       1  LIG1        0.0274
     28 H           1.4864    0.4701   -3.4587 H       1  LIG1        0.0274
     29 H           2.5440   -0.9092   -3.1311 H       1  LIG1        0.0274
@<TRIPOS>BOND
     1     1     2    1
     2     1     3    1
     3     1     4    1
     4     1     5    1
     5     5     6    1
     6     6     7    1
     7     7     8    1
     8     8     9    2
     9     9    10    1
    10     5    10    1
    11     8    11    1
    12     2    12    1
    13     2    13    1
    14     2    14    1
    15     3    15    1
    16     3    16    1
    17     3    17    1
    18     4    18    1
    19     5    19    1
    20     6    20    1
    21     6    21    1
    22     7    22    1
    23     7    23    1
    24     9    24    1
    25    10    25    1
    26    10    26    1
    27    11    27    1
    28    11    28    1
    29    11    29    1
