@<TRIPOS>MOLECULE
NuBBE_1050
 81 84 0 0 0
SMALL
GASTEIGER

@<TRIPOS>ATOM
      1 C           3.0143    1.5961   -3.4982 C.3     1  LIG1       -0.0587
      2 C           2.1457    0.3191   -3.2382 C.3     1  LIG1       -0.0218
      3 C           1.0859    0.7398   -2.1089 C.3     1  LIG1       -0.0137
      4 H           1.2141    1.8298   -2.0158 H       1  LIG1        0.0351
      5 C           1.3786    0.2691   -0.6773 C.2     1  LIG1       -0.0634
      6 C           0.3956    0.7451    0.4336 C.3     1  LIG1       -0.0051
      7 C          -1.1339    0.7602   -0.0329 C.3     1  LIG1       -0.0198
      8 C          -1.6672    2.1852   -0.2486 C.3     1  LIG1       -0.0585
      9 C          -1.9466   -0.1009    1.0376 C.3     1  LIG1       -0.0295
     10 H          -2.6814   -0.7306    0.5149 H       1  LIG1        0.0310
     11 C          -2.7527    0.6519    2.1769 C.3     1  LIG1       -0.0072
     12 H          -2.0985    1.3879    2.6535 H       1  LIG1        0.0330
     13 C          -3.9704    1.4006    1.5739 C.3     1  LIG1       -0.0594
     14 C          -3.2777   -0.3147    3.2835 C.3     1  LIG1        0.1198
     15 H          -2.4949   -0.9212    3.7364 H       1  LIG1        0.0679
     16 O          -4.1899   -1.2432    2.6667 O.3     1  LIG1       -0.3837
     17 C          -4.0157    0.3817    4.4361 C.2     1  LIG1        0.1845
     18 C          -3.3485    0.9678    5.6401 C.2     1  LIG1       -0.0179
     19 C          -2.0864    1.2100    6.0515 C.2     1  LIG1       -0.0723
     20 C          -0.8088    0.9191    5.3284 C.3     1  LIG1       -0.0437
     21 C          -1.8877    1.8885    7.3906 C.3     1  LIG1       -0.0437
     22 O          -5.2636    0.4518    4.4101 O.2     1  LIG1       -0.2899
     23 C          -0.8462   -1.0392    1.5613 C.3     1  LIG1       -0.0486
     24 C           0.3577   -0.1356    1.7139 C.3     1  LIG1       -0.0431
     25 C          -1.2717    0.0180   -1.3910 C.3     1  LIG1       -0.0460
     26 C          -0.4083    0.6334   -2.4827 C.3     1  LIG1       -0.0455
     27 C           0.9447    2.1303    0.8620 C.3     1  LIG1       -0.0553
     28 C           2.5434   -0.3388   -0.3833 C.2     1  LIG1       -0.0836
     29 C           3.6303   -0.6030   -1.3668 C.3     1  LIG1       -0.0306
     30 C           3.1283   -0.8392   -2.7958 C.3     1  LIG1       -0.0242
     31 H           4.0342   -0.7150   -3.4095 H       1  LIG1        0.0315
     32 C           2.6273   -2.3160   -3.1089 C.3     1  LIG1       -0.0053
     33 C           2.8272   -3.3202   -1.9477 C.3     1  LIG1       -0.0572
     34 C           1.1332   -2.3116   -3.5008 C.3     1  LIG1        0.0606
     35 C           0.8458   -1.4107   -4.6965 C.3     1  LIG1       -0.0258
     36 C           1.5383   -0.0489   -4.6191 C.3     1  LIG1       -0.0444
     37 H           0.5497   -1.9902   -2.6345 H       1  LIG1        0.0599
     38 O           0.6736   -3.6263   -3.8158 O.3     1  LIG1       -0.3912
     39 C           3.4762   -2.8739   -4.2864 C.3     1  LIG1       -0.0572
     40 H           3.4801    1.9694   -2.5800 H       1  LIG1        0.0235
     41 H           2.4004    2.4079   -3.9068 H       1  LIG1        0.0235
     42 H           3.8158    1.4003   -4.2196 H       1  LIG1        0.0235
     43 H          -1.7057    2.7519    0.6844 H       1  LIG1        0.0235
     44 H          -2.6636    2.1667   -0.7027 H       1  LIG1        0.0235
     45 H          -1.0376    2.7688   -0.9263 H       1  LIG1        0.0235
     46 H          -3.6975    2.3649    1.1484 H       1  LIG1        0.0233
     47 H          -4.7240    1.6550    2.3221 H       1  LIG1        0.0233
     48 H          -4.4645    0.8090    0.7954 H       1  LIG1        0.0233
     49 H          -5.0622   -0.7961    2.6519 H       1  LIG1        0.2104
     50 H          -4.1383    1.2660    6.3319 H       1  LIG1        0.0653
     51 H          -0.7742   -0.1008    4.9417 H       1  LIG1        0.0274
     52 H           0.0489    1.0180    6.0087 H       1  LIG1        0.0274
     53 H          -0.6507    1.6397    4.5222 H       1  LIG1        0.0274
     54 H          -2.8261    2.0252    7.9397 H       1  LIG1        0.0274
     55 H          -1.4427    2.8786    7.2459 H       1  LIG1        0.0274
     56 H          -1.2240    1.2966    8.0303 H       1  LIG1        0.0274
     57 H          -0.6281   -1.8251    0.8277 H       1  LIG1        0.0268
     58 H          -1.0758   -1.5553    2.4929 H       1  LIG1        0.0268
     59 H           1.2530   -0.7273    1.9083 H       1  LIG1        0.0274
     60 H           0.2145    0.4919    2.6009 H       1  LIG1        0.0274
     61 H          -2.3187    0.0290   -1.7226 H       1  LIG1        0.0271
     62 H          -1.0096   -1.0421   -1.2873 H       1  LIG1        0.0271
     63 H          -0.7762    1.6387   -2.7270 H       1  LIG1        0.0271
     64 H          -0.6062    0.0797   -3.3908 H       1  LIG1        0.0271
     65 H           1.0234    2.8241    0.0175 H       1  LIG1        0.0238
     66 H           1.9514    2.0376    1.2883 H       1  LIG1        0.0238
     67 H           0.3185    2.6022    1.6253 H       1  LIG1        0.0238
     68 H           2.8154   -0.5731    0.6405 H       1  LIG1        0.0572
     69 H           4.2565   -1.4294   -1.0197 H       1  LIG1        0.0310
     70 H           4.3044    0.2634   -1.3468 H       1  LIG1        0.0310
     71 H           2.2476   -3.0389   -1.0631 H       1  LIG1        0.0236
     72 H           3.8815   -3.4091   -1.6647 H       1  LIG1        0.0236
     73 H           2.5051   -4.3292   -2.2305 H       1  LIG1        0.0236
     74 H          -0.2393   -1.2953   -4.8079 H       1  LIG1        0.0290
     75 H           1.1320   -1.9111   -5.6306 H       1  LIG1        0.0290
     76 H           0.8607    0.7385   -4.9726 H       1  LIG1        0.0272
     77 H           2.3502   -0.0648   -5.3605 H       1  LIG1        0.0272
     78 H          -0.2926   -3.5772   -3.9172 H       1  LIG1        0.2098
     79 H           3.4243   -2.2322   -5.1716 H       1  LIG1        0.0236
     80 H           3.1465   -3.8752   -4.5841 H       1  LIG1        0.0236
     81 H           4.5329   -2.9468   -4.0039 H       1  LIG1        0.0236
@<TRIPOS>BOND
     1     2     3    1
     2     3     5    1
     3     5     6    1
     4     6     7    1
     5     7     9    1
     6    11    12    1
     7    11    13    1
     8    14    16    1
     9    14    17    1
    10    17    18    1
    11    18    19    2
    12    19    20    1
    13    19    21    1
    14    17    22    2
    15     9    23    1
    16    23    24    1
    17     7    25    1
    18    25    26    1
    19     3    26    1
    20    24     6    1
    21     5    28    2
    22    28    29    1
    23    29    30    1
    24     2    30    1
    25    30    32    1
    26    32    34    1
    27    34    35    1
    28    35    36    1
    29     2    36    1
    30     1     2    1
    31     3     4    1
    32     6    27    1
    33     7     8    1
    34     9    10    1
    35     9    11    1
    36    30    31    1
    37    32    33    1
    38    32    39    1
    39    34    37    1
    40    34    38    1
    41    14    15    1
    42    14    11    1
    43     1    40    1
    44     1    41    1
    45     1    42    1
    46     8    43    1
    47     8    44    1
    48     8    45    1
    49    13    46    1
    50    13    47    1
    51    13    48    1
    52    16    49    1
    53    18    50    1
    54    20    51    1
    55    20    52    1
    56    20    53    1
    57    21    54    1
    58    21    55    1
    59    21    56    1
    60    23    57    1
    61    23    58    1
    62    24    59    1
    63    24    60    1
    64    25    61    1
    65    25    62    1
    66    26    63    1
    67    26    64    1
    68    27    65    1
    69    27    66    1
    70    27    67    1
    71    28    68    1
    72    29    69    1
    73    29    70    1
    74    33    71    1
    75    33    72    1
    76    33    73    1
    77    35    74    1
    78    35    75    1
    79    36    76    1
    80    36    77    1
    81    38    78    1
    82    39    79    1
    83    39    80    1
    84    39    81    1
