REMARK  Name = NuBBE_1779
REMARK  9 active torsions:
REMARK  status: ('A' for Active; 'I' for Inactive)
REMARK    1  A    between atoms: C_1  and  C_2
REMARK    2  A    between atoms: C_1  and  C_13
REMARK    3  A    between atoms: C_2  and  C_3
REMARK    4  A    between atoms: C_6  and  O_11
REMARK    5  A    between atoms: O_11  and  C_12
REMARK    6  A    between atoms: C_15  and  O_16
REMARK    7  A    between atoms: O_16  and  C_17
REMARK    8  A    between atoms: C_18  and  O_21
REMARK    9  A    between atoms: O_21  and  C_22
REMARK                            x       y       z     vdW  Elec       q    Type
REMARK                         _______ _______ _______ _____ _____    ______ ____
ROOT
ATOM      1  C   LIG A   1      -0.960  -1.494  -0.440  0.00  0.00    +0.039 C 
ENDROOT
BRANCH   1   2
ATOM      2  C   LIG A   1       0.540  -1.565  -0.574  0.00  0.00    -0.044 A 
ATOM      3  C   LIG A   1       1.358  -1.238   0.515  0.00  0.00    +0.053 A 
ATOM      4  C   LIG A   1       2.756  -1.275   0.418  0.00  0.00    +0.162 A 
ATOM      5  C   LIG A   1       3.348  -1.651  -0.803  0.00  0.00    +0.162 A 
ATOM      6  C   LIG A   1       2.527  -1.970  -1.893  0.00  0.00    +0.050 A 
ATOM      7  C   LIG A   1       1.136  -1.932  -1.778  0.00  0.00    +0.007 A 
BRANCH   4   8
ATOM      8  O   LIG A   1       3.594  -0.976   1.467  0.00  0.00    -0.491 OA
ATOM      9  C   LIG A   1       2.972  -0.621   2.700  0.00  0.00    +0.277 C 
ENDBRANCH   4   8
BRANCH   5  10
ATOM     10  O   LIG A   1       4.721  -1.643  -0.873  0.00  0.00    -0.491 OA
ATOM     11  C   LIG A   1       5.309  -2.447  -1.892  0.00  0.00    +0.277 C 
ENDBRANCH   5  10
ENDBRANCH   1   2
BRANCH   1  12
ATOM     12  C   LIG A   1      -1.552  -0.124  -0.799  0.00  0.00    +0.050 C 
BRANCH  12  13
ATOM     13  C   LIG A   1      -1.044   1.035   0.082  0.00  0.00    +0.184 C 
ATOM     14  C   LIG A   1      -1.659   2.387  -0.275  0.00  0.00    +0.118 C 
ATOM     15  C   LIG A   1      -3.064   2.476   0.245  0.00  0.00    +0.108 C 
ATOM     16  C   LIG A   1      -3.413   1.775   1.333  0.00  0.00    +0.132 C 
ATOM     17  C   LIG A   1      -2.433   0.974   2.082  0.00  0.00    +0.335 C 
ATOM     18  O   LIG A   1      -2.695   0.567   3.201  0.00  0.00    -0.245 OA
ATOM     19  O   LIG A   1      -1.242   0.735   1.481  0.00  0.00    -0.458 OA
BRANCH  15  20
ATOM     20  O   LIG A   1      -3.881   3.304  -0.491  0.00  0.00    -0.499 OA
ATOM     21  C   LIG A   1      -5.216   3.476  -0.023  0.00  0.00    +0.276 C 
ENDBRANCH  15  20
ENDBRANCH  12  13
ENDBRANCH   1  12
TORSDOF 6
