@<TRIPOS>MOLECULE
NuBBE_1442
 64 70 0 0 0
SMALL
GASTEIGER

@<TRIPOS>ATOM
      1 C          -5.1107    0.3692   -1.7706 C.3     1  LIG1       -0.0528
      2 C          -4.2982   -0.4552   -0.7387 C.3     1  LIG1        0.0274
      3 C          -5.2168   -0.6752    0.4792 C.3     1  LIG1       -0.0528
      4 C          -4.0669   -1.8694   -1.3632 C.2     1  LIG1        0.1417
      5 C          -2.8037   -2.6451   -1.0308 C.3     1  LIG1        0.0332
      6 C          -1.6600   -1.6750   -1.1392 C.3     1  LIG1        0.0718
      7 H          -1.7112   -1.2460   -2.1531 H       1  LIG1        0.0606
      8 C          -1.7699   -0.5505   -0.0869 C.3     1  LIG1        0.0077
      9 C          -0.3898    0.0459   -0.3997 C.3     1  LIG1        0.0359
     10 C           0.1697    1.3037    0.2810 C.3     1  LIG1        0.1481
     11 C           0.4866    2.3618   -0.8213 C.3     1  LIG1       -0.0216
     12 O          -0.8222    1.8259    1.2000 O.3     1  LIG1       -0.4549
     13 C           1.4817    1.0009    1.0161 C.3     1  LIG1        0.1413
     14 C           2.3163    2.1645    1.5098 C.3     1  LIG1        0.0935
     15 H           2.0260    3.1973    1.4118 H       1  LIG1        0.0627
     16 C           3.7601    1.8502    1.2519 C.3     1  LIG1       -0.0162
     17 C           3.7133    0.7485    0.1593 C.3     1  LIG1       -0.0021
     18 H           3.4827    1.2653   -0.7851 H       1  LIG1        0.0357
     19 C           4.9943    0.0075   -0.0518 C.ar    1  LIG1       -0.0059
     20 C           5.9300   -0.3903    0.8842 C.ar    1  LIG1        0.0951
     21 O           6.9672   -1.0350    0.2945 O.2     1  LIG1       -0.4708
     22 C           6.7129   -1.0560   -1.0366 C.ar    1  LIG1        0.0919
     23 C           5.5182   -0.4315   -1.3040 C.ar    1  LIG1       -0.0205
     24 O           1.5832    1.3342    2.4074 O.3     1  LIG1       -0.3600
     25 C           2.4643   -0.1078    0.5460 C.3     1  LIG1        0.0125
     26 C           2.7857   -1.0728    1.7263 C.3     1  LIG1       -0.0561
     27 C           1.8856   -0.9393   -0.6339 C.3     1  LIG1       -0.0174
     28 C           0.4387   -1.2273   -0.2825 C.3     1  LIG1        0.0668
     29 H           0.4378   -1.6307    0.7307 H       1  LIG1        0.0600
     30 O          -0.3087   -2.1993   -1.0454 O.3     1  LIG1       -0.3719
     31 C          -1.8584   -1.0930    1.3713 C.3     1  LIG1       -0.0564
     32 C          -2.9639    0.3557   -0.4393 C.3     1  LIG1       -0.0109
     33 C          -3.1202    1.4927    0.5957 C.3     1  LIG1        0.0492
     34 C          -1.9203    2.4135    0.6529 C.2     1  LIG1        0.3080
     35 O          -1.9475    3.5798    0.2853 O.2     1  LIG1       -0.2508
     36 O          -4.9473   -2.4160   -2.0346 O.2     1  LIG1       -0.2967
     37 H          -6.0692   -0.1069   -2.0089 H       1  LIG1        0.0239
     38 H          -4.5613    0.4669   -2.7143 H       1  LIG1        0.0239
     39 H          -5.3318    1.3752   -1.3993 H       1  LIG1        0.0239
     40 H          -4.8059   -1.3929    1.1915 H       1  LIG1        0.0239
     41 H          -6.1802   -1.0978    0.1656 H       1  LIG1        0.0239
     42 H          -5.4404    0.2567    1.0064 H       1  LIG1        0.0239
     43 H          -2.6732   -3.4562   -1.7553 H       1  LIG1        0.0367
     44 H          -2.8970   -3.1067   -0.0446 H       1  LIG1        0.0367
     45 H          -0.4000    0.2938   -1.4754 H       1  LIG1        0.0372
     46 H          -0.3661    2.5194   -1.4921 H       1  LIG1        0.0269
     47 H           1.3345    2.0569   -1.4432 H       1  LIG1        0.0269
     48 H           0.7157    3.3404   -0.3870 H       1  LIG1        0.0269
     49 H           4.2498    1.5217    2.1745 H       1  LIG1        0.0297
     50 H           4.2975    2.7311    0.8842 H       1  LIG1        0.0297
     51 H           5.9993   -0.2986    1.9599 H       1  LIG1        0.1032
     52 H           7.4615   -1.5391   -1.6489 H       1  LIG1        0.1029
     53 H           5.0790   -0.3043   -2.2839 H       1  LIG1        0.0652
     54 H           3.3589   -0.5834    2.5207 H       1  LIG1        0.0236
     55 H           3.3683   -1.9362    1.3871 H       1  LIG1        0.0236
     56 H           1.8784   -1.4525    2.2066 H       1  LIG1        0.0236
     57 H           2.4443   -1.8693   -0.7886 H       1  LIG1        0.0297
     58 H           1.9431   -0.3914   -1.5820 H       1  LIG1        0.0297
     59 H          -1.4126   -2.0868    1.4852 H       1  LIG1        0.0236
     60 H          -2.8833   -1.2037    1.7178 H       1  LIG1        0.0236
     61 H          -1.3606   -0.4306    2.0856 H       1  LIG1        0.0236
     62 H          -2.6921    0.8473   -1.3868 H       1  LIG1        0.0321
     63 H          -3.3158    1.1269    1.6089 H       1  LIG1        0.0381
     64 H          -3.9797    2.1193    0.3295 H       1  LIG1        0.0381
@<TRIPOS>BOND
     1     1     2    1
     2     2     3    1
     3     2     4    1
     4     4     5    1
     5     5     6    1
     6     6     7    1
     7     6     8    1
     8     8     9    1
     9     9    10    1
    10    10    11    1
    11    10    12    1
    12    10    13    1
    13    13    14    1
    14    14    15    1
    15    14    16    1
    16    16    17    1
    17    17    18    1
    18    17    19    1
    19    19    20   ar
    20    20    21   ar
    21    21    22   ar
    22    22    23   ar
    23    19    23   ar
    24    13    24    1
    25    14    24    1
    26    13    25    1
    27    17    25    1
    28    25    26    1
    29    25    27    1
    30    27    28    1
    31    28    29    1
    32     9    28    1
    33    28    30    1
    34     6    30    1
    35     8    31    1
    36     8    32    1
    37     2    32    1
    38    32    33    1
    39    33    34    1
    40    12    34    1
    41    34    35    2
    42     4    36    2
    43     1    37    1
    44     1    38    1
    45     1    39    1
    46     3    40    1
    47     3    41    1
    48     3    42    1
    49     5    43    1
    50     5    44    1
    51     9    45    1
    52    11    46    1
    53    11    47    1
    54    11    48    1
    55    16    49    1
    56    16    50    1
    57    20    51    1
    58    22    52    1
    59    23    53    1
    60    26    54    1
    61    26    55    1
    62    26    56    1
    63    27    57    1
    64    27    58    1
    65    31    59    1
    66    31    60    1
    67    31    61    1
    68    32    62    1
    69    33    63    1
    70    33    64    1
