@<TRIPOS>MOLECULE
NuBBE_1321
 42 46 0 0 0
SMALL
GASTEIGER

@<TRIPOS>ATOM
      1 O          -4.6191   -0.6214    0.0718 O.2     1  LIG1       -0.2870
      2 C          -3.3965   -0.6102    0.0179 C.ar    1  LIG1        0.1931
      3 C          -2.6316   -1.8650   -0.0139 C.ar    1  LIG1        0.0287
      4 C          -1.2946   -1.8119   -0.0850 C.ar    1  LIG1        0.1394
      5 C          -0.4683   -3.0355   -0.1103 C.ar    1  LIG1        0.0211
      6 C           0.7124   -3.0919    0.6499 C.ar    1  LIG1       -0.0055
      7 C           1.4726   -4.2421    0.5965 C.ar    1  LIG1        0.1669
      8 C           1.1089   -5.3172   -0.1775 C.ar    1  LIG1        0.1663
      9 O           1.9940   -6.3449   -0.0885 O.3     1  LIG1       -0.4526
     10 C           2.9581   -5.7939    0.8327 C.3     1  LIG1        0.2332
     11 O           2.6337   -4.4579    1.2712 O.3     1  LIG1       -0.4526
     12 C          -0.0341   -5.3020   -0.9444 C.ar    1  LIG1       -0.0155
     13 C          -0.8257   -4.1476   -0.9106 C.ar    1  LIG1       -0.0474
     14 O          -0.5622   -0.6371   -0.1143 O.2     1  LIG1       -0.4539
     15 C          -2.6199    0.6379   -0.0190 C.ar    1  LIG1        0.0648
     16 C          -1.2272    0.5676   -0.0831 C.ar    1  LIG1        0.1498
     17 C          -0.4649    1.7482   -0.1156 C.ar    1  LIG1        0.0595
     18 C           0.9916    1.7280   -0.1913 C.2     1  LIG1       -0.0478
     19 C           1.6443    2.8932   -0.1711 C.2     1  LIG1       -0.0408
     20 C           0.9522    4.2322   -0.0782 C.3     1  LIG1        0.1235
     21 C           1.3403    4.9158    1.2381 C.3     1  LIG1       -0.0215
     22 C           1.3840    5.1067   -1.2613 C.3     1  LIG1       -0.0215
     23 O          -0.4886    4.1926   -0.1146 O.3     1  LIG1       -0.4815
     24 C          -1.1237    2.9833   -0.0815 C.ar    1  LIG1        0.1324
     25 C          -2.5190    3.0445   -0.0224 C.ar    1  LIG1       -0.0184
     26 C          -3.2718    1.8726    0.0105 C.ar    1  LIG1       -0.0439
     27 H          -3.2030   -2.7827    0.0332 H       1  LIG1        0.0693
     28 H           1.0287   -2.2619    1.2734 H       1  LIG1        0.0662
     29 H           3.9387   -5.7738    0.3434 H       1  LIG1        0.1166
     30 H           3.0167   -6.4467    1.7113 H       1  LIG1        0.1166
     31 H          -0.3069   -6.1536   -1.5575 H       1  LIG1        0.0655
     32 H          -1.7217   -4.1174   -1.5280 H       1  LIG1        0.0626
     33 H           1.5192    0.7830   -0.2563 H       1  LIG1        0.0624
     34 H           2.7305    2.8911   -0.2162 H       1  LIG1        0.0611
     35 H           2.4234    5.0560    1.3242 H       1  LIG1        0.0271
     36 H           1.0002    4.3276    2.0990 H       1  LIG1        0.0271
     37 H           0.8578    5.8963    1.3258 H       1  LIG1        0.0271
     38 H           2.4688    5.2584   -1.2862 H       1  LIG1        0.0271
     39 H           0.9003    6.0897   -1.2174 H       1  LIG1        0.0271
     40 H           1.0776    4.6553   -2.2126 H       1  LIG1        0.0271
     41 H          -3.0176    4.0106   -0.0010 H       1  LIG1        0.0654
     42 H          -4.3574    1.9239    0.0588 H       1  LIG1        0.0627
@<TRIPOS>BOND
     1     1     2    2
     2     2     3   ar
     3     3     4   ar
     4     4     5    1
     5     5     6   ar
     6     6     7   ar
     7     7     8   ar
     8     8     9    1
     9     9    10    1
    10    10    11    1
    11     7    11    1
    12     8    12   ar
    13    12    13   ar
    14     5    13   ar
    15     4    14   ar
    16     2    15   ar
    17    15    16   ar
    18    14    16   ar
    19    16    17   ar
    20    17    18    1
    21    18    19    2
    22    19    20    1
    23    20    21    1
    24    20    22    1
    25    20    23    1
    26    17    24   ar
    27    23    24    1
    28    24    25   ar
    29    25    26   ar
    30    15    26   ar
    31     3    27    1
    32     6    28    1
    33    10    29    1
    34    10    30    1
    35    12    31    1
    36    13    32    1
    37    18    33    1
    38    19    34    1
    39    21    35    1
    40    21    36    1
    41    21    37    1
    42    22    38    1
    43    22    39    1
    44    22    40    1
    45    25    41    1
    46    26    42    1
