REMARK  Name = NuBBE_1662
REMARK  4 active torsions:
REMARK  status: ('A' for Active; 'I' for Inactive)
REMARK    1  A    between atoms: C_7  and  C_8
REMARK    2  A    between atoms: C_18  and  O_23
REMARK    3  A    between atoms: C_19  and  O_21
REMARK    4  A    between atoms: O_21  and  C_22
REMARK                            x       y       z     vdW  Elec       q    Type
REMARK                         _______ _______ _______ _____ _____    ______ ____
ROOT
ATOM      1  O   LIG A   1      -1.830   0.547  -0.191  0.00  0.00    -0.286 OA
ATOM      2  C   LIG A   1      -0.609   0.444  -0.134  0.00  0.00    +0.200 A 
ATOM      3  C   LIG A   1       0.231   1.656  -0.080  0.00  0.00    +0.068 A 
ATOM      4  C   LIG A   1       1.613   1.518  -0.065  0.00  0.00    +0.142 A 
ATOM      5  O   LIG A   1       2.235   0.300  -0.106  0.00  0.00    -0.462 OA
ATOM      6  C   LIG A   1       1.443  -0.821  -0.093  0.00  0.00    +0.208 A 
ATOM      7  C   LIG A   1       0.100  -0.875  -0.110  0.00  0.00    +0.064 A 
ATOM      8  C   LIG A   1       2.431   2.645  -0.006  0.00  0.00    +0.096 A 
ATOM      9  C   LIG A   1       1.859   3.919   0.051  0.00  0.00    +0.162 A 
ATOM     10  C   LIG A   1       0.466   4.072   0.046  0.00  0.00    +0.162 A 
ATOM     11  C   LIG A   1      -0.343   2.931  -0.038  0.00  0.00    +0.064 A 
ENDROOT
BRANCH   7  12
ATOM     12  C   LIG A   1      -0.607  -2.183  -0.072  0.00  0.00    -0.008 A 
ATOM     13  C   LIG A   1      -0.054  -3.324  -0.688  0.00  0.00    +0.058 A 
ATOM     14  C   LIG A   1      -0.735  -4.522  -0.608  0.00  0.00    +0.167 A 
ATOM     15  C   LIG A   1      -1.941  -4.631   0.037  0.00  0.00    +0.166 A 
ATOM     16  C   LIG A   1      -2.530  -3.546   0.642  0.00  0.00    +0.050 A 
ATOM     17  C   LIG A   1      -1.853  -2.320   0.588  0.00  0.00    +0.012 A 
ATOM     18  O   LIG A   1      -2.442  -5.894  -0.005  0.00  0.00    -0.453 OA
ATOM     19  C   LIG A   1      -1.412  -6.569  -0.757  0.00  0.00    +0.466 C 
ATOM     20  O   LIG A   1      -0.320  -5.705  -1.136  0.00  0.00    -0.453 OA
ENDBRANCH   7  12
BRANCH  10  21
ATOM     21  O   LIG A   1      -0.237   5.247   0.064  0.00  0.00    -0.491 OA
ATOM     22  C   LIG A   1       0.367   6.343   0.740  0.00  0.00    +0.277 C 
ENDBRANCH  10  21
BRANCH   9  23
ATOM     23  O   LIG A   1       2.690   5.004   0.091  0.00  0.00    -0.503 OA
ATOM     24  H   LIG A   1       3.613   4.710   0.028  0.00  0.00    +0.292 HD
ENDBRANCH   9  23
TORSDOF 3
