@<TRIPOS>MOLECULE
NuBBE_233
 82 84 0 0 0
SMALL
GASTEIGER

@<TRIPOS>ATOM
      1 C          -1.0122    1.7987    2.5083 C.3     1  LIG1       -0.0584
      2 C          -1.1569    0.5653    1.6032 C.3     1  LIG1        0.0029
      3 H          -2.2031    0.2892    1.7916 H       1  LIG1        0.0340
      4 C          -0.3655   -0.6368    2.1680 C.3     1  LIG1        0.1438
      5 H          -0.3227   -0.5407    3.2614 H       1  LIG1        0.0775
      6 O          -1.0909   -1.8598    1.8885 O.3     1  LIG1       -0.4573
      7 C          -2.1067   -2.1043    2.7884 C.2     1  LIG1        0.3074
      8 C          -2.8655   -3.3681    2.4752 C.3     1  LIG1        0.0447
      9 C          -4.3243   -3.1175    2.0882 C.3     1  LIG1       -0.0458
     10 C          -5.1908   -2.5450    3.2053 C.3     1  LIG1       -0.0648
     11 O          -2.3903   -1.3768    3.7340 O.2     1  LIG1       -0.2508
     12 C           1.1033   -0.7066    1.7235 C.3     1  LIG1        0.1554
     13 H           1.5013   -1.6790    2.0469 H       1  LIG1        0.0783
     14 O           1.8300    0.3228    2.4626 O.3     1  LIG1       -0.4567
     15 C           2.2981   -0.0086    3.7149 C.2     1  LIG1        0.3043
     16 C           3.1373    1.0725    4.2778 C.3     1  LIG1        0.0332
     17 O           2.0376   -1.0760    4.2770 O.2     1  LIG1       -0.2512
     18 C           1.3699   -0.5802    0.1754 C.3     1  LIG1        0.1036
     19 C           1.6805   -1.9906   -0.3515 C.2     1  LIG1        0.0125
     20 C           3.1579   -2.2185   -0.4968 C.3     1  LIG1        0.2315
     21 H           3.5327   -3.1291   -0.0205 H       1  LIG1        0.1111
     22 O           3.5660   -2.1685   -1.8830 O.3     1  LIG1       -0.4311
     23 C           3.3688   -3.2609   -2.6566 C.2     1  LIG1        0.3063
     24 C           4.0917   -3.1227   -3.9611 C.3     1  LIG1        0.0333
     25 O           2.7589   -4.2745   -2.3634 O.2     1  LIG1       -0.2511
     26 O           3.7204   -1.0832    0.1689 O.3     1  LIG1       -0.2971
     27 C           2.8130    0.0171   -0.0344 C.3     1  LIG1        0.2216
     28 H           3.0350    0.7753    0.7208 H       1  LIG1        0.1068
     29 O           3.0073    0.6624   -1.2992 O.3     1  LIG1       -0.4341
     30 C           4.1176    1.4561   -1.3135 C.2     1  LIG1        0.3061
     31 C           4.0246    2.4588   -2.4238 C.3     1  LIG1        0.0333
     32 O           5.0268    1.4475   -0.4987 O.2     1  LIG1       -0.2511
     33 C           0.7776   -2.8180   -0.8878 C.2     1  LIG1       -0.0499
     34 C          -0.3949   -2.2585   -1.5929 C.3     1  LIG1        0.0741
     35 H          -0.5248   -2.7966   -2.5387 H       1  LIG1        0.0638
     36 O          -1.5155   -2.5019   -0.7885 O.3     1  LIG1       -0.3877
     37 C          -0.1513   -0.7749   -1.9133 C.3     1  LIG1       -0.0188
     38 C           0.2083    0.1058   -0.6690 C.3     1  LIG1       -0.0135
     39 H           0.7217    0.9657   -1.1147 H       1  LIG1        0.0319
     40 C          -1.0764    0.7934    0.0332 C.3     1  LIG1       -0.0185
     41 C          -2.4703    0.3257   -0.5242 C.3     1  LIG1       -0.0586
     42 C          -1.0787    2.3452   -0.3696 C.3     1  LIG1       -0.0282
     43 C          -1.1938    2.6274   -1.8683 C.2     1  LIG1       -0.0806
     44 C          -1.8306    3.6238   -2.5152 C.2     1  LIG1       -0.0549
     45 C          -2.5307    4.7130   -1.8678 C.2     1  LIG1       -0.0662
     46 C          -1.9533    5.5819   -1.0295 C.2     1  LIG1       -0.0985
     47 C          -1.8663    3.6622   -4.0278 C.3     1  LIG1       -0.0400
     48 H          -0.9146    1.5085    3.5626 H       1  LIG1        0.0234
     49 H          -1.9294    2.3987    2.4589 H       1  LIG1        0.0234
     50 H          -0.1597    2.4294    2.2560 H       1  LIG1        0.0234
     51 H          -2.8049   -4.0171    3.3564 H       1  LIG1        0.0377
     52 H          -2.3613   -3.8984    1.6604 H       1  LIG1        0.0377
     53 H          -4.7605   -4.0764    1.7839 H       1  LIG1        0.0268
     54 H          -4.3789   -2.4498    1.2209 H       1  LIG1        0.0268
     55 H          -5.0592   -3.0931    4.1435 H       1  LIG1        0.0230
     56 H          -6.2487   -2.6069    2.9263 H       1  LIG1        0.0230
     57 H          -4.9665   -1.4891    3.3846 H       1  LIG1        0.0230
     58 H           4.0351    1.1959    3.6658 H       1  LIG1        0.0342
     59 H           3.4405    0.8019    5.2930 H       1  LIG1        0.0342
     60 H           2.5712    2.0057    4.3258 H       1  LIG1        0.0342
     61 H           5.1632   -3.0366   -3.7584 H       1  LIG1        0.0342
     62 H           3.7211   -2.2621   -4.5267 H       1  LIG1        0.0342
     63 H           3.9286   -4.0353   -4.5496 H       1  LIG1        0.0342
     64 H           4.0781    1.9625   -3.3958 H       1  LIG1        0.0342
     65 H           4.8555    3.1638   -2.3344 H       1  LIG1        0.0342
     66 H           3.0937    3.0234   -2.3212 H       1  LIG1        0.0342
     67 H           1.0049   -3.8509   -1.1276 H       1  LIG1        0.0599
     68 H          -1.2931   -2.1624    0.0978 H       1  LIG1        0.2102
     69 H          -0.9965   -0.3772   -2.4755 H       1  LIG1        0.0296
     70 H           0.6960   -0.7089   -2.6181 H       1  LIG1        0.0296
     71 H          -2.6790   -0.7272   -0.3782 H       1  LIG1        0.0235
     72 H          -2.6132    0.5456   -1.5854 H       1  LIG1        0.0235
     73 H          -3.2829    0.8474   -0.0029 H       1  LIG1        0.0235
     74 H          -1.9088    2.8384    0.1501 H       1  LIG1        0.0313
     75 H          -0.1462    2.8032   -0.0226 H       1  LIG1        0.0313
     76 H          -0.7315    1.8838   -2.5123 H       1  LIG1        0.0575
     77 H          -3.5780    4.8449   -2.1344 H       1  LIG1        0.0614
     78 H          -0.9014    5.5166   -0.7720 H       1  LIG1        0.0535
     79 H          -2.5288    6.3915   -0.5924 H       1  LIG1        0.0535
     80 H          -1.2520    2.8704   -4.4731 H       1  LIG1        0.0277
     81 H          -1.4763    4.6148   -4.4043 H       1  LIG1        0.0277
     82 H          -2.8872    3.5325   -4.4037 H       1  LIG1        0.0277
@<TRIPOS>BOND
     1     2     4    1
     2     6     7    1
     3     7     8    1
     4     8     9    1
     5     9    10    1
     6     7    11    2
     7     4    12    1
     8    14    15    1
     9    15    16    1
    10    15    17    2
    11    12    18    1
    12    18    19    1
    13    19    20    1
    14    22    23    1
    15    23    24    1
    16    23    25    2
    17    20    26    1
    18    26    27    1
    19    18    27    1
    20    29    30    1
    21    30    31    1
    22    30    32    2
    23    19    33    2
    24    33    34    1
    25    34    37    1
    26    37    38    1
    27    18    38    1
    28    38    40    1
    29     2    40    1
    30    42    43    1
    31    43    44    2
    32    44    45    1
    33    45    46    2
    34    44    47    1
    35    12    13    1
    36    12    14    1
    37    20    21    1
    38    20    22    1
    39    27    28    1
    40    27    29    1
    41    38    39    1
    42    40    41    1
    43    40    42    1
    44     4     6    1
    45     4     5    1
    46     2     3    1
    47     2     1    1
    48    34    36    1
    49    34    35    1
    50     1    48    1
    51     1    49    1
    52     1    50    1
    53     8    51    1
    54     8    52    1
    55     9    53    1
    56     9    54    1
    57    10    55    1
    58    10    56    1
    59    10    57    1
    60    16    58    1
    61    16    59    1
    62    16    60    1
    63    24    61    1
    64    24    62    1
    65    24    63    1
    66    31    64    1
    67    31    65    1
    68    31    66    1
    69    33    67    1
    70    36    68    1
    71    37    69    1
    72    37    70    1
    73    41    71    1
    74    41    72    1
    75    41    73    1
    76    42    74    1
    77    42    75    1
    78    43    76    1
    79    45    77    1
    80    46    78    1
    81    46    79    1
    82    47    80    1
    83    47    81    1
    84    47    82    1
