REMARK  Name = NuBBE_145
REMARK  15 active torsions:
REMARK  status: ('A' for Active; 'I' for Inactive)
REMARK    1  A    between atoms: C_1  and  C_2
REMARK    2  A    between atoms: C_2  and  C_3
REMARK    3  A    between atoms: C_7  and  C_8
REMARK    4  A    between atoms: C_11  and  O_13
REMARK    5  A    between atoms: O_13  and  C_14
REMARK    6  A    between atoms: C_14  and  C_15
REMARK    7  A    between atoms: C_15  and  C_16
REMARK    8  A    between atoms: C_16  and  O_17
REMARK    9  A    between atoms: O_17  and  C_18
REMARK   10  A    between atoms: C_18  and  C_19
REMARK   11  A    between atoms: C_19  and  C_20
REMARK   12  A    between atoms: C_20  and  C_21
REMARK   13  A    between atoms: C_25  and  C_26
REMARK   14  A    between atoms: C_30  and  C_31
REMARK   15  A    between atoms: C_30  and  C_32
REMARK                            x       y       z     vdW  Elec       q    Type
REMARK                         _______ _______ _______ _____ _____    ______ ____
ROOT
ATOM      1  C   LIG A   1      -0.897  -2.872  -2.856  0.00  0.00    +0.011 C 
ATOM      2  C   LIG A   1      -0.224  -1.580  -3.397  0.00  0.00    -0.028 C 
ATOM      3  C   LIG A   1      -1.087  -1.153  -4.606  0.00  0.00    +0.011 C 
ATOM      4  C   LIG A   1       1.181  -2.077  -3.857  0.00  0.00    +0.007 C 
ATOM      5  C   LIG A   1       2.194  -1.005  -4.222  0.00  0.00    +0.001 C 
ATOM      6  C   LIG A   1       2.286   0.079  -3.156  0.00  0.00    +0.007 C 
ATOM      7  C   LIG A   1       0.926   0.748  -2.801  0.00  0.00    -0.020 C 
ATOM      8  C   LIG A   1       0.395   1.468  -4.067  0.00  0.00    +0.012 C 
ATOM      9  C   LIG A   1      -0.010  -0.420  -2.305  0.00  0.00    +0.042 C 
ATOM     10  C   LIG A   1      -1.262   0.106  -1.543  0.00  0.00    +0.183 C 
ATOM     11  C   LIG A   1      -1.029   1.303  -0.584  0.00  0.00    +0.080 C 
ATOM     12  C   LIG A   1      -0.141   2.451  -1.076  0.00  0.00    +0.074 C 
ATOM     13  C   LIG A   1      -0.939   3.364  -2.023  0.00  0.00    +0.042 C 
ATOM     14  C   LIG A   1       1.154   1.872  -1.701  0.00  0.00    +0.027 C 
ATOM     15  C   LIG A   1       2.119   1.497  -0.562  0.00  0.00    +0.010 C 
ATOM     16  C   LIG A   1       2.505   2.781   0.144  0.00  0.00    +0.039 C 
ATOM     17  C   LIG A   1       1.295   3.517   0.726  0.00  0.00    +0.085 C 
ATOM     18  C   LIG A   1       1.574   5.032   0.670  0.00  0.00    +0.046 C 
ATOM     19  O   LIG A   1       0.058   3.338   0.043  0.00  0.00    -0.363 OA
ENDROOT
BRANCH  17  20
ATOM     20  C   LIG A   1       1.125   3.125   2.186  0.00  0.00    -0.001 C 
ATOM     21  C   LIG A   1       0.054   2.550   2.753  0.00  0.00    +0.007 C 
ENDBRANCH  17  20
BRANCH  10  22
ATOM     22  O   LIG A   1      -1.921  -0.930  -0.752  0.00  0.00    -0.461 OA
BRANCH  22  23
ATOM     23  C   LIG A   1      -1.233  -1.448   0.329  0.00  0.00    +0.318 C 
ATOM     24  O   LIG A   1      -0.045  -1.410   0.509  0.00  0.00    -0.250 OA
BRANCH  23  25
ATOM     25  C   LIG A   1      -2.195  -2.053   1.310  0.00  0.00    +0.240 C 
BRANCH  25  26
ATOM     26  C   LIG A   1      -1.705  -1.955   2.725  0.00  0.00    +0.318 C 
ATOM     27  O   LIG A   1      -1.816  -0.969   3.420  0.00  0.00    -0.250 OA
BRANCH  26  28
ATOM     28  O   LIG A   1      -1.093  -3.128   3.090  0.00  0.00    -0.464 OA
BRANCH  28  29
ATOM     29  C   LIG A   1      -0.611  -3.181   4.449  0.00  0.00    +0.232 C 
BRANCH  29  30
ATOM     30  C   LIG A   1      -1.763  -3.529   5.392  0.00  0.00    +0.041 C 
BRANCH  30  31
ATOM     31  C   LIG A   1      -1.353  -3.632   6.861  0.00  0.00    +0.000 C 
ATOM     32  C   LIG A   1      -0.837  -2.326   7.445  0.00  0.00    +0.004 C 
ENDBRANCH  30  31
ENDBRANCH  29  30
ENDBRANCH  28  29
ENDBRANCH  26  28
ENDBRANCH  25  26
ENDBRANCH  23  25
ENDBRANCH  22  23
ENDBRANCH  10  22
TORSDOF 9
