@<TRIPOS>MOLECULE
NuBBE_1396
 40 42 0 0 0
SMALL
GASTEIGER

@<TRIPOS>ATOM
      1 C          -1.0787   -1.9326   -0.3971 C.3     1  LIG1       -0.0593
      2 C           0.4120   -1.9507   -0.1056 C.3     1  LIG1       -0.0283
      3 C           0.8230   -3.3226    0.3798 C.3     1  LIG1       -0.0593
      4 C           1.0805   -0.6795    0.4530 C.3     1  LIG1       -0.0263
      5 H           1.7912   -0.8398    1.2662 H       1  LIG1        0.0313
      6 C           1.5210   -1.1988   -0.8875 C.3     1  LIG1       -0.0316
      7 H           2.5162   -1.6493   -0.8652 H       1  LIG1        0.0309
      8 C           1.2862   -0.6717   -2.2658 C.3     1  LIG1       -0.0457
      9 C           1.1741    0.8300   -2.5427 C.3     1  LIG1       -0.0314
     10 C           0.2866    1.7618   -1.7322 C.2     1  LIG1       -0.0732
     11 C           0.1017    2.9968   -2.1824 C.2     1  LIG1       -0.0992
     12 C          -0.4345    1.1702   -0.5343 C.3     1  LIG1       -0.0144
     13 H          -0.9675    0.3515   -1.0004 H       1  LIG1        0.0349
     14 C           0.4681    0.6887    0.6263 C.3     1  LIG1       -0.0023
     15 H           1.3154    1.3875    0.7035 H       1  LIG1        0.0337
     16 C          -0.3743    0.8238    1.9416 C.3     1  LIG1        0.0670
     17 C          -0.5383   -0.4299    2.8180 C.3     1  LIG1       -0.0358
     18 O           0.2615    1.8100    2.7752 O.3     1  LIG1       -0.3885
     19 C          -1.7335    1.3878    1.5144 C.3     1  LIG1       -0.0234
     20 C          -1.5259    2.0080    0.1378 C.3     1  LIG1       -0.0436
     21 H          -1.6050   -1.0761    0.0221 H       1  LIG1        0.0235
     22 H          -1.5762   -2.7717    0.1044 H       1  LIG1        0.0235
     23 H          -1.2902   -2.0172   -1.4649 H       1  LIG1        0.0235
     24 H           1.8996   -3.4137    0.5396 H       1  LIG1        0.0235
     25 H           0.5278   -4.0672   -0.3700 H       1  LIG1        0.0235
     26 H           0.3108   -3.5655    1.3163 H       1  LIG1        0.0235
     27 H           0.4685   -1.2159   -2.7451 H       1  LIG1        0.0271
     28 H           2.1763   -0.9810   -2.8400 H       1  LIG1        0.0271
     29 H           0.7965    0.8859   -3.5784 H       1  LIG1        0.0310
     30 H           2.1806    1.2648   -2.5778 H       1  LIG1        0.0310
     31 H           0.5895    3.3513   -3.0957 H       1  LIG1        0.0534
     32 H          -0.5544    3.7245   -1.7027 H       1  LIG1        0.0534
     33 H          -0.6199   -1.3568    2.2511 H       1  LIG1        0.0257
     34 H          -1.4531   -0.3665    3.4192 H       1  LIG1        0.0257
     35 H           0.2902   -0.5363    3.5279 H       1  LIG1        0.0257
     36 H          -0.2191    1.8374    3.6215 H       1  LIG1        0.2102
     37 H          -2.1030    2.1497    2.2111 H       1  LIG1        0.0293
     38 H          -2.4896    0.5982    1.4519 H       1  LIG1        0.0293
     39 H          -1.2567    3.0619    0.2456 H       1  LIG1        0.0272
     40 H          -2.4572    1.9532   -0.4385 H       1  LIG1        0.0272
@<TRIPOS>BOND
     1     2     4    1
     2     4     6    1
     3     2     6    1
     4     6     8    1
     5     8     9    1
     6     9    10    1
     7    10    12    1
     8    12    14    1
     9     4    14    1
    10    14    16    1
    11    16    19    1
    12    19    20    1
    13    12    20    1
    14     1     2    1
    15     2     3    1
    16     4     5    1
    17     6     7    1
    18    10    11    2
    19    12    13    1
    20    14    15    1
    21    16    18    1
    22    16    17    1
    23     1    21    1
    24     1    22    1
    25     1    23    1
    26     3    24    1
    27     3    25    1
    28     3    26    1
    29     8    27    1
    30     8    28    1
    31     9    29    1
    32     9    30    1
    33    11    31    1
    34    11    32    1
    35    17    33    1
    36    17    34    1
    37    17    35    1
    38    18    36    1
    39    19    37    1
    40    19    38    1
    41    20    39    1
    42    20    40    1
