REMARK  Name = NuBBE_1996
REMARK  5 active torsions:
REMARK  status: ('A' for Active; 'I' for Inactive)
REMARK    1  A    between atoms: O_1  and  C_2
REMARK    2  A    between atoms: C_4  and  O_5
REMARK    3  A    between atoms: C_9  and  C_11
REMARK    4  A    between atoms: C_14  and  O_15
REMARK    5  A    between atoms: C_21  and  C_22
REMARK                            x       y       z     vdW  Elec       q    Type
REMARK                         _______ _______ _______ _____ _____    ______ ____
ROOT
ATOM      1  C   LIG A   1      -2.800  -1.234  -1.389  0.00  0.00    +0.127 A 
ATOM      2  C   LIG A   1      -2.039  -2.392  -1.541  0.00  0.00    +0.092 A 
ATOM      3  C   LIG A   1      -0.647  -2.302  -1.581  0.00  0.00    +0.134 A 
ATOM      4  C   LIG A   1      -0.013  -1.060  -1.450  0.00  0.00    +0.101 A 
ATOM      5  C   LIG A   1       1.462  -0.894  -1.539  0.00  0.00    +0.174 C 
ATOM      6  C   LIG A   1       1.949   0.522  -1.636  0.00  0.00    +0.129 C 
ATOM      7  C   LIG A   1       1.130   1.386  -0.690  0.00  0.00    +0.211 C 
ATOM      8  O   LIG A   1      -0.253   1.348  -1.088  0.00  0.00    -0.483 OA
ATOM      9  O   LIG A   1       2.251  -1.829  -1.604  0.00  0.00    -0.292 OA
ATOM     10  C   LIG A   1      -0.791   0.095  -1.271  0.00  0.00    +0.142 A 
ATOM     11  C   LIG A   1      -2.197   0.023  -1.275  0.00  0.00    +0.034 A 
ATOM     12  C   LIG A   1      -3.033   1.261  -1.081  0.00  0.00    +0.051 C 
ENDROOT
BRANCH   7  13
ATOM     13  C   LIG A   1       1.332   1.153   0.808  0.00  0.00    -0.007 A 
ATOM     14  C   LIG A   1       2.615   0.923   1.339  0.00  0.00    +0.011 A 
ATOM     15  C   LIG A   1       2.810   0.748   2.713  0.00  0.00    +0.046 A 
ATOM     16  C   LIG A   1       1.722   0.814   3.573  0.00  0.00    +0.117 A 
ATOM     17  C   LIG A   1       0.449   1.061   3.083  0.00  0.00    +0.046 A 
ATOM     18  C   LIG A   1       0.256   1.240   1.710  0.00  0.00    +0.011 A 
BRANCH  16  19
ATOM     19  O   LIG A   1       1.868   0.651   4.919  0.00  0.00    -0.507 OA
ATOM     20  H   LIG A   1       2.803   0.469   5.108  0.00  0.00    +0.292 HD
ENDBRANCH  16  19
ENDBRANCH   7  13
BRANCH   1  21
ATOM     21  O   LIG A   1      -4.165  -1.317  -1.348  0.00  0.00    -0.506 OA
ATOM     22  H   LIG A   1      -4.439  -2.244  -1.433  0.00  0.00    +0.292 HD
ENDBRANCH   1  21
BRANCH   3  23
ATOM     23  O   LIG A   1       0.079  -3.444  -1.765  0.00  0.00    -0.506 OA
ATOM     24  H   LIG A   1      -0.498  -4.223  -1.772  0.00  0.00    +0.292 HD
ENDBRANCH   3  23
TORSDOF 4
