REMARK  Name = NuBBE_1936
REMARK  3 active torsions:
REMARK  status: ('A' for Active; 'I' for Inactive)
REMARK    1  A    between atoms: C_1  and  C_2
REMARK    2  A    between atoms: C_2  and  C_15
REMARK    3  A    between atoms: C_6  and  C_7
REMARK                            x       y       z     vdW  Elec       q    Type
REMARK                         _______ _______ _______ _____ _____    ______ ____
ROOT
ATOM      1  C   LIG A   1       1.889  -0.751   0.423  0.00  0.00    +0.012 C 
ATOM      2  C   LIG A   1       1.065   0.523   0.130  0.00  0.00    -0.025 C 
ATOM      3  C   LIG A   1      -0.537   0.345   0.012  0.00  0.00    +0.000 C 
ATOM      4  C   LIG A   1      -1.008  -0.683  -1.072  0.00  0.00    +0.016 C 
ATOM      5  C   LIG A   1      -0.742  -2.163  -0.769  0.00  0.00    +0.031 C 
ATOM      6  C   LIG A   1      -0.755  -2.524   0.693  0.00  0.00    -0.076 C 
ATOM      7  C   LIG A   1      -0.421  -3.946   1.042  0.00  0.00    +0.038 C 
ATOM      8  C   LIG A   1      -0.982  -1.610   1.646  0.00  0.00    -0.027 C 
ATOM      9  C   LIG A   1      -1.192  -0.154   1.347  0.00  0.00    +0.039 C 
ATOM     10  C   LIG A   1      -1.105   1.736  -0.431  0.00  0.00    -0.070 C 
ATOM     11  C   LIG A   1      -0.515   2.313  -1.705  0.00  0.00    +0.031 C 
ATOM     12  C   LIG A   1       1.001   2.413  -1.625  0.00  0.00    +0.005 C 
ATOM     13  C   LIG A   1       1.635   1.093  -1.204  0.00  0.00    +0.007 C 
ATOM     14  C   LIG A   1      -2.032   2.457   0.228  0.00  0.00    +0.008 C 
ATOM     15  C   LIG A   1       1.430   1.501   1.285  0.00  0.00    +0.012 C 
ENDROOT
TORSDOF 0
