REMARK  Name = NuBBE_1274
REMARK  4 active torsions:
REMARK  status: ('A' for Active; 'I' for Inactive)
REMARK    1  A    between atoms: C_12  and  O_14
REMARK    2  A    between atoms: C_15  and  O_17
REMARK    3  A    between atoms: C_18  and  C_19
REMARK    4  A    between atoms: C_18  and  C_20
REMARK                            x       y       z     vdW  Elec       q    Type
REMARK                         _______ _______ _______ _____ _____    ______ ____
ROOT
ATOM      1  O   LIG A   1      -5.298  -0.855   0.573  0.00  0.00    -0.245 OA
ATOM      2  C   LIG A   1      -4.156  -1.247   0.649  0.00  0.00    +0.337 A 
ATOM      3  C   LIG A   1      -3.816  -2.672   0.410  0.00  0.00    +0.092 A 
ATOM      4  C   LIG A   1      -2.563  -3.051   0.144  0.00  0.00    +0.018 A 
ATOM      5  O   LIG A   1      -3.078  -0.437   1.034  0.00  0.00    -0.422 OA
ATOM      6  C   LIG A   1      -1.731  -0.830   0.734  0.00  0.00    +0.148 A 
ATOM      7  C   LIG A   1      -1.582  -1.996  -0.006  0.00  0.00    +0.018 A 
ATOM      8  C   LIG A   1      -0.683  -1.973  -1.067  0.00  0.00    +0.015 A 
ATOM      9  C   LIG A   1      -0.203  -0.724  -1.495  0.00  0.00    +0.047 A 
ATOM     10  C   LIG A   1      -0.395   0.404  -0.692  0.00  0.00    +0.131 A 
ATOM     11  C   LIG A   1      -0.778   0.182   0.614  0.00  0.00    +0.068 A 
ATOM     12  C   LIG A   1       0.572  -0.018   1.367  0.00  0.00    +0.184 C 
ATOM     13  C   LIG A   1       1.726   0.943   0.903  0.00  0.00    +0.191 C 
ATOM     14  C   LIG A   1       1.488   1.727  -0.450  0.00  0.00    +0.134 C 
ATOM     15  C   LIG A   1       2.384   1.359  -1.653  0.00  0.00    +0.058 C 
ATOM     16  C   LIG A   1       1.777   3.221  -0.172  0.00  0.00    +0.058 C 
ATOM     17  O   LIG A   1       0.145   1.624  -0.961  0.00  0.00    -0.483 OA
ENDROOT
BRANCH  12  18
ATOM     18  O   LIG A   1       0.374   0.028   2.778  0.00  0.00    -0.384 OA
ATOM     19  H   LIG A   1       0.094  -0.869   3.035  0.00  0.00    +0.210 HD
ENDBRANCH  12  18
BRANCH  13  20
ATOM     20  O   LIG A   1       2.943   0.165   0.814  0.00  0.00    -0.385 OA
ATOM     21  H   LIG A   1       3.648   0.745   0.481  0.00  0.00    +0.210 HD
ENDBRANCH  13  20
TORSDOF 2
