@<TRIPOS>MOLECULE
NuBBE_1986
 29 30 0 0 0
SMALL
GASTEIGER

@<TRIPOS>ATOM
      1 C          -2.1460    0.1309   -0.5805 C.3     1  LIG1       -0.0567
      2 C          -0.6293    0.1115   -0.5370 C.3     1  LIG1       -0.0007
      3 C           0.0270    0.1019    0.8804 C.3     1  LIG1       -0.0242
      4 C          -0.2846    1.3354    1.7549 C.3     1  LIG1       -0.0590
      5 C          -0.2732   -1.1235    1.7653 C.3     1  LIG1       -0.0590
      6 C           1.4513    0.1025    0.2691 C.3     1  LIG1       -0.0329
      7 H           2.2748    0.0967    0.9870 H       1  LIG1        0.0307
      8 C           1.4447   -1.1349   -0.6608 C.3     1  LIG1       -0.0230
      9 C           0.0241   -1.1067   -1.2584 C.3     1  LIG1        0.0614
     10 H           0.0519   -0.9673   -2.3450 H       1  LIG1        0.0599
     11 O          -0.6656   -2.3197   -1.0087 O.3     1  LIG1       -0.3912
     12 C           1.4490    1.3473   -0.6462 C.3     1  LIG1       -0.0490
     13 C           0.0117    1.3673   -1.1953 C.3     1  LIG1       -0.0445
     14 H          -2.5771   -0.7366   -0.0712 H       1  LIG1        0.0236
     15 H          -2.5041    0.1236   -1.6156 H       1  LIG1        0.0236
     16 H          -2.5460    1.0293   -0.0990 H       1  LIG1        0.0236
     17 H          -1.3256    1.3120    2.0973 H       1  LIG1        0.0235
     18 H          -0.1415    2.2962    1.2566 H       1  LIG1        0.0235
     19 H           0.3572    1.3442    2.6436 H       1  LIG1        0.0235
     20 H          -1.3276   -1.1378    2.0628 H       1  LIG1        0.0235
     21 H           0.3287   -1.0857    2.6812 H       1  LIG1        0.0235
     22 H          -0.0594   -2.0879    1.3037 H       1  LIG1        0.0235
     23 H           1.6436   -2.0577   -0.1062 H       1  LIG1        0.0293
     24 H           2.2069   -1.0518   -1.4433 H       1  LIG1        0.0293
     25 H          -0.1418   -3.0394   -1.4012 H       1  LIG1        0.2098
     26 H           2.1898    1.2787   -1.4497 H       1  LIG1        0.0268
     27 H           1.6625    2.2609   -0.0815 H       1  LIG1        0.0268
     28 H          -0.0000    1.3176   -2.2899 H       1  LIG1        0.0272
     29 H          -0.5015    2.2928   -0.9124 H       1  LIG1        0.0272
@<TRIPOS>BOND
     1     1     2    1
     2     2     3    1
     3     3     4    1
     4     3     5    1
     5     3     6    1
     6     6     7    1
     7     6     8    1
     8     8     9    1
     9     9    10    1
    10     2     9    1
    11     9    11    1
    12     6    12    1
    13    12    13    1
    14     2    13    1
    15     1    14    1
    16     1    15    1
    17     1    16    1
    18     4    17    1
    19     4    18    1
    20     4    19    1
    21     5    20    1
    22     5    21    1
    23     5    22    1
    24     8    23    1
    25     8    24    1
    26    11    25    1
    27    12    26    1
    28    12    27    1
    29    13    28    1
    30    13    29    1
