REMARK  Name = NuBBE_2166
REMARK  16 active torsions:
REMARK  status: ('A' for Active; 'I' for Inactive)
REMARK    1  A    between atoms: C_2  and  C_3
REMARK    2  A    between atoms: C_2  and  C_14
REMARK    3  A    between atoms: C_4  and  O_5
REMARK    4  A    between atoms: C_9  and  O_10
REMARK    5  A    between atoms: O_10  and  C_11
REMARK    6  A    between atoms: C_11  and  C_12
REMARK    7  A    between atoms: C_14  and  C_15
REMARK    8  A    between atoms: C_15  and  C_16
REMARK    9  A    between atoms: C_16  and  C_17
REMARK   10  A    between atoms: C_17  and  C_18
REMARK   11  A    between atoms: C_18  and  C_19
REMARK   12  A    between atoms: C_19  and  C_20
REMARK   13  A    between atoms: C_20  and  C_21
REMARK   14  A    between atoms: C_21  and  C_22
REMARK   15  A    between atoms: C_22  and  C_23
REMARK   16  A    between atoms: C_23  and  C_24
REMARK                            x       y       z     vdW  Elec       q    Type
REMARK                         _______ _______ _______ _____ _____    ______ ____
ROOT
ATOM      1  C   LIG A   1      -1.673   2.595   1.705  0.00  0.00    +0.080 C 
ENDROOT
BRANCH   1   3
ATOM      2  O   LIG A   1      -1.912   1.090   3.598  0.00  0.00    -0.292 OA
ATOM      3  C   LIG A   1      -2.436   1.624   2.619  0.00  0.00    +0.170 C 
BRANCH   3   4
ATOM      4  C   LIG A   1      -3.856   1.268   2.303  0.00  0.00    +0.101 A 
ATOM      5  C   LIG A   1      -4.346  -0.005   2.641  0.00  0.00    +0.131 A 
ATOM      6  C   LIG A   1      -5.593  -0.439   2.187  0.00  0.00    +0.046 A 
ATOM      7  C   LIG A   1      -6.385   0.406   1.416  0.00  0.00    +0.007 A 
ATOM      8  C   LIG A   1      -5.964   1.710   1.162  0.00  0.00    +0.047 A 
ATOM      9  C   LIG A   1      -4.727   2.149   1.638  0.00  0.00    +0.146 A 
BRANCH   5  10
ATOM     10  O   LIG A   1      -3.675  -0.887   3.445  0.00  0.00    -0.506 OA
ATOM     11  H   LIG A   1      -3.000  -0.380   3.948  0.00  0.00    +0.292 HD
ENDBRANCH   5  10
BRANCH   9  12
ATOM     12  O   LIG A   1      -4.301   3.491   1.485  0.00  0.00    -0.425 OA
BRANCH  12  13
ATOM     13  C   LIG A   1      -5.088   4.592   1.082  0.00  0.00    +0.309 C 
ATOM     14  C   LIG A   1      -4.159   5.766   0.905  0.00  0.00    +0.136 C 
ATOM     15  O   LIG A   1      -6.279   4.621   0.902  0.00  0.00    -0.251 OA
ENDBRANCH  12  13
ENDBRANCH   9  12
ENDBRANCH   3   4
ENDBRANCH   1   3
BRANCH   1  16
ATOM     16  C   LIG A   1      -0.160   2.335   1.701  0.00  0.00    +0.008 C 
BRANCH  16  17
ATOM     17  C   LIG A   1       0.600   3.304   0.781  0.00  0.00    +0.000 C 
BRANCH  17  18
ATOM     18  C   LIG A   1       2.116   3.055   0.738  0.00  0.00    +0.000 C 
BRANCH  18  19
ATOM     19  C   LIG A   1       2.587   1.699   0.184  0.00  0.00    -0.000 C 
BRANCH  19  20
ATOM     20  C   LIG A   1       2.326   1.469  -1.310  0.00  0.00    -0.000 C 
BRANCH  20  21
ATOM     21  C   LIG A   1       2.895   0.137  -1.839  0.00  0.00    +0.000 C 
BRANCH  21  22
ATOM     22  C   LIG A   1       2.283  -1.133  -1.212  0.00  0.00    +0.000 C 
BRANCH  22  23
ATOM     23  C   LIG A   1       3.009  -2.380  -1.744  0.00  0.00    +0.005 C 
BRANCH  23  24
ATOM     24  C   LIG A   1       2.383  -3.735  -1.383  0.00  0.00    +0.035 C 
BRANCH  24  25
ATOM     25  C   LIG A   1       3.185  -4.889  -1.965  0.00  0.00    -0.047 A 
ATOM     26  C   LIG A   1       3.796  -5.832  -1.126  0.00  0.00    +0.003 A 
ATOM     27  C   LIG A   1       4.478  -6.929  -1.662  0.00  0.00    +0.000 A 
ATOM     28  C   LIG A   1       4.566  -7.095  -3.043  0.00  0.00    +0.000 A 
ATOM     29  C   LIG A   1       3.995  -6.148  -3.889  0.00  0.00    +0.000 A 
ATOM     30  C   LIG A   1       3.312  -5.051  -3.354  0.00  0.00    +0.003 A 
ENDBRANCH  24  25
ENDBRANCH  23  24
ENDBRANCH  22  23
ENDBRANCH  21  22
ENDBRANCH  20  21
ENDBRANCH  19  20
ENDBRANCH  18  19
ENDBRANCH  17  18
ENDBRANCH  16  17
ENDBRANCH   1  16
TORSDOF 15
