REMARK  Name = NuBBE_1158
REMARK  6 active torsions:
REMARK  status: ('A' for Active; 'I' for Inactive)
REMARK    1  A    between atoms: C_1  and  C_2
REMARK    2  A    between atoms: C_8  and  C_10
REMARK    3  A    between atoms: C_12  and  O_13
REMARK    4  A    between atoms: C_17  and  C_39
REMARK    5  A    between atoms: C_25  and  C_26
REMARK    6  A    between atoms: C_25  and  C_27
REMARK                            x       y       z     vdW  Elec       q    Type
REMARK                         _______ _______ _______ _____ _____    ______ ____
ROOT
ATOM      1  C   LIG A   1      -2.107   0.502  -0.045  0.00  0.00    +0.022 C 
ATOM      2  C   LIG A   1      -0.714   0.233   0.617  0.00  0.00    +0.062 C 
ATOM      3  C   LIG A   1      -0.645  -1.308   0.950  0.00  0.00    +0.128 C 
ATOM      4  C   LIG A   1      -1.164  -1.980   2.233  0.00  0.00    +0.260 C 
ATOM      5  C   LIG A   1      -0.882  -3.412   2.517  0.00  0.00    +0.340 C 
ATOM      6  O   LIG A   1      -0.486  -4.201   1.471  0.00  0.00    -0.454 OA
ATOM      7  C   LIG A   1      -0.341  -3.696   0.106  0.00  0.00    +0.222 C 
ATOM      8  C   LIG A   1       0.241  -2.228   0.117  0.00  0.00    +0.042 C 
ATOM      9  C   LIG A   1       0.374  -1.635  -1.290  0.00  0.00    +0.014 C 
ATOM     10  C   LIG A   1       1.068  -0.278  -1.269  0.00  0.00    +0.006 C 
ATOM     11  C   LIG A   1       0.409   0.795  -0.379  0.00  0.00    +0.017 C 
ATOM     12  C   LIG A   1       1.381   1.902   0.275  0.00  0.00    +0.041 C 
ATOM     13  C   LIG A   1       0.515   3.041   0.902  0.00  0.00    +0.040 C 
ATOM     14  C   LIG A   1       0.325   4.060  -0.278  0.00  0.00    +0.068 C 
ATOM     15  C   LIG A   1       0.727   5.476   0.166  0.00  0.00    +0.041 C 
ATOM     16  C   LIG A   1      -1.043   4.147  -0.952  0.00  0.00    +0.041 C 
ATOM     17  O   LIG A   1       1.263   3.626  -1.305  0.00  0.00    -0.369 OA
ATOM     18  C   LIG A   1       2.211   2.797  -0.644  0.00  0.00    +0.140 C 
ATOM     19  C   LIG A   1       3.191   2.079  -1.519  0.00  0.00    +0.152 C 
ATOM     20  C   LIG A   1       4.048   1.160  -0.688  0.00  0.00    +0.310 C 
ATOM     21  O   LIG A   1       3.568   0.741   0.512  0.00  0.00    -0.464 OA
ATOM     22  C   LIG A   1       2.439   1.319   1.214  0.00  0.00    +0.242 C 
ATOM     23  O   LIG A   1       5.111   0.724  -1.119  0.00  0.00    -0.251 OA
ATOM     24  C   LIG A   1      -0.725   2.597   1.664  0.00  0.00    +0.082 C 
ATOM     25  C   LIG A   1      -0.642   1.106   1.879  0.00  0.00    +0.143 C 
ATOM     26  O   LIG A   1      -0.383   0.665   2.997  0.00  0.00    -0.297 OA
ATOM     27  C   LIG A   1       1.643  -2.341   0.781  0.00  0.00    +0.018 C 
ATOM     28  O   LIG A   1      -1.012  -3.859   3.648  0.00  0.00    -0.248 OA
ATOM     29  O   LIG A   1      -2.004  -1.804   1.108  0.00  0.00    -0.351 OA
ENDROOT
BRANCH   7  30
ATOM     30  C   LIG A   1      -1.591  -4.010  -0.660  0.00  0.00    +0.079 C 
ATOM     31  C   LIG A   1      -2.828  -4.318  -0.265  0.00  0.00    +0.061 C 
ATOM     32  C   LIG A   1      -3.701  -4.602  -1.412  0.00  0.00    +0.334 C 
ATOM     33  O   LIG A   1      -2.847  -4.521  -2.538  0.00  0.00    -0.428 OA
ATOM     34  C   LIG A   1      -1.598  -4.189  -2.118  0.00  0.00    +0.341 C 
ATOM     35  O   LIG A   1      -0.625  -4.074  -2.839  0.00  0.00    -0.245 OA
BRANCH  32  36
ATOM     36  O   LIG A   1      -4.273  -5.885  -1.304  0.00  0.00    -0.354 OA
ATOM     37  H   LIG A   1      -3.608  -6.472  -0.910  0.00  0.00    +0.214 HD
ENDBRANCH  32  36
ENDBRANCH   7  30
TORSDOF 2
