@<TRIPOS>MOLECULE
NuBBE_672
 26 27 0 0 0
SMALL
GASTEIGER

@<TRIPOS>ATOM
      1 C          -3.6433    0.0846   -0.7703 C.3     1  LIG1       -0.0274
      2 C          -2.1304    0.0129   -0.6170 C.3     1  LIG1        0.1046
      3 O          -1.8236   -1.1848    0.1209 O.3     1  LIG1       -0.4577
      4 C          -1.5928    1.2269    0.1247 C.3     1  LIG1        0.0102
      5 C          -0.1130    1.0366    0.2925 C.ar    1  LIG1       -0.0264
      6 C           0.7492    2.1422    0.2995 C.ar    1  LIG1       -0.0574
      7 C           2.1180    1.9609    0.4834 C.ar    1  LIG1       -0.0580
      8 C           2.6309    0.6782    0.6628 C.ar    1  LIG1       -0.0191
      9 C           1.7786   -0.4311    0.6498 C.ar    1  LIG1        0.1343
     10 O           2.3625   -1.6473    0.8840 O.3     1  LIG1       -0.4943
     11 C           2.6476   -2.3152   -0.3452 C.3     1  LIG1        0.0788
     12 C           0.3953   -0.2625    0.4879 C.ar    1  LIG1        0.1038
     13 C          -0.5543   -1.4168    0.5599 C.2     1  LIG1        0.3433
     14 O          -0.2423   -2.5145    0.9977 O.2     1  LIG1       -0.2448
     15 H          -4.0169   -0.8071   -1.2852 H       1  LIG1        0.0265
     16 H          -3.9440    0.9687   -1.3405 H       1  LIG1        0.0265
     17 H          -4.1367    0.1114    0.2077 H       1  LIG1        0.0265
     18 H          -1.6786   -0.0806   -1.6133 H       1  LIG1        0.0734
     19 H          -2.0430    1.3163    1.1208 H       1  LIG1        0.0349
     20 H          -1.8086    2.1404   -0.4408 H       1  LIG1        0.0349
     21 H           0.3586    3.1496    0.1702 H       1  LIG1        0.0621
     22 H           2.7855    2.8192    0.4986 H       1  LIG1        0.0619
     23 H           3.6969    0.5383    0.8253 H       1  LIG1        0.0654
     24 H           3.4124   -1.7725   -0.9115 H       1  LIG1        0.0660
     25 H           1.7493   -2.4473   -0.9577 H       1  LIG1        0.0660
     26 H           3.0429   -3.3065   -0.1044 H       1  LIG1        0.0660
@<TRIPOS>BOND
     1     1     2    1
     2     2     3    1
     3     2     4    1
     4     4     5    1
     5     5     6   ar
     6     6     7   ar
     7     7     8   ar
     8     8     9   ar
     9     9    10    1
    10    10    11    1
    11     9    12   ar
    12     5    12   ar
    13    12    13    1
    14     3    13    1
    15    13    14    2
    16     1    15    1
    17     1    16    1
    18     1    17    1
    19     2    18    1
    20     4    19    1
    21     4    20    1
    22     6    21    1
    23     7    22    1
    24     8    23    1
    25    11    24    1
    26    11    25    1
    27    11    26    1
