@<TRIPOS>MOLECULE
NuBBE_1661
 32 34 0 0 0
SMALL
GASTEIGER

@<TRIPOS>ATOM
      1 O          -2.6348   -1.9074   -0.7063 O.3     1  LIG1       -0.5033
      2 C          -1.3201   -1.8704   -0.3306 C.ar    1  LIG1        0.1593
      3 C          -0.7011   -0.6166   -0.2466 C.ar    1  LIG1       -0.0053
      4 C           0.6414   -0.5068    0.1290 C.ar    1  LIG1        0.0290
      5 C           1.3192    0.7909    0.2494 C.ar    1  LIG1       -0.0003
      6 C           2.6214    0.7913    0.5689 C.ar    1  LIG1        0.0313
      7 C           3.3953   -0.4373    0.8154 C.ar    1  LIG1        0.3378
      8 O           4.5882   -0.3785    1.0802 O.2     1  LIG1       -0.2452
      9 O           2.7049   -1.6344    0.7528 O.2     1  LIG1       -0.4220
     10 C           1.3449   -1.6752    0.4032 C.ar    1  LIG1        0.1433
     11 C           0.7382   -2.9300    0.3316 C.ar    1  LIG1        0.0267
     12 C          -0.6074   -3.0409   -0.0387 C.ar    1  LIG1        0.1648
     13 O          -1.0587   -4.3331   -0.0657 O.3     1  LIG1       -0.4913
     14 C          -2.4000   -4.5592   -0.4783 C.3     1  LIG1        0.0790
     15 C           0.6755    2.1089    0.0957 C.ar    1  LIG1       -0.0170
     16 C           0.0738    2.7186    1.2045 C.ar    1  LIG1       -0.0540
     17 C          -0.5525    3.9580    1.0711 C.ar    1  LIG1       -0.0612
     18 C          -0.5827    4.5929   -0.1696 C.ar    1  LIG1       -0.0617
     19 C           0.0115    3.9899   -1.2783 C.ar    1  LIG1       -0.0612
     20 C           0.6404    2.7499   -1.1482 C.ar    1  LIG1       -0.0540
     21 H          -2.9649   -1.0031   -0.8325 H       1  LIG1        0.2923
     22 H          -1.2692    0.2795   -0.4813 H       1  LIG1        0.0662
     23 H           3.1898    1.7086    0.6836 H       1  LIG1        0.0695
     24 H           1.3140   -3.8238    0.5589 H       1  LIG1        0.0692
     25 H          -2.5996   -5.6319   -0.3974 H       1  LIG1        0.0660
     26 H          -2.5406   -4.2784   -1.5276 H       1  LIG1        0.0660
     27 H          -3.1130   -4.0560    0.1824 H       1  LIG1        0.0660
     28 H           0.0877    2.2303    2.1767 H       1  LIG1        0.0624
     29 H          -1.0152    4.4281    1.9352 H       1  LIG1        0.0618
     30 H          -1.0685    5.5603   -0.2718 H       1  LIG1        0.0618
     31 H          -0.0143    4.4877   -2.2446 H       1  LIG1        0.0618
     32 H           1.0965    2.2885   -2.0213 H       1  LIG1        0.0624
@<TRIPOS>BOND
     1     1     2    1
     2     2     3   ar
     3     3     4   ar
     4     4     5   ar
     5     5     6   ar
     6     6     7   ar
     7     7     8    2
     8     7     9   ar
     9     9    10   ar
    10     4    10   ar
    11    10    11   ar
    12    11    12   ar
    13     2    12   ar
    14    12    13    1
    15    13    14    1
    16     5    15    1
    17    15    16   ar
    18    16    17   ar
    19    17    18   ar
    20    18    19   ar
    21    19    20   ar
    22    15    20   ar
    23     1    21    1
    24     3    22    1
    25     6    23    1
    26    11    24    1
    27    14    25    1
    28    14    26    1
    29    14    27    1
    30    16    28    1
    31    17    29    1
    32    18    30    1
    33    19    31    1
    34    20    32    1
