REMARK  Name = NuBBE_194
REMARK  13 active torsions:
REMARK  status: ('A' for Active; 'I' for Inactive)
REMARK    1  A    between atoms: C_4  and  O_13
REMARK    2  A    between atoms: C_8  and  C_9
REMARK    3  A    between atoms: C_9  and  O_10
REMARK    4  A    between atoms: O_10  and  C_11
REMARK    5  A    between atoms: O_13  and  C_14
REMARK    6  A    between atoms: C_17  and  C_25
REMARK    7  A    between atoms: C_19  and  O_24
REMARK    8  A    between atoms: C_21  and  O_23
REMARK    9  A    between atoms: C_25  and  O_26
REMARK   10  A    between atoms: C_27  and  O_29
REMARK   11  A    between atoms: C_33  and  O_34
REMARK   12  A    between atoms: C_33  and  C_35
REMARK   13  A    between atoms: C_35  and  O_36
REMARK                            x       y       z     vdW  Elec       q    Type
REMARK                         _______ _______ _______ _____ _____    ______ ____
ROOT
ATOM      1  C   LIG A   1      -1.193  -2.264  -0.578  0.00  0.00    +0.064 C 
ATOM      2  C   LIG A   1      -1.203  -0.734  -0.351  0.00  0.00    +0.107 C 
ATOM      3  C   LIG A   1      -0.435  -0.357   0.915  0.00  0.00    +0.316 C 
ATOM      4  O   LIG A   1       0.891  -0.940   0.912  0.00  0.00    -0.470 OA
ATOM      5  C   LIG A   1       1.103  -2.101   0.213  0.00  0.00    +0.201 C 
ATOM      6  C   LIG A   1       0.197  -2.774  -0.516  0.00  0.00    +0.078 C 
ATOM      7  C   LIG A   1      -1.972  -2.273  -1.866  0.00  0.00    -0.019 C 
ATOM      8  C   LIG A   1      -2.836  -1.240  -1.874  0.00  0.00    +0.006 C 
ATOM      9  C   LIG A   1      -2.676  -0.388  -0.626  0.00  0.00    +0.116 C 
ENDROOT
BRANCH   6  10
ATOM     10  C   LIG A   1       0.620  -4.068  -1.088  0.00  0.00    +0.338 C 
ATOM     11  O   LIG A   1       1.797  -4.423  -1.169  0.00  0.00    -0.245 OA
BRANCH  10  12
ATOM     12  O   LIG A   1      -0.446  -4.816  -1.466  0.00  0.00    -0.465 OA
ATOM     13  C   LIG A   1      -0.095  -6.088  -2.018  0.00  0.00    +0.280 C 
ENDBRANCH  10  12
ENDBRANCH   6  10
BRANCH   9  14
ATOM     14  O   LIG A   1      -2.853   0.978  -0.960  0.00  0.00    -0.382 OA
ATOM     15  H   LIG A   1      -2.362   1.158  -1.781  0.00  0.00    +0.211 HD
ENDBRANCH   9  14
BRANCH   3  16
ATOM     16  O   LIG A   1      -0.286   1.041   1.226  0.00  0.00    -0.309 OA
BRANCH  16  17
ATOM     17  C   LIG A   1       0.227   1.918   0.210  0.00  0.00    +0.286 C 
ATOM     18  O   LIG A   1       1.549   1.610  -0.244  0.00  0.00    -0.340 OA
ATOM     19  C   LIG A   1       2.694   2.202   0.388  0.00  0.00    +0.178 C 
ATOM     20  C   LIG A   1       2.534   3.647   0.904  0.00  0.00    +0.177 C 
ATOM     21  C   LIG A   1       1.164   3.918   1.530  0.00  0.00    +0.179 C 
ATOM     22  C   LIG A   1       0.049   3.405   0.608  0.00  0.00    +0.201 C 
BRANCH  21  23
ATOM     23  O   LIG A   1       1.061   3.432   2.865  0.00  0.00    -0.386 OA
ATOM     24  H   LIG A   1       1.534   2.576   2.943  0.00  0.00    +0.210 HD
ENDBRANCH  21  23
BRANCH  20  25
ATOM     25  O   LIG A   1       2.698   4.547  -0.213  0.00  0.00    -0.387 OA
ATOM     26  H   LIG A   1       3.653   4.741  -0.282  0.00  0.00    +0.210 HD
ENDBRANCH  20  25
BRANCH  22  27
ATOM     27  O   LIG A   1       0.015   4.213  -0.592  0.00  0.00    -0.384 OA
ATOM     28  H   LIG A   1       0.942   4.467  -0.799  0.00  0.00    +0.210 HD
ENDBRANCH  22  27
BRANCH  19  29
ATOM     29  C   LIG A   1       3.269   1.283   1.466  0.00  0.00    +0.190 C 
BRANCH  29  30
ATOM     30  O   LIG A   1       2.322   1.094   2.508  0.00  0.00    -0.392 OA
ATOM     31  H   LIG A   1       1.602   0.567   2.096  0.00  0.00    +0.209 HD
ENDBRANCH  29  30
ENDBRANCH  19  29
ENDBRANCH  16  17
ENDBRANCH   3  16
BRANCH   9  32
ATOM     32  C   LIG A   1      -3.706  -0.785   0.463  0.00  0.00    +0.195 C 
BRANCH  32  33
ATOM     33  O   LIG A   1      -5.051  -0.616  -0.002  0.00  0.00    -0.392 OA
ATOM     34  H   LIG A   1      -5.067   0.224  -0.498  0.00  0.00    +0.209 HD
ENDBRANCH  32  33
ENDBRANCH   9  32
TORSDOF 12
