@<TRIPOS>MOLECULE
NuBBE_3
 43 43 0 0 0
SMALL
GASTEIGER

@<TRIPOS>ATOM
      1 O          -1.0320   -2.3614    3.4757 O.3     1  LIG1       -0.5033
      2 C          -0.0060   -3.1158    2.9752 C.ar    1  LIG1        0.1585
      3 C           0.9898   -2.5163    2.1934 C.ar    1  LIG1        0.1629
      4 O           0.8253   -1.1701    1.9875 O.3     1  LIG1       -0.4843
      5 C           1.3690   -0.6360    0.7752 C.3     1  LIG1        0.1082
      6 C           0.5290    0.5549    0.3914 C.2     1  LIG1       -0.0481
      7 C           0.9400    1.7264   -0.1390 C.2     1  LIG1       -0.0731
      8 C           2.3748    2.0523   -0.4562 C.3     1  LIG1       -0.0437
      9 C          -0.0658    2.8248   -0.4582 C.3     1  LIG1       -0.0285
     10 C          -0.6172    2.7165   -1.8874 C.3     1  LIG1       -0.0308
     11 C          -1.5913    3.8222   -2.2114 C.2     1  LIG1       -0.0850
     12 C          -2.8899    3.7059   -2.5564 C.2     1  LIG1       -0.0796
     13 C          -3.6554    2.4133   -2.6459 C.3     1  LIG1       -0.0440
     14 C          -3.7100    4.9260   -2.8952 C.3     1  LIG1       -0.0440
     15 C           2.0426   -3.3013    1.7199 C.ar    1  LIG1       -0.0023
     16 C           2.0431   -4.6831    1.9805 C.ar    1  LIG1        0.0625
     17 C           3.1439   -5.5124    1.4404 C.2     1  LIG1        0.3369
     18 O           2.7440   -6.7783    1.1990 O.3     1  LIG1       -0.4771
     19 O           4.2596   -5.1306    1.1711 O.2     1  LIG1       -0.2451
     20 C           1.0213   -5.2696    2.7415 C.ar    1  LIG1       -0.0441
     21 C          -0.0039   -4.4774    3.2498 C.ar    1  LIG1       -0.0157
     22 H          -0.8398   -1.4471    3.1890 H       1  LIG1        0.2923
     23 H           1.3115   -1.3623   -0.0437 H       1  LIG1        0.0742
     24 H           2.4100   -0.3607    0.9641 H       1  LIG1        0.0742
     25 H          -0.5401    0.4169    0.5544 H       1  LIG1        0.0605
     26 H           3.0330    1.1819   -0.3940 H       1  LIG1        0.0274
     27 H           2.7516    2.8089    0.2396 H       1  LIG1        0.0274
     28 H           2.4665    2.4418   -1.4751 H       1  LIG1        0.0274
     29 H           0.4044    3.8052   -0.3045 H       1  LIG1        0.0313
     30 H          -0.9005    2.7821    0.2543 H       1  LIG1        0.0313
     31 H          -1.0710    1.7309   -2.0182 H       1  LIG1        0.0310
     32 H           0.2046    2.7683   -2.6121 H       1  LIG1        0.0310
     33 H          -1.1590    4.8231   -2.1730 H       1  LIG1        0.0572
     34 H          -3.0520    1.5279   -2.4405 H       1  LIG1        0.0274
     35 H          -4.0781    2.2897   -3.6485 H       1  LIG1        0.0274
     36 H          -4.4774    2.4183   -1.9224 H       1  LIG1        0.0274
     37 H          -3.1245    5.8500   -2.8445 H       1  LIG1        0.0274
     38 H          -4.5506    5.0240   -2.2006 H       1  LIG1        0.0274
     39 H          -4.1087    4.8452   -3.9125 H       1  LIG1        0.0274
     40 H           2.8600   -2.8699    1.1498 H       1  LIG1        0.0663
     41 H           3.5251   -7.2100    0.7953 H       1  LIG1        0.2954
     42 H           1.0229   -6.3384    2.9468 H       1  LIG1        0.0627
     43 H          -0.7989   -4.9157    3.8456 H       1  LIG1        0.0655
@<TRIPOS>BOND
     1     1     2    1
     2     2     3   ar
     3     3     4    1
     4     4     5    1
     5     5     6    1
     6     6     7    2
     7     7     8    1
     8     7     9    1
     9     9    10    1
    10    10    11    1
    11    11    12    2
    12    12    13    1
    13    12    14    1
    14     3    15   ar
    15    15    16   ar
    16    16    17    1
    17    17    18    1
    18    17    19    2
    19    16    20   ar
    20    20    21   ar
    21     2    21   ar
    22     1    22    1
    23     5    23    1
    24     5    24    1
    25     6    25    1
    26     8    26    1
    27     8    27    1
    28     8    28    1
    29     9    29    1
    30     9    30    1
    31    10    31    1
    32    10    32    1
    33    11    33    1
    34    13    34    1
    35    13    35    1
    36    13    36    1
    37    14    37    1
    38    14    38    1
    39    14    39    1
    40    15    40    1
    41    18    41    1
    42    20    42    1
    43    21    43    1
