@<TRIPOS>MOLECULE
NuBBE_1064
 82 87 0 0 0
SMALL
GASTEIGER

@<TRIPOS>ATOM
      1 O           1.5901   -0.3409   -4.4587 O.3     1  LIG1       -0.3912
      2 C           2.9225    0.1489   -4.1617 C.3     1  LIG1        0.0606
      3 H           3.2516    0.1986   -5.1996 H       1  LIG1        0.0599
      4 C           2.9259    1.5913   -3.6540 C.3     1  LIG1       -0.0258
      5 C           2.0868    1.7477   -2.4100 C.3     1  LIG1       -0.0447
      6 C           2.4777    0.7117   -1.2920 C.3     1  LIG1       -0.0252
      7 C           3.6852    1.3386   -0.5533 C.3     1  LIG1       -0.0590
      8 C           2.7130   -0.6731   -1.9831 C.3     1  LIG1       -0.0278
      9 C           2.5723   -1.8714   -1.0196 C.3     1  LIG1       -0.0486
     10 C           1.1754   -1.9197   -0.4620 C.3     1  LIG1       -0.0465
     11 C           0.9181   -0.7610    0.5692 C.3     1  LIG1       -0.0205
     12 C           1.7307   -1.2217    1.8053 C.3     1  LIG1       -0.0587
     13 C           1.2240    0.6084   -0.2984 C.3     1  LIG1       -0.0269
     14 C           1.0918    1.9840    0.3667 C.3     1  LIG1       -0.0200
     15 C          -0.1695    2.1402    1.0713 C.3     1  LIG1        0.0895
     16 H          -0.6353    3.1195    0.9314 H       1  LIG1        0.0625
     17 O           0.0255    1.6034    2.3525 O.3     1  LIG1       -0.3639
     18 C          -1.0159    1.0169    1.5290 C.3     1  LIG1        0.1051
     19 C          -0.6341   -0.7344    1.0667 C.3     1  LIG1        0.0054
     20 C          -1.4039   -1.5540   -0.1274 C.3     1  LIG1       -0.0563
     21 C          -1.1101   -1.7406    2.1992 C.3     1  LIG1       -0.0439
     22 C          -2.5049   -1.3926    2.6921 C.3     1  LIG1       -0.0467
     23 C          -2.8470    0.1009    2.5161 C.3     1  LIG1       -0.0265
     24 C          -1.6960    0.3353    3.9061 C.3     1  LIG1       -0.0592
     25 C          -2.5313    1.4590    2.3219 C.3     1  LIG1       -0.0030
     26 C          -4.1091    1.8956    1.8985 C.3     1  LIG1       -0.0418
     27 C          -5.2714    0.6214    1.2441 C.3     1  LIG1       -0.0345
     28 C          -5.7639    0.3394    2.6839 C.3     1  LIG1       -0.0598
     29 C          -5.2726   -1.0412    0.9218 C.3     1  LIG1       -0.0598
     30 C          -4.3612    0.6684    0.0490 C.3     1  LIG1       -0.0474
     31 C          -2.9923    0.4405    0.6371 C.3     1  LIG1       -0.0468
     32 C           3.7802   -0.9171   -3.2125 C.3     1  LIG1       -0.0056
     33 C           4.9724   -1.2014   -2.1361 C.3     1  LIG1       -0.0572
     34 C           5.0644   -0.4533   -4.1084 C.3     1  LIG1       -0.0572
     35 H           0.9232    0.1898   -3.9940 H       1  LIG1        0.2098
     36 H           2.5220    2.2579   -4.4256 H       1  LIG1        0.0290
     37 H           3.9474    1.9286   -3.4508 H       1  LIG1        0.0290
     38 H           1.0262    1.6481   -2.6760 H       1  LIG1        0.0271
     39 H           2.1861    2.7896   -2.0801 H       1  LIG1        0.0271
     40 H           4.6160    1.2738   -1.1087 H       1  LIG1        0.0235
     41 H           3.8220    0.9239    0.4487 H       1  LIG1        0.0235
     42 H           3.5457    2.4244   -0.4231 H       1  LIG1        0.0235
     43 H           1.7514   -0.8203   -2.4752 H       1  LIG1        0.0312
     44 H           3.2655   -1.8177   -0.1853 H       1  LIG1        0.0268
     45 H           2.7530   -2.8045   -1.5642 H       1  LIG1        0.0268
     46 H           1.0000   -2.9083   -0.0215 H       1  LIG1        0.0271
     47 H           0.5182   -1.8565   -1.3360 H       1  LIG1        0.0271
     48 H           2.7916   -1.4009    1.6422 H       1  LIG1        0.0235
     49 H           1.3646   -2.2286    2.0897 H       1  LIG1        0.0235
     50 H           1.6082   -0.5943    2.6863 H       1  LIG1        0.0235
     51 H           0.3614    0.5802   -0.9853 H       1  LIG1        0.0312
     52 H           1.1191    2.7956   -0.3659 H       1  LIG1        0.0294
     53 H           1.9107    2.1834    1.0652 H       1  LIG1        0.0294
     54 H          -1.2972   -1.0908   -1.1157 H       1  LIG1        0.0236
     55 H          -2.4664   -1.7535    0.0529 H       1  LIG1        0.0236
     56 H          -1.0581   -2.5926   -0.2025 H       1  LIG1        0.0236
     57 H          -0.4295   -1.8495    3.0467 H       1  LIG1        0.0272
     58 H          -1.1861   -2.7818    1.8453 H       1  LIG1        0.0272
     59 H          -2.5847   -1.6757    3.7563 H       1  LIG1        0.0271
     60 H          -3.2699   -2.0668    2.3336 H       1  LIG1        0.0271
     61 H          -2.1409   -0.0374    4.8320 H       1  LIG1        0.0235
     62 H          -1.3766    1.3520    4.2050 H       1  LIG1        0.0235
     63 H          -0.7185   -0.1487    3.7902 H       1  LIG1        0.0235
     64 H          -2.3329    2.2680    3.0737 H       1  LIG1        0.0335
     65 H          -4.0825    2.7511    1.2068 H       1  LIG1        0.0274
     66 H          -4.5841    2.3299    2.7874 H       1  LIG1        0.0274
     67 H          -6.4362    1.1536    2.9654 H       1  LIG1        0.0235
     68 H          -4.9834    0.2598    3.4459 H       1  LIG1        0.0235
     69 H          -6.3903   -0.5444    2.8382 H       1  LIG1        0.0235
     70 H          -5.6204   -1.2614   -0.1034 H       1  LIG1        0.0235
     71 H          -5.9521   -1.6757    1.4941 H       1  LIG1        0.0235
     72 H          -4.3036   -1.5213    0.9751 H       1  LIG1        0.0235
     73 H          -4.4442    1.6435   -0.4646 H       1  LIG1        0.0271
     74 H          -4.4895    0.0176   -0.8342 H       1  LIG1        0.0271
     75 H          -2.6176    1.4660    0.3422 H       1  LIG1        0.0271
     76 H          -2.3758    0.0680   -0.1400 H       1  LIG1        0.0271
     77 H           4.7353   -1.7328   -1.2223 H       1  LIG1        0.0236
     78 H           5.5143   -0.3172   -1.7922 H       1  LIG1        0.0236
     79 H           5.6898   -1.9445   -2.5159 H       1  LIG1        0.0236
     80 H           4.9236   -0.1704   -5.1563 H       1  LIG1        0.0236
     81 H           5.7101   -1.3257   -4.2979 H       1  LIG1        0.0236
     82 H           5.6459    0.3699   -3.6715 H       1  LIG1        0.0236
@<TRIPOS>BOND
     1     2     4    1
     2     4     5    1
     3     5     6    1
     4     6     8    1
     5     8     9    1
     6     9    10    1
     7    10    11    1
     8    11    13    1
     9     6    13    1
    10    13    14    1
    11    14    15    1
    12    15    17    1
    13    15    18    1
    14    17    18    1
    15    18    19    1
    16    11    19    1
    17    19    21    1
    18    21    22    1
    19    22    23    1
    20    23    25    1
    21    18    25    1
    22    25    26    1
    23    26    27    1
    24    27    30    1
    25    30    31    1
    26    23    31    1
    27     8    32    1
    28     2    32    1
    29     1     2    1
    30     2     3    1
    31     6     7    1
    32    11    12    1
    33    15    16    1
    34    19    20    1
    35    23    24    1
    36    27    28    1
    37    27    29    1
    38    32    33    1
    39    32    34    1
    40     1    35    1
    41     4    36    1
    42     4    37    1
    43     5    38    1
    44     5    39    1
    45     7    40    1
    46     7    41    1
    47     7    42    1
    48     8    43    1
    49     9    44    1
    50     9    45    1
    51    10    46    1
    52    10    47    1
    53    12    48    1
    54    12    49    1
    55    12    50    1
    56    13    51    1
    57    14    52    1
    58    14    53    1
    59    20    54    1
    60    20    55    1
    61    20    56    1
    62    21    57    1
    63    21    58    1
    64    22    59    1
    65    22    60    1
    66    24    61    1
    67    24    62    1
    68    24    63    1
    69    25    64    1
    70    26    65    1
    71    26    66    1
    72    28    67    1
    73    28    68    1
    74    28    69    1
    75    29    70    1
    76    29    71    1
    77    29    72    1
    78    30    73    1
    79    30    74    1
    80    31    75    1
    81    31    76    1
    82    33    77    1
    83    33    78    1
    84    33    79    1
    85    34    80    1
    86    34    81    1
    87    34    82    1
