@<TRIPOS>MOLECULE
NuBBE_161
 52 55 0 0 0
SMALL
GASTEIGER

@<TRIPOS>ATOM
      1 O          -0.7072   -6.3453    3.5188 O.3     1  LIG1       -0.5065
      2 C          -0.4613   -5.4186    2.5495 C.ar    1  LIG1        0.1239
      3 C           0.0900   -5.7829    1.3253 C.ar    1  LIG1        0.0223
      4 C           0.3107   -4.7957    0.3641 C.ar    1  LIG1        0.1348
      5 O           0.8911   -5.1518   -0.8208 O.3     1  LIG1       -0.5058
      6 C          -0.0218   -3.4553    0.6257 C.ar    1  LIG1        0.1092
      7 C           0.0737   -2.3858   -0.3786 C.ar    1  LIG1        0.2382
      8 C           0.0700   -0.9641    0.1136 C.ar    1  LIG1        0.2138
      9 O           0.5530    0.1126   -0.6340 O.3     1  LIG1       -0.4532
     10 C           0.4785    0.0755   -2.0726 C.3     1  LIG1        0.2311
     11 H           0.5444   -0.9247   -2.4791 H       1  LIG1        0.1084
     12 C          -0.8396    0.7161   -2.5526 C.3     1  LIG1        0.1454
     13 H          -1.6865    0.3332   -1.9723 H       1  LIG1        0.0683
     14 C          -0.7765    2.2365   -2.4234 C.3     1  LIG1        0.1151
     15 H          -0.7726    2.5384   -1.3698 H       1  LIG1        0.0648
     16 C           0.4609    2.7937   -3.1303 C.3     1  LIG1        0.1096
     17 H           0.3627    2.6357   -4.2120 H       1  LIG1        0.0646
     18 C           1.7227    2.1042   -2.5961 C.3     1  LIG1        0.0883
     19 H           1.9049    2.3939   -1.5545 H       1  LIG1        0.0621
     20 O           1.6406    0.6881   -2.6679 O.3     1  LIG1       -0.3339
     21 C           2.9404    2.5181   -3.4224 C.3     1  LIG1       -0.0360
     22 O           0.4956    4.2158   -2.9323 O.3     1  LIG1       -0.3866
     23 O          -1.9589    2.8076   -3.0144 O.3     1  LIG1       -0.3864
     24 O          -1.1101    0.3891   -3.9276 O.3     1  LIG1       -0.3829
     25 C          -0.4244   -0.7917    1.3655 C.ar    1  LIG1        0.1810
     26 O          -0.8695   -1.8179    2.1887 O.2     1  LIG1       -0.4507
     27 C          -0.5445   -3.1065    1.8661 C.ar    1  LIG1        0.1465
     28 C          -0.7743   -4.0910    2.8287 C.ar    1  LIG1        0.0231
     29 C          -0.6100    0.5255    2.0133 C.ar    1  LIG1        0.0247
     30 C           0.4099    1.1024    2.7883 C.ar    1  LIG1       -0.0057
     31 C           0.1725    2.3034    3.4599 C.ar    1  LIG1        0.1589
     32 O           1.1169    2.8865    4.2610 O.3     1  LIG1       -0.5033
     33 C          -1.0581    2.9458    3.3539 C.ar    1  LIG1        0.1583
     34 C          -2.0827    2.3826    2.6109 C.ar    1  LIG1       -0.0159
     35 C          -1.8637    1.1645    1.9548 C.ar    1  LIG1       -0.0473
     36 O          -1.2754    4.1291    4.0003 O.3     1  LIG1       -0.5033
     37 O           0.0681   -2.6836   -1.5719 O.2     1  LIG1       -0.2830
     38 H          -0.4754   -7.2296    3.1885 H       1  LIG1        0.2921
     39 H           0.3531   -6.8160    1.1228 H       1  LIG1        0.0691
     40 H           0.8220   -6.1092   -0.9629 H       1  LIG1        0.2922
     41 H           3.1041    3.5991   -3.3928 H       1  LIG1        0.0255
     42 H           2.8200    2.2133   -4.4694 H       1  LIG1        0.0255
     43 H           3.8430    2.0166   -3.0571 H       1  LIG1        0.0255
     44 H           0.8328    4.3915   -2.0358 H       1  LIG1        0.2100
     45 H          -1.7495    3.7535   -3.1557 H       1  LIG1        0.2100
     46 H          -1.8637    0.9603   -4.1792 H       1  LIG1        0.2102
     47 H          -1.1990   -3.8268    3.7934 H       1  LIG1        0.0691
     48 H           1.3677    0.6001    2.8803 H       1  LIG1        0.0662
     49 H           1.8533    2.2602    4.3690 H       1  LIG1        0.2923
     50 H          -3.0494    2.8763    2.5600 H       1  LIG1        0.0655
     51 H          -2.6922    0.7055    1.4190 H       1  LIG1        0.0626
     52 H          -0.4360    4.3217    4.4638 H       1  LIG1        0.2923
@<TRIPOS>BOND
     1     1     2    1
     2     2     3   ar
     3     3     4   ar
     4     4     5    1
     5     4     6   ar
     6     6     7   ar
     7     7     8   ar
     8     8     9    1
     9    10    12    1
    10    12    14    1
    11    14    15    1
    12    14    16    1
    13    16    18    1
    14    18    19    1
    15    18    20    1
    16    10    20    1
    17    18    21    1
    18    14    23    1
    19     8    25   ar
    20    25    26   ar
    21    26    27   ar
    22     6    27   ar
    23    27    28   ar
    24     2    28   ar
    25    25    29    1
    26    29    30   ar
    27    30    31   ar
    28    31    32    1
    29    31    33   ar
    30    33    34   ar
    31    34    35   ar
    32    29    35   ar
    33    33    36    1
    34     7    37    2
    35    10    11    1
    36    10     9    1
    37    12    24    1
    38    12    13    1
    39    16    22    1
    40    16    17    1
    41     1    38    1
    42     3    39    1
    43     5    40    1
    44    21    41    1
    45    21    42    1
    46    21    43    1
    47    22    44    1
    48    23    45    1
    49    24    46    1
    50    28    47    1
    51    30    48    1
    52    32    49    1
    53    34    50    1
    54    35    51    1
    55    36    52    1
