@<TRIPOS>MOLECULE
NuBBE_1695
 59 62 0 0 0
SMALL
GASTEIGER

@<TRIPOS>ATOM
      1 O          -3.2586    5.0174   -2.0919 O.2     1  LIG1       -0.2507
      2 C          -3.6841    4.0712   -1.4461 C.2     1  LIG1        0.3092
      3 C          -5.0511    4.0268   -0.8208 C.3     1  LIG1        0.0336
      4 O          -2.9913    2.8983   -1.1213 O.3     1  LIG1       -0.4244
      5 C          -1.6264    2.5374   -1.3496 C.ar    1  LIG1        0.1565
      6 C          -0.9247    2.8113   -2.5373 C.ar    1  LIG1        0.0598
      7 C          -1.4944    3.4259   -3.7305 C.2     1  LIG1       -0.0478
      8 C          -0.6531    3.9548   -4.6258 C.2     1  LIG1       -0.0408
      9 C           0.8426    3.8699   -4.4508 C.3     1  LIG1        0.1235
     10 C           1.4997    3.7029   -5.8257 C.3     1  LIG1       -0.0215
     11 C           1.3983    5.1313   -3.7708 C.3     1  LIG1       -0.0215
     12 O           1.2303    2.7047   -3.6888 O.3     1  LIG1       -0.4814
     13 C           0.4121    2.3764   -2.6302 C.ar    1  LIG1        0.1359
     14 C           0.9658    1.5229   -1.6820 C.ar    1  LIG1        0.0240
     15 C           0.2225    1.1738   -0.5608 C.ar    1  LIG1        0.1463
     16 O           0.7690    0.2185    0.2686 O.2     1  LIG1       -0.4544
     17 C          -0.0385   -0.2846    1.2732 C.ar    1  LIG1        0.1395
     18 C           0.4361   -1.5404    1.8630 C.ar    1  LIG1        0.0245
     19 C           0.0532   -2.7513    1.2804 C.ar    1  LIG1       -0.0054
     20 C           0.4816   -3.9771    1.8068 C.ar    1  LIG1        0.1666
     21 O           0.2150   -5.1523    1.1611 O.3     1  LIG1       -0.4913
     22 C          -1.1028   -5.2490    0.6195 C.3     1  LIG1        0.0790
     23 C           1.2970   -3.9749    2.9466 C.ar    1  LIG1        0.2143
     24 O           1.8920   -5.1599    3.4852 O.3     1  LIG1       -0.4185
     25 C           1.3514   -6.4511    3.5519 C.2     1  LIG1        0.3094
     26 C           2.3802   -7.3788    4.1421 C.3     1  LIG1        0.0336
     27 O           0.2326   -6.8111    3.2139 O.2     1  LIG1       -0.2507
     28 C           1.6826   -2.7580    3.5568 C.ar    1  LIG1        0.1666
     29 O           2.4661   -2.8344    4.6813 O.3     1  LIG1       -0.4913
     30 C           2.8239   -1.5968    5.2945 C.3     1  LIG1        0.0790
     31 C           1.2571   -1.5445    2.9886 C.ar    1  LIG1       -0.0054
     32 C          -1.1807    0.2774    1.6821 C.ar    1  LIG1        0.0288
     33 C          -1.0335    1.7437   -0.3475 C.ar    1  LIG1        0.1070
     34 C          -1.6803    1.4591    0.9484 C.ar    1  LIG1        0.1967
     35 O          -2.5853    2.1401    1.4146 O.2     1  LIG1       -0.2869
     36 H          -5.3537    2.9964   -0.6138 H       1  LIG1        0.0342
     37 H          -5.7856    4.4559   -1.5089 H       1  LIG1        0.0342
     38 H          -5.0384    4.5961    0.1120 H       1  LIG1        0.0342
     39 H          -2.5652    3.4468   -3.8817 H       1  LIG1        0.0624
     40 H          -1.0484    4.4588   -5.5026 H       1  LIG1        0.0611
     41 H           1.2858    4.5513   -6.4854 H       1  LIG1        0.0271
     42 H           1.1489    2.7875   -6.3169 H       1  LIG1        0.0271
     43 H           2.5876    3.6067   -5.7320 H       1  LIG1        0.0271
     44 H           1.1652    6.0375   -4.3409 H       1  LIG1        0.0271
     45 H           2.4869    5.0662   -3.6567 H       1  LIG1        0.0271
     46 H           0.9938    5.2561   -2.7592 H       1  LIG1        0.0271
     47 H           1.9701    1.1185   -1.8248 H       1  LIG1        0.0691
     48 H          -0.5522   -2.7205    0.3799 H       1  LIG1        0.0662
     49 H          -1.3032   -6.3005    0.3957 H       1  LIG1        0.0660
     50 H          -1.1738   -4.6949   -0.3223 H       1  LIG1        0.0660
     51 H          -1.8643   -4.9032    1.3289 H       1  LIG1        0.0660
     52 H           3.0466   -7.7545    3.3619 H       1  LIG1        0.0342
     53 H           1.8717   -8.2217    4.6214 H       1  LIG1        0.0342
     54 H           2.9578   -6.8649    4.9155 H       1  LIG1        0.0342
     55 H           3.3034   -1.8120    6.2532 H       1  LIG1        0.0660
     56 H           1.9453   -0.9769    5.5090 H       1  LIG1        0.0660
     57 H           3.5421   -1.0544    4.6695 H       1  LIG1        0.0660
     58 H           1.5562   -0.5864    3.4025 H       1  LIG1        0.0662
     59 H          -1.7806   -0.0878    2.4976 H       1  LIG1        0.0693
@<TRIPOS>BOND
     1     1     2    2
     2     2     3    1
     3     2     4    1
     4     4     5    1
     5     5     6   ar
     6     6     7    1
     7     7     8    2
     8     8     9    1
     9     9    10    1
    10     9    11    1
    11     9    12    1
    12     6    13   ar
    13    12    13    1
    14    13    14   ar
    15    14    15   ar
    16    15    16   ar
    17    16    17   ar
    18    17    18    1
    19    18    19   ar
    20    19    20   ar
    21    20    21    1
    22    21    22    1
    23    20    23   ar
    24    23    24    1
    25    24    25    1
    26    25    26    1
    27    25    27    2
    28    23    28   ar
    29    28    29    1
    30    29    30    1
    31    28    31   ar
    32    18    31   ar
    33    17    32   ar
    34    15    33   ar
    35     5    33   ar
    36    33    34   ar
    37    32    34   ar
    38    34    35    2
    39     3    36    1
    40     3    37    1
    41     3    38    1
    42     7    39    1
    43     8    40    1
    44    10    41    1
    45    10    42    1
    46    10    43    1
    47    11    44    1
    48    11    45    1
    49    11    46    1
    50    14    47    1
    51    19    48    1
    52    22    49    1
    53    22    50    1
    54    22    51    1
    55    26    52    1
    56    26    53    1
    57    26    54    1
    58    30    55    1
    59    30    56    1
    60    30    57    1
    61    31    58    1
    62    32    59    1
