REMARK  Name = NuBBE_1256
REMARK  15 active torsions:
REMARK  status: ('A' for Active; 'I' for Inactive)
REMARK    1  A    between atoms: C_2  and  C_29
REMARK    2  A    between atoms: C_5  and  C_6
REMARK    3  A    between atoms: C_13  and  C_14
REMARK    4  A    between atoms: C_13  and  C_15
REMARK    5  A    between atoms: C_15  and  C_16
REMARK    6  A    between atoms: C_16  and  C_17
REMARK    7  A    between atoms: C_17  and  O_18
REMARK    8  A    between atoms: C_20  and  C_26
REMARK    9  A    between atoms: C_24  and  C_25
REMARK   10  A    between atoms: C_26  and  C_27
REMARK   11  A    between atoms: C_29  and  C_30
REMARK   12  A    between atoms: C_33  and  C_36
REMARK   13  A    between atoms: C_36  and  C_37
REMARK   14  A    between atoms: C_36  and  C_38
REMARK   15  A    between atoms: C_36  and  O_39
REMARK                            x       y       z     vdW  Elec       q    Type
REMARK                         _______ _______ _______ _____ _____    ______ ____
ROOT
ATOM      1  C   LIG A   1      -0.043   2.421  -0.826  0.00  0.00    +0.024 C 
ATOM      2  C   LIG A   1      -0.378   3.143   0.486  0.00  0.00    +0.007 C 
ATOM      3  C   LIG A   1      -1.230   2.187   1.304  0.00  0.00    +0.008 C 
ATOM      4  C   LIG A   1      -0.835   0.744   0.893  0.00  0.00    -0.023 C 
ATOM      5  C   LIG A   1      -2.156  -0.078   0.916  0.00  0.00    +0.012 C 
ATOM      6  C   LIG A   1      -0.404   0.916  -0.600  0.00  0.00    +0.001 C 
ATOM      7  C   LIG A   1       0.619  -0.084  -1.174  0.00  0.00    +0.005 C 
ATOM      8  C   LIG A   1       1.558  -0.813  -0.204  0.00  0.00    +0.005 C 
ATOM      9  C   LIG A   1       0.825  -1.207   1.089  0.00  0.00    +0.002 C 
ATOM     10  C   LIG A   1       1.481  -2.323   2.022  0.00  0.00    -0.022 C 
ATOM     11  C   LIG A   1       2.036  -3.449   1.108  0.00  0.00    +0.012 C 
ATOM     12  C   LIG A   1       0.330  -2.837   3.009  0.00  0.00    +0.020 C 
ATOM     13  C   LIG A   1      -0.703  -1.731   3.370  0.00  0.00    +0.009 C 
ATOM     14  C   LIG A   1      -0.203  -0.288   3.232  0.00  0.00    +0.008 C 
ATOM     15  C   LIG A   1       0.310   0.088   1.810  0.00  0.00    -0.023 C 
ATOM     16  C   LIG A   1       1.463   1.119   2.005  0.00  0.00    +0.012 C 
ENDROOT
BRANCH   1  17
ATOM     17  C   LIG A   1      -0.768   3.053  -2.055  0.00  0.00    +0.070 C 
ATOM     18  C   LIG A   1      -0.259   4.481  -2.334  0.00  0.00    +0.042 C 
ATOM     19  C   LIG A   1      -2.298   3.055  -1.940  0.00  0.00    +0.037 C 
ATOM     20  C   LIG A   1      -2.742   2.922  -3.374  0.00  0.00    +0.037 C 
ATOM     21  C   LIG A   1      -1.677   2.005  -3.962  0.00  0.00    +0.150 C 
ATOM     22  O   LIG A   1      -0.459   2.270  -3.231  0.00  0.00    -0.367 OA
BRANCH  21  23
ATOM     23  C   LIG A   1      -1.470   2.149  -5.492  0.00  0.00    +0.086 C 
ATOM     24  C   LIG A   1      -0.374   1.196  -5.983  0.00  0.00    +0.043 C 
ATOM     25  C   LIG A   1      -2.776   1.877  -6.245  0.00  0.00    +0.043 C 
BRANCH  23  26
ATOM     26  O   LIG A   1      -1.077   3.494  -5.803  0.00  0.00    -0.387 OA
ATOM     27  H   LIG A   1      -0.740   3.506  -6.714  0.00  0.00    +0.210 HD
ENDBRANCH  23  26
ENDBRANCH  21  23
ENDBRANCH   1  17
BRANCH  12  28
ATOM     28  C   LIG A   1      -0.397  -4.150   2.641  0.00  0.00    -0.076 C 
ATOM     29  C   LIG A   1      -1.254  -4.224   1.402  0.00  0.00    +0.038 C 
ATOM     30  C   LIG A   1      -0.314  -5.249   3.417  0.00  0.00    +0.007 C 
ENDBRANCH  12  28
BRANCH  10  31
ATOM     31  C   LIG A   1       2.715  -1.819   2.869  0.00  0.00    +0.018 C 
BRANCH  31  32
ATOM     32  C   LIG A   1       3.413  -2.860   3.773  0.00  0.00    +0.121 C 
BRANCH  32  33
ATOM     33  C   LIG A   1       4.580  -2.277   4.540  0.00  0.00    +0.305 C 
ATOM     34  O   LIG A   1       4.989  -1.139   4.522  0.00  0.00    -0.251 OA
BRANCH  33  35
ATOM     35  O   LIG A   1       5.160  -3.208   5.333  0.00  0.00    -0.481 OA
ATOM     36  H   LIG A   1       5.874  -2.722   5.795  0.00  0.00    +0.295 HD
ENDBRANCH  33  35
ENDBRANCH  32  33
ENDBRANCH  31  32
ENDBRANCH  10  31
TORSDOF 8
