REMARK  Name = NuBBE_11
REMARK  11 active torsions:
REMARK  status: ('A' for Active; 'I' for Inactive)
REMARK    1  A    between atoms: O_1  and  C_2
REMARK    2  A    between atoms: O_1  and  C_17
REMARK    3  A    between atoms: C_4  and  O_6
REMARK    4  A    between atoms: C_7  and  O_9
REMARK    5  A    between atoms: C_10  and  O_16
REMARK    6  A    between atoms: C_12  and  C_15
REMARK    7  A    between atoms: C_19  and  C_32
REMARK    8  A    between atoms: C_26  and  O_27
REMARK    9  A    between atoms: C_29  and  O_31
REMARK   10  A    between atoms: C_34  and  O_35
REMARK   11  A    between atoms: C_36  and  O_39
REMARK                            x       y       z     vdW  Elec       q    Type
REMARK                         _______ _______ _______ _____ _____    ______ ____
ROOT
ATOM      1  C   LIG A   1      -0.291   0.058  -0.257  0.00  0.00    +0.237 C 
ATOM      2  C   LIG A   1       0.242  -1.347  -0.600  0.00  0.00    +0.240 C 
ATOM      3  O   LIG A   1       1.633  -1.512  -0.247  0.00  0.00    -0.480 OA
ATOM      4  C   LIG A   1       2.462  -0.449  -0.481  0.00  0.00    +0.139 A 
ATOM      5  C   LIG A   1       2.032   0.806  -0.915  0.00  0.00    +0.103 A 
ATOM      6  C   LIG A   1       0.590   1.069  -0.952  0.00  0.00    +0.203 C 
ATOM      7  O   LIG A   1       0.161   2.120  -1.436  0.00  0.00    -0.289 OA
ATOM      8  C   LIG A   1       2.964   1.783  -1.282  0.00  0.00    +0.134 A 
ATOM      9  C   LIG A   1       4.326   1.539  -1.136  0.00  0.00    +0.091 A 
ATOM     10  C   LIG A   1       4.744   0.311  -0.631  0.00  0.00    +0.124 A 
ATOM     11  C   LIG A   1       3.825  -0.688  -0.319  0.00  0.00    +0.092 A 
ENDROOT
BRANCH   2  12
ATOM     12  C   LIG A   1      -0.061  -1.812  -2.024  0.00  0.00    -0.001 A 
ATOM     13  C   LIG A   1       0.807  -1.541  -3.097  0.00  0.00    +0.056 A 
ATOM     14  C   LIG A   1       0.499  -1.973  -4.381  0.00  0.00    +0.159 A 
ATOM     15  C   LIG A   1      -0.663  -2.692  -4.621  0.00  0.00    +0.158 A 
ATOM     16  C   LIG A   1      -1.541  -2.974  -3.588  0.00  0.00    +0.049 A 
ATOM     17  C   LIG A   1      -1.247  -2.528  -2.293  0.00  0.00    +0.011 A 
BRANCH  14  18
ATOM     18  O   LIG A   1       1.322  -1.709  -5.441  0.00  0.00    -0.503 OA
ATOM     19  H   LIG A   1       2.068  -1.170  -5.123  0.00  0.00    +0.292 HD
ENDBRANCH  14  18
BRANCH  15  20
ATOM     20  O   LIG A   1      -0.943  -3.125  -5.884  0.00  0.00    -0.503 OA
ATOM     21  H   LIG A   1      -0.188  -2.813  -6.423  0.00  0.00    +0.292 HD
ENDBRANCH  15  20
ENDBRANCH   2  12
BRANCH   8  22
ATOM     22  O   LIG A   1       2.607   2.999  -1.798  0.00  0.00    -0.506 OA
ATOM     23  H   LIG A   1       1.627   3.034  -1.875  0.00  0.00    +0.292 HD
ENDBRANCH   8  22
BRANCH  10  24
ATOM     24  O   LIG A   1       6.065   0.039  -0.436  0.00  0.00    -0.506 OA
ATOM     25  H   LIG A   1       6.580   0.850  -0.588  0.00  0.00    +0.292 HD
ENDBRANCH  10  24
BRANCH   1  26
ATOM     26  O   LIG A   1      -0.257   0.206   1.166  0.00  0.00    -0.334 OA
BRANCH  26  27
ATOM     27  C   LIG A   1      -0.705   1.449   1.696  0.00  0.00    +0.283 C 
ATOM     28  C   LIG A   1      -2.189   1.752   1.433  0.00  0.00    +0.201 C 
ATOM     29  C   LIG A   1      -3.027   0.617   2.023  0.00  0.00    +0.179 C 
ATOM     30  C   LIG A   1      -2.731   0.428   3.516  0.00  0.00    +0.174 C 
ATOM     31  C   LIG A   1      -1.216   0.380   3.786  0.00  0.00    +0.149 C 
ATOM     32  O   LIG A   1      -0.518   1.453   3.126  0.00  0.00    -0.343 OA
ATOM     33  C   LIG A   1      -0.932   0.502   5.281  0.00  0.00    +0.040 C 
BRANCH  28  34
ATOM     34  O   LIG A   1      -2.590   2.990   2.053  0.00  0.00    -0.384 OA
ATOM     35  H   LIG A   1      -1.976   3.150   2.798  0.00  0.00    +0.210 HD
ENDBRANCH  28  34
BRANCH  29  36
ATOM     36  O   LIG A   1      -4.427   0.899   1.864  0.00  0.00    -0.386 OA
ATOM     37  H   LIG A   1      -4.516   1.869   1.968  0.00  0.00    +0.210 HD
ENDBRANCH  29  36
BRANCH  30  38
ATOM     38  O   LIG A   1      -3.363  -0.774   3.968  0.00  0.00    -0.387 OA
ATOM     39  H   LIG A   1      -4.269  -0.751   3.599  0.00  0.00    +0.210 HD
ENDBRANCH  30  38
ENDBRANCH  26  27
ENDBRANCH   1  26
TORSDOF 10
