@<TRIPOS>MOLECULE
NuBBE_2294
 33 34 0 0 0
SMALL
GASTEIGER

@<TRIPOS>ATOM
      1 C          -3.4297    0.7978   -0.0768 C.3     1  LIG1       -0.0391
      2 C          -2.1575    1.5484    0.0627 C.ar    1  LIG1       -0.0427
      3 C          -1.9786    2.8868    0.0433 C.ar    1  LIG1       -0.0577
      4 C          -0.5698    3.2011    0.2129 C.ar    1  LIG1       -0.0535
      5 C           0.1304    2.0624    0.3590 C.ar    1  LIG1       -0.0147
      6 C           1.5588    1.9095    0.5472 C.ar    1  LIG1       -0.0427
      7 C           2.3858    2.2103   -0.6733 C.3     1  LIG1       -0.0391
      8 C           1.8910    0.9503    1.4403 C.ar    1  LIG1       -0.0580
      9 C           1.8867   -0.4207    0.9214 C.ar    1  LIG1       -0.0580
     10 C           0.7921   -1.0095    0.3803 C.ar    1  LIG1       -0.0442
     11 C           0.9032   -2.4458   -0.1339 C.3     1  LIG1       -0.0215
     12 C           0.1361   -3.4380    0.7459 C.3     1  LIG1       -0.0586
     13 C           0.4873   -2.5786   -1.6029 C.3     1  LIG1       -0.0586
     14 C          -0.5364   -0.3642    0.2680 C.ar    1  LIG1       -0.0503
     15 C          -0.8334    0.9522    0.2393 C.ar    1  LIG1       -0.0145
     16 H          -4.2807    1.4763   -0.1979 H       1  LIG1        0.0278
     17 H          -3.6169    0.1846    0.8106 H       1  LIG1        0.0278
     18 H          -3.3994    0.1428   -0.9535 H       1  LIG1        0.0278
     19 H          -2.7483    3.6342   -0.0747 H       1  LIG1        0.0621
     20 H          -0.1735    4.2042    0.2326 H       1  LIG1        0.0624
     21 H           2.5593    3.2893   -0.7472 H       1  LIG1        0.0278
     22 H           1.8947    1.8750   -1.5935 H       1  LIG1        0.0278
     23 H           3.3674    1.7260   -0.6229 H       1  LIG1        0.0278
     24 H           1.3121    0.9217    2.3723 H       1  LIG1        0.0620
     25 H           2.8349   -0.9464    0.9969 H       1  LIG1        0.0620
     26 H           1.9591   -2.7486   -0.0899 H       1  LIG1        0.0343
     27 H          -0.9468   -3.2863    0.6914 H       1  LIG1        0.0235
     28 H           0.4391   -3.3479    1.7949 H       1  LIG1        0.0235
     29 H           0.3403   -4.4666    0.4286 H       1  LIG1        0.0235
     30 H          -0.5848   -2.4045   -1.7441 H       1  LIG1        0.0235
     31 H           0.7077   -3.5862   -1.9724 H       1  LIG1        0.0235
     32 H           1.0336   -1.8667   -2.2314 H       1  LIG1        0.0235
     33 H          -1.3638   -1.0628    0.1667 H       1  LIG1        0.0626
@<TRIPOS>BOND
     1     1     2    1
     2     2     3   ar
     3     3     4   ar
     4     4     5   ar
     5     5     6   ar
     6     6     7    1
     7     6     8   ar
     8     8     9   ar
     9     9    10   ar
    10    10    11    1
    11    11    12    1
    12    11    13    1
    13    10    14   ar
    14    14    15   ar
    15     5    15    1
    16     2    15   ar
    17     1    16    1
    18     1    17    1
    19     1    18    1
    20     3    19    1
    21     4    20    1
    22     7    21    1
    23     7    22    1
    24     7    23    1
    25     8    24    1
    26     9    25    1
    27    11    26    1
    28    12    27    1
    29    12    28    1
    30    12    29    1
    31    13    30    1
    32    13    31    1
    33    13    32    1
    34    14    33    1
