REMARK  Name = NuBBE_2417
REMARK  10 active torsions:
REMARK  status: ('A' for Active; 'I' for Inactive)
REMARK    1  A    between atoms: O_1  and  C_2
REMARK    2  A    between atoms: O_1  and  C_3
REMARK    3  A    between atoms: C_4  and  C_16
REMARK    4  A    between atoms: C_6  and  C_11
REMARK    5  A    between atoms: C_7  and  O_10
REMARK    6  A    between atoms: C_8  and  O_9
REMARK    7  A    between atoms: C_11  and  C_12
REMARK    8  A    between atoms: C_11  and  C_14
REMARK    9  A    between atoms: C_11  and  C_15
REMARK   10  A    between atoms: C_24  and  O_27
REMARK                            x       y       z     vdW  Elec       q    Type
REMARK                         _______ _______ _______ _____ _____    ______ ____
ROOT
ATOM      1  C   LIG A   1      -1.291  -1.763  -0.324  0.00  0.00    +0.169 A 
ATOM      2  C   LIG A   1      -0.572  -0.547  -0.362  0.00  0.00    +0.005 A 
ATOM      3  C   LIG A   1       0.848  -0.578  -0.342  0.00  0.00    +0.016 A 
ATOM      4  C   LIG A   1       1.598  -1.776  -0.318  0.00  0.00    +0.008 A 
ATOM      5  C   LIG A   1       0.838  -2.953  -0.343  0.00  0.00    +0.166 A 
ATOM      6  C   LIG A   1      -0.569  -2.953  -0.319  0.00  0.00    +0.201 A 
ENDROOT
BRANCH   2   7
ATOM      7  C   LIG A   1      -1.332   0.781  -0.368  0.00  0.00    +0.065 C 
ATOM      8  C   LIG A   1      -1.638   1.242   1.062  0.00  0.00    +0.050 C 
ATOM      9  C   LIG A   1      -2.164   2.651   1.084  0.00  0.00    -0.005 A 
ATOM     10  C   LIG A   1      -2.055   3.483  -0.037  0.00  0.00    +0.127 A 
ATOM     11  O   LIG A   1      -1.493   3.083  -1.222  0.00  0.00    -0.491 OA
ATOM     12  C   LIG A   1      -0.642   1.936  -1.104  0.00  0.00    +0.237 C 
ATOM     13  C   LIG A   1      -2.557   4.785  -0.008  0.00  0.00    +0.091 A 
ATOM     14  C   LIG A   1      -3.142   5.267   1.159  0.00  0.00    +0.120 A 
ATOM     15  C   LIG A   1      -3.242   4.464   2.288  0.00  0.00    +0.046 A 
ATOM     16  C   LIG A   1      -2.755   3.156   2.252  0.00  0.00    +0.011 A 
BRANCH  14  17
ATOM     17  O   LIG A   1      -3.631   6.537   1.237  0.00  0.00    -0.507 OA
ATOM     18  H   LIG A   1      -3.493   6.973   0.379  0.00  0.00    +0.292 HD
ENDBRANCH  14  17
ENDBRANCH   2   7
BRANCH   4  19
ATOM     19  C   LIG A   1       3.154  -1.724  -0.281  0.00  0.00    +0.011 C 
ATOM     20  C   LIG A   1       3.658  -0.541   0.595  0.00  0.00    +0.020 C 
ATOM     21  C   LIG A   1       3.771  -2.984   0.376  0.00  0.00    +0.020 C 
BRANCH  19  22
ATOM     22  C   LIG A   1       3.697  -1.628  -1.712  0.00  0.00    -0.024 C 
ATOM     23  C   LIG A   1       4.809  -0.983  -2.122  0.00  0.00    +0.005 C 
ENDBRANCH  19  22
ENDBRANCH   4  19
BRANCH   1  24
ATOM     24  O   LIG A   1      -2.654  -1.631  -0.279  0.00  0.00    -0.491 OA
ATOM     25  C   LIG A   1      -3.459  -2.801  -0.242  0.00  0.00    +0.277 C 
ENDBRANCH   1  24
BRANCH   6  26
ATOM     26  O   LIG A   1      -1.170  -4.188  -0.293  0.00  0.00    -0.501 OA
ATOM     27  H   LIG A   1      -0.435  -4.815  -0.138  0.00  0.00    +0.292 HD
ENDBRANCH   6  26
BRANCH   5  28
ATOM     28  O   LIG A   1       1.381  -4.213  -0.405  0.00  0.00    -0.503 OA
ATOM     29  H   LIG A   1       1.876  -4.248  -1.244  0.00  0.00    +0.292 HD
ENDBRANCH   5  28
TORSDOF 7
