@<TRIPOS>MOLECULE
NuBBE_2144
 44 43 0 0 0
SMALL
GASTEIGER

@<TRIPOS>ATOM
      1 O          -3.0410   -5.2008    0.6710 O.3     1  LIG1       -0.4806
      2 C          -3.8001   -4.2368    0.1268 C.2     1  LIG1        0.3047
      3 C          -4.0121   -3.0340    1.0063 C.3     1  LIG1        0.0448
      4 C          -2.7936   -2.7271    1.8724 C.3     1  LIG1       -0.0430
      5 C          -2.9956   -1.4992    2.7581 C.3     1  LIG1       -0.0526
      6 C          -1.7413   -1.1214    3.5559 C.3     1  LIG1       -0.0530
      7 C          -0.4757   -0.8396    2.7354 C.3     1  LIG1       -0.0531
      8 C          -0.5954    0.3581    1.7890 C.3     1  LIG1       -0.0531
      9 C           0.6902    0.5383    0.9753 C.3     1  LIG1       -0.0531
     10 C           0.6132    1.7465    0.0323 C.3     1  LIG1       -0.0531
     11 C           1.8762    1.8575   -0.8270 C.3     1  LIG1       -0.0531
     12 C           1.8084    3.0335   -1.8084 C.3     1  LIG1       -0.0531
     13 C           3.0579    3.1688   -2.6899 C.3     1  LIG1       -0.0533
     14 C           3.2880    1.9648   -3.6060 C.3     1  LIG1       -0.0559
     15 C           4.5238    2.1335   -4.4772 C.3     1  LIG1       -0.0653
     16 O          -4.3059   -4.4030   -0.9740 O.2     1  LIG1       -0.2510
     17 H          -3.0150   -5.9085   -0.0079 H       1  LIG1        0.2951
     18 H          -4.9065   -3.2051    1.6131 H       1  LIG1        0.0377
     19 H          -4.2012   -2.1798    0.3448 H       1  LIG1        0.0377
     20 H          -1.9373   -2.5802    1.2059 H       1  LIG1        0.0270
     21 H          -2.5587   -3.5857    2.5132 H       1  LIG1        0.0270
     22 H          -3.7995   -1.7149    3.4743 H       1  LIG1        0.0265
     23 H          -3.3307   -0.6460    2.1587 H       1  LIG1        0.0265
     24 H          -1.5182   -1.9362    4.2565 H       1  LIG1        0.0265
     25 H          -1.9721   -0.2421    4.1689 H       1  LIG1        0.0265
     26 H          -0.1899   -1.7370    2.1690 H       1  LIG1        0.0265
     27 H           0.3474   -0.6586    3.4354 H       1  LIG1        0.0265
     28 H          -0.7993    1.2660    2.3731 H       1  LIG1        0.0265
     29 H          -1.4356    0.2176    1.1006 H       1  LIG1        0.0265
     30 H           0.8744   -0.3765    0.3969 H       1  LIG1        0.0265
     31 H           1.5449    0.6597    1.6524 H       1  LIG1        0.0265
     32 H           0.4843    2.6647    0.6183 H       1  LIG1        0.0265
     33 H          -0.2631    1.6525   -0.6199 H       1  LIG1        0.0265
     34 H           1.9957    0.9182   -1.3758 H       1  LIG1        0.0265
     35 H           2.7552    1.9753   -0.1819 H       1  LIG1        0.0265
     36 H           1.6835    3.9676   -1.2461 H       1  LIG1        0.0265
     37 H           0.9240    2.9315   -2.4489 H       1  LIG1        0.0265
     38 H           3.9395    3.3376   -2.0603 H       1  LIG1        0.0265
     39 H           2.9381    4.0658   -3.3116 H       1  LIG1        0.0265
     40 H           2.4100    1.8264   -4.2470 H       1  LIG1        0.0263
     41 H           3.4104    1.0483   -3.0200 H       1  LIG1        0.0263
     42 H           4.5987    3.1451   -4.8875 H       1  LIG1        0.0230
     43 H           4.4924    1.4277   -5.3135 H       1  LIG1        0.0230
     44 H           5.4314    1.9275   -3.9006 H       1  LIG1        0.0230
@<TRIPOS>BOND
     1     1     2    1
     2     2     3    1
     3     3     4    1
     4     4     5    1
     5     5     6    1
     6     6     7    1
     7     7     8    1
     8     8     9    1
     9     9    10    1
    10    10    11    1
    11    11    12    1
    12    12    13    1
    13    13    14    1
    14    14    15    1
    15     2    16    2
    16     1    17    1
    17     3    18    1
    18     3    19    1
    19     4    20    1
    20     4    21    1
    21     5    22    1
    22     5    23    1
    23     6    24    1
    24     6    25    1
    25     7    26    1
    26     7    27    1
    27     8    28    1
    28     8    29    1
    29     9    30    1
    30     9    31    1
    31    10    32    1
    32    10    33    1
    33    11    34    1
    34    11    35    1
    35    12    36    1
    36    12    37    1
    37    13    38    1
    38    13    39    1
    39    14    40    1
    40    14    41    1
    41    15    42    1
    42    15    43    1
    43    15    44    1
