@<TRIPOS>MOLECULE
NuBBE_2137
 22 22 0 0 0
SMALL
GASTEIGER

@<TRIPOS>ATOM
      1 C           0.0500    2.0229   -2.0690 C.3     1  LIG1       -0.0616
      2 C          -0.7192    1.7908   -0.7763 C.3     1  LIG1       -0.0346
      3 C          -0.2565    0.5568   -0.0388 C.2     1  LIG1       -0.0737
      4 C           0.5103    0.6417    1.0645 C.2     1  LIG1       -0.0848
      5 C           0.9522   -0.5459    1.8692 C.3     1  LIG1       -0.0345
      6 C           0.1845   -1.8229    1.5286 C.3     1  LIG1       -0.0493
      7 C           0.0136   -1.9739    0.0219 C.3     1  LIG1       -0.0491
      8 C          -0.7279   -0.7751   -0.5764 C.3     1  LIG1       -0.0317
      9 H          -0.2913    2.9462   -2.5484 H       1  LIG1        0.0233
     10 H          -0.0986    1.2041   -2.7799 H       1  LIG1        0.0233
     11 H           1.1241    2.1190   -1.8781 H       1  LIG1        0.0233
     12 H          -1.7910    1.7054   -0.9921 H       1  LIG1        0.0307
     13 H          -0.6081    2.6779   -0.1401 H       1  LIG1        0.0307
     14 H           0.8428    1.6134    1.4229 H       1  LIG1        0.0572
     15 H           0.8268   -0.3290    2.9361 H       1  LIG1        0.0307
     16 H           2.0240   -0.6999    1.6968 H       1  LIG1        0.0307
     17 H          -0.8037   -1.7966    2.0056 H       1  LIG1        0.0268
     18 H           0.7121   -2.6916    1.9381 H       1  LIG1        0.0268
     19 H          -0.5341   -2.8957   -0.2045 H       1  LIG1        0.0268
     20 H           1.0009   -2.0666   -0.4487 H       1  LIG1        0.0268
     21 H          -1.8006   -0.8708   -0.3664 H       1  LIG1        0.0310
     22 H          -0.6105   -0.8101   -1.6651 H       1  LIG1        0.0310
@<TRIPOS>BOND
     1     1     2    1
     2     2     3    1
     3     3     4    2
     4     4     5    1
     5     5     6    1
     6     6     7    1
     7     7     8    1
     8     3     8    1
     9     1     9    1
    10     1    10    1
    11     1    11    1
    12     2    12    1
    13     2    13    1
    14     4    14    1
    15     5    15    1
    16     5    16    1
    17     6    17    1
    18     6    18    1
    19     7    19    1
    20     7    20    1
    21     8    21    1
    22     8    22    1
