REMARK  Name = NuBBE_2395
REMARK  6 active torsions:
REMARK  status: ('A' for Active; 'I' for Inactive)
REMARK    1  A    between atoms: O_1  and  C_2
REMARK    2  A    between atoms: C_6  and  C_9
REMARK    3  A    between atoms: C_6  and  C_10
REMARK    4  A    between atoms: C_13  and  C_14
REMARK    5  A    between atoms: C_14  and  C_16
REMARK    6  A    between atoms: C_17  and  C_18
REMARK                            x       y       z     vdW  Elec       q    Type
REMARK                         _______ _______ _______ _____ _____    ______ ____
ROOT
ATOM      1  C   LIG A   1       0.510  -0.374  -0.307  0.00  0.00    +0.138 A 
ATOM      2  C   LIG A   1       1.262  -1.573  -0.299  0.00  0.00    +0.059 A 
ATOM      3  C   LIG A   1       2.660  -1.501  -0.274  0.00  0.00    +0.132 A 
ATOM      4  O   LIG A   1       3.491  -2.588  -0.297  0.00  0.00    -0.481 OA
ATOM      5  C   LIG A   1       2.925  -3.908  -0.425  0.00  0.00    +0.123 C 
ATOM      6  C   LIG A   1       1.419  -3.973  -0.368  0.00  0.00    +0.020 C 
ATOM      7  C   LIG A   1       0.637  -2.894  -0.297  0.00  0.00    +0.015 C 
ATOM      8  C   LIG A   1       3.406  -4.483  -1.763  0.00  0.00    +0.060 C 
ATOM      9  C   LIG A   1       3.491  -4.736   0.736  0.00  0.00    +0.060 C 
ATOM     10  C   LIG A   1       3.296  -0.260  -0.224  0.00  0.00    +0.047 A 
ATOM     11  C   LIG A   1       2.543   0.919  -0.204  0.00  0.00    +0.019 A 
ATOM     12  C   LIG A   1       1.139   0.880  -0.240  0.00  0.00    +0.064 A 
ENDROOT
BRANCH   1  13
ATOM     13  O   LIG A   1      -0.856  -0.428  -0.434  0.00  0.00    -0.505 OA
ATOM     14  H   LIG A   1      -1.078  -1.189  -0.998  0.00  0.00    +0.292 HD
ENDBRANCH   1  13
BRANCH  12  15
ATOM     15  C   LIG A   1       0.430   2.200  -0.309  0.00  0.00    +0.190 C 
ATOM     16  O   LIG A   1       1.021   3.176  -0.754  0.00  0.00    -0.287 OA
BRANCH  15  17
ATOM     17  C   LIG A   1      -0.962   2.328   0.223  0.00  0.00    +0.052 C 
ATOM     18  C   LIG A   1      -1.723   3.385  -0.115  0.00  0.00    +0.012 C 
BRANCH  18  19
ATOM     19  C   LIG A   1      -3.086   3.643   0.389  0.00  0.00    -0.025 A 
ATOM     20  C   LIG A   1      -3.482   3.289   1.686  0.00  0.00    +0.008 A 
ATOM     21  C   LIG A   1      -4.762   3.603   2.158  0.00  0.00    +0.001 A 
ATOM     22  C   LIG A   1      -5.661   4.284   1.342  0.00  0.00    +0.000 A 
ATOM     23  C   LIG A   1      -5.280   4.657   0.056  0.00  0.00    +0.001 A 
ATOM     24  C   LIG A   1      -3.999   4.342  -0.415  0.00  0.00    +0.008 A 
ENDBRANCH  18  19
ENDBRANCH  15  17
ENDBRANCH  12  15
TORSDOF 4
