REMARK  Name = NuBBE_340
REMARK  6 active torsions:
REMARK  status: ('A' for Active; 'I' for Inactive)
REMARK    1  A    between atoms: C_1  and  S_2
REMARK    2  A    between atoms: S_2  and  C_3
REMARK    3  A    between atoms: N_14  and  C_15
REMARK    4  A    between atoms: C_15  and  C_16
REMARK    5  A    between atoms: C_16  and  C_17
REMARK    6  A    between atoms: N_19  and  C_20
REMARK                            x       y       z     vdW  Elec       q    Type
REMARK                         _______ _______ _______ _____ _____    ______ ____
ROOT
ATOM      1  C   LIG A   1       0.123   2.908  -1.704  0.00  0.00    +0.090 A 
ATOM      2  C   LIG A   1       0.902   3.051  -2.841  0.00  0.00    +0.028 A 
ATOM      3  C   LIG A   1       1.296   1.905  -3.514  0.00  0.00    +0.019 A 
ATOM      4  C   LIG A   1       0.923   0.621  -3.056  0.00  0.00    +0.034 A 
ATOM      5  S   LIG A   1       1.540  -0.706  -4.053  0.00  0.00    -0.086 S 
ATOM      6  C   LIG A   1       0.745  -2.118  -3.337  0.00  0.00    +0.034 A 
ATOM      7  C   LIG A   1       0.932  -3.317  -4.058  0.00  0.00    +0.017 A 
ATOM      8  C   LIG A   1       0.387  -4.513  -3.616  0.00  0.00    +0.001 A 
ATOM      9  C   LIG A   1      -0.327  -4.521  -2.432  0.00  0.00    +0.002 A 
ATOM     10  C   LIG A   1      -0.502  -3.333  -1.704  0.00  0.00    +0.024 A 
ATOM     11  C   LIG A   1       0.000  -2.084  -2.138  0.00  0.00    +0.048 A 
ATOM     12  N   LIG A   1      -0.247  -0.860  -1.438  0.00  0.00    -0.298 N 
ATOM     13  C   LIG A   1       0.143   0.443  -1.891  0.00  0.00    +0.050 A 
ATOM     14  C   LIG A   1      -0.238   1.635  -1.228  0.00  0.00    +0.051 A 
ENDROOT
BRANCH   1  16
ATOM     15  C   LIG A   1      -1.359   5.267  -2.034  0.00  0.00    +0.200 C 
ATOM     16  S   LIG A   1      -0.401   4.371  -0.839  0.00  0.00    -0.006 S 
ATOM     17  O   LIG A   1       0.794   5.132  -0.545  0.00  0.00    -0.170 OA
ATOM     18  O   LIG A   1      -1.305   3.956   0.220  0.00  0.00    -0.170 OA
ENDBRANCH   1  16
BRANCH  12  19
ATOM     19  C   LIG A   1      -0.940  -0.953  -0.121  0.00  0.00    +0.112 C 
BRANCH  19  20
ATOM     20  C   LIG A   1       0.067  -1.103   1.035  0.00  0.00    +0.038 C 
BRANCH  20  21
ATOM     21  C   LIG A   1      -0.600  -1.210   2.435  0.00  0.00    +0.058 C 
ATOM     22  N   LIG A   1       0.338  -1.365   3.568  0.00  0.00    -0.302 NA
ATOM     23  C   LIG A   1       1.084  -2.615   3.566  0.00  0.00    +0.105 C 
ATOM     24  C   LIG A   1       1.212  -0.203   3.757  0.00  0.00    +0.084 C 
ATOM     25  C   LIG A   1       0.386   1.050   4.051  0.00  0.00    +0.015 C 
ATOM     26  C   LIG A   1      -0.730   1.268   3.034  0.00  0.00    +0.003 C 
ATOM     27  C   LIG A   1      -1.514  -0.019   2.791  0.00  0.00    +0.019 C 
ENDBRANCH  20  21
ENDBRANCH  19  20
ENDBRANCH  12  19
TORSDOF 4
