REMARK  Name = NuBBE_633
REMARK  4 active torsions:
REMARK  status: ('A' for Active; 'I' for Inactive)
REMARK    1  A    between atoms: O_1  and  C_2
REMARK    2  A    between atoms: C_5  and  C_6
REMARK    3  A    between atoms: C_7  and  C_8
REMARK    4  A    between atoms: C_8  and  O_9
REMARK                            x       y       z     vdW  Elec       q    Type
REMARK                         _______ _______ _______ _____ _____    ______ ____
ROOT
ATOM      1  C   LIG A   1      -2.862   0.370   0.560  0.00  0.00    +0.117 A 
ATOM      2  C   LIG A   1      -2.127   1.543   0.436  0.00  0.00    +0.046 A 
ATOM      3  C   LIG A   1      -0.744   1.468   0.245  0.00  0.00    +0.011 A 
ATOM      4  C   LIG A   1      -0.094   0.226   0.166  0.00  0.00    -0.025 A 
ATOM      5  C   LIG A   1      -0.853  -0.942   0.315  0.00  0.00    +0.011 A 
ATOM      6  C   LIG A   1      -2.236  -0.869   0.506  0.00  0.00    +0.046 A 
ENDROOT
BRANCH   1   7
ATOM      7  O   LIG A   1      -4.212   0.393   0.744  0.00  0.00    -0.507 OA
ATOM      8  H   LIG A   1      -4.508   1.318   0.751  0.00  0.00    +0.292 HD
ENDBRANCH   1   7
BRANCH   4   9
ATOM      9  C   LIG A   1       1.366   0.206  -0.006  0.00  0.00    +0.015 C 
ATOM     10  C   LIG A   1       2.051  -0.755  -0.644  0.00  0.00    +0.092 C 
BRANCH  10  11
ATOM     11  C   LIG A   1       3.511  -0.645  -0.753  0.00  0.00    +0.330 C 
ATOM     12  O   LIG A   1       4.219   0.243  -0.317  0.00  0.00    -0.246 OA
BRANCH  11  13
ATOM     13  O   LIG A   1       4.014  -1.692  -1.424  0.00  0.00    -0.477 OA
ATOM     14  H   LIG A   1       4.979  -1.517  -1.439  0.00  0.00    +0.295 HD
ENDBRANCH  11  13
ENDBRANCH  10  11
ENDBRANCH   4   9
TORSDOF 4
