@<TRIPOS>MOLECULE
NuBBE_2470
 58 59 0 0 0
SMALL
GASTEIGER

@<TRIPOS>ATOM
      1 O           0.9119    2.6268    1.8839 O.3     1  LIG1       -0.3947
      2 C           1.0963    1.3575    1.2813 C.3     1  LIG1        0.0477
      3 C           0.8266    1.2884   -0.2464 C.3     1  LIG1       -0.0086
      4 H           1.4343    2.0717   -0.7227 H       1  LIG1        0.0329
      5 C           1.3491   -0.0827   -0.8548 C.3     1  LIG1       -0.0086
      6 H           2.4378   -0.1045   -0.7077 H       1  LIG1        0.0329
      7 C           1.0590   -0.0142   -2.3714 C.3     1  LIG1        0.0477
      8 O           1.5149   -1.0831   -3.1426 O.3     1  LIG1       -0.3947
      9 C           0.8148   -1.3433   -0.1153 C.3     1  LIG1       -0.0223
     10 C           1.3806   -2.7386   -0.3256 C.ar    1  LIG1       -0.0433
     11 C           2.0175   -3.2167   -1.4937 C.ar    1  LIG1       -0.0549
     12 C           2.3693   -4.5488   -1.6852 C.ar    1  LIG1       -0.0160
     13 C           2.3083   -5.4087   -0.6627 C.ar    1  LIG1        0.1615
     14 O           2.8150   -6.6593   -0.9200 O.3     1  LIG1       -0.4915
     15 C           3.5446   -7.2638    0.1353 C.3     1  LIG1        0.0790
     16 C           1.7258   -4.9836    0.5532 C.ar    1  LIG1        0.1617
     17 O           1.6679   -5.8684    1.5817 O.3     1  LIG1       -0.4914
     18 C           0.5590   -5.7515    2.4682 C.3     1  LIG1        0.0790
     19 C           1.2609   -3.6603    0.6850 C.ar    1  LIG1       -0.0131
     20 C          -0.6484    1.5734   -0.6740 C.3     1  LIG1       -0.0223
     21 C          -1.2263    2.9321   -0.4154 C.ar    1  LIG1       -0.0433
     22 C          -2.5773    3.1588   -0.6995 C.ar    1  LIG1       -0.0131
     23 C          -3.1900    4.3840   -0.3931 C.ar    1  LIG1        0.1617
     24 O          -4.5188    4.6036   -0.6855 O.3     1  LIG1       -0.4914
     25 C          -5.3134    3.4178   -0.8255 C.3     1  LIG1        0.0790
     26 C          -2.4220    5.4008    0.2187 C.ar    1  LIG1        0.1615
     27 O          -3.0016    6.5927    0.5713 O.3     1  LIG1       -0.4915
     28 C          -2.4027    7.3167    1.6549 C.3     1  LIG1        0.0790
     29 C          -1.0571    5.1874    0.3995 C.ar    1  LIG1       -0.0160
     30 C          -0.4710    3.9938    0.0242 C.ar    1  LIG1       -0.0549
     31 H           0.3608    2.5202    2.6792 H       1  LIG1        0.2094
     32 H           0.4678    0.6515    1.8253 H       1  LIG1        0.0560
     33 H           2.1481    1.1183    1.4559 H       1  LIG1        0.0560
     34 H           1.5093    0.8854   -2.7991 H       1  LIG1        0.0560
     35 H          -0.0104   -0.0183   -2.5720 H       1  LIG1        0.0560
     36 H           0.8861   -1.8000   -2.9300 H       1  LIG1        0.2094
     37 H          -0.2851   -1.3893   -0.2005 H       1  LIG1        0.0317
     38 H           0.9858   -1.1608    0.9652 H       1  LIG1        0.0317
     39 H           2.3629   -2.6345   -2.3063 H       1  LIG1        0.0621
     40 H           2.7694   -4.8356   -2.6671 H       1  LIG1        0.0655
     41 H           2.9351   -7.4362    1.0183 H       1  LIG1        0.0660
     42 H           4.4430   -6.6869    0.3874 H       1  LIG1        0.0660
     43 H           3.8353   -8.2598   -0.1973 H       1  LIG1        0.0660
     44 H           0.5914   -6.6152    3.1287 H       1  LIG1        0.0660
     45 H          -0.3825   -5.7676    1.9087 H       1  LIG1        0.0660
     46 H           0.6557   -4.8545    3.0790 H       1  LIG1        0.0660
     47 H           0.8397   -3.3314    1.6425 H       1  LIG1        0.0658
     48 H          -1.3071    0.8044   -0.2514 H       1  LIG1        0.0317
     49 H          -0.7397    1.5040   -1.7618 H       1  LIG1        0.0317
     50 H          -3.1256    2.3588   -1.1846 H       1  LIG1        0.0658
     51 H          -6.3655    3.7033   -0.9007 H       1  LIG1        0.0660
     52 H          -5.2025    2.7723    0.0544 H       1  LIG1        0.0660
     53 H          -5.0741    2.8582   -1.7404 H       1  LIG1        0.0660
     54 H          -1.4557    6.9347    2.0479 H       1  LIG1        0.0660
     55 H          -3.1012    7.3081    2.4944 H       1  LIG1        0.0660
     56 H          -2.2287    8.3535    1.3478 H       1  LIG1        0.0660
     57 H          -0.3833    5.9171    0.8278 H       1  LIG1        0.0655
     58 H           0.6059    3.9221    0.1326 H       1  LIG1        0.0621
@<TRIPOS>BOND
     1     1     2    1
     2     2     3    1
     3     3     4    1
     4     5     7    1
     5     7     8    1
     6     5     9    1
     7     9    10    1
     8    10    11   ar
     9    11    12   ar
    10    12    13   ar
    11    13    14    1
    12    14    15    1
    13    13    16   ar
    14    16    17    1
    15    17    18    1
    16    16    19   ar
    17    10    19   ar
    18     3    20    1
    19    20    21    1
    20    21    22   ar
    21    22    23   ar
    22    23    24    1
    23    24    25    1
    24    23    26   ar
    25    26    27    1
    26    27    28    1
    27    26    29   ar
    28    29    30   ar
    29    21    30   ar
    30     5     6    1
    31     5     3    1
    32     1    31    1
    33     2    32    1
    34     2    33    1
    35     7    34    1
    36     7    35    1
    37     8    36    1
    38     9    37    1
    39     9    38    1
    40    11    39    1
    41    12    40    1
    42    15    41    1
    43    15    42    1
    44    15    43    1
    45    18    44    1
    46    18    45    1
    47    18    46    1
    48    19    47    1
    49    20    48    1
    50    20    49    1
    51    22    50    1
    52    25    51    1
    53    25    52    1
    54    25    53    1
    55    28    54    1
    56    28    55    1
    57    28    56    1
    58    29    57    1
    59    30    58    1
