@<TRIPOS>MOLECULE
NuBBE_1645
 77 78 0 0 0
SMALL
GASTEIGER

@<TRIPOS>ATOM
      1 C          -1.8082    1.9688    2.0532 C.3     1  LIG1       -0.0238
      2 C          -2.7432    0.7682    1.7470 C.3     1  LIG1       -0.0463
      3 C          -4.0596    1.0486    0.9750 C.3     1  LIG1       -0.0436
      4 C          -4.9125   -0.2316    0.7784 C.3     1  LIG1       -0.0504
      5 C          -4.2517   -1.3547   -0.0173 C.3     1  LIG1       -0.0526
      6 C          -3.8555   -0.9533   -1.4421 C.3     1  LIG1       -0.0505
      7 C          -3.1021   -2.0615   -2.2072 C.3     1  LIG1       -0.0439
      8 C          -1.8102   -2.5128   -1.4919 C.3     1  LIG1       -0.0505
      9 C          -0.8017   -1.3879   -1.2837 C.3     1  LIG1       -0.0526
     10 C           0.4204   -1.8617   -0.4708 C.3     1  LIG1       -0.0505
     11 C           1.5345   -0.7988   -0.3115 C.3     1  LIG1       -0.0439
     12 C           2.7646   -1.2292    0.5649 C.3     1  LIG1       -0.0505
     13 C           3.6345   -2.3663   -0.0103 C.3     1  LIG1       -0.0526
     14 C           4.8568   -2.8606    0.8177 C.3     1  LIG1       -0.0507
     15 C           6.0093   -1.8719    1.1430 C.3     1  LIG1       -0.0467
     16 C           7.1650   -2.5467    1.9133 C.3     1  LIG1       -0.0627
     17 C           6.6167   -1.2141   -0.0965 C.3     1  LIG1       -0.0627
     18 C           1.9830   -0.3493   -1.7034 C.3     1  LIG1       -0.0624
     19 C          -3.9945   -3.2822   -2.4504 C.3     1  LIG1       -0.0624
     20 C          -4.9480    2.0933    1.6514 C.3     1  LIG1       -0.0624
     21 C          -1.1533    2.7116    0.9058 C.ar    1  LIG1       -0.0013
     22 C          -0.6072    3.9821    1.0357 C.ar    1  LIG1        0.1387
     23 C           0.1267    4.5883    0.0134 C.ar    1  LIG1        0.0093
     24 C           0.4992    5.9430    0.4406 C.3     1  LIG1        0.0740
     25 C          -0.0950    5.9810    1.8445 C.2     1  LIG1        0.3168
     26 O          -0.0082    6.9051    2.5937 O.2     1  LIG1       -0.2500
     27 O          -0.7626    4.7870    2.1490 O.3     1  LIG1       -0.4250
     28 C           0.3837    3.9639   -1.1815 C.ar    1  LIG1       -0.0130
     29 C          -0.1998    2.7287   -1.3602 C.ar    1  LIG1        0.1176
     30 C          -0.9770    2.1365   -0.3534 C.ar    1  LIG1       -0.0135
     31 O          -0.0320    2.1063   -2.5592 O.3     1  LIG1       -0.5067
     32 H          -0.9802    1.5546    2.6528 H       1  LIG1        0.0314
     33 H          -2.3276    2.6718    2.7116 H       1  LIG1        0.0314
     34 H          -2.9927    0.2876    2.7034 H       1  LIG1        0.0271
     35 H          -2.1598    0.0178    1.2037 H       1  LIG1        0.0271
     36 H          -3.8086    1.4482   -0.0116 H       1  LIG1        0.0298
     37 H          -5.8531    0.0295    0.2760 H       1  LIG1        0.0268
     38 H          -5.1941   -0.6341    1.7610 H       1  LIG1        0.0268
     39 H          -4.9504   -2.1986   -0.0660 H       1  LIG1        0.0265
     40 H          -3.3861   -1.7086    0.5469 H       1  LIG1        0.0265
     41 H          -3.2241   -0.0615   -1.4233 H       1  LIG1        0.0268
     42 H          -4.7497   -0.6553   -2.0049 H       1  LIG1        0.0268
     43 H          -2.8338   -1.6497   -3.1902 H       1  LIG1        0.0298
     44 H          -1.3318   -3.3080   -2.0727 H       1  LIG1        0.0268
     45 H          -2.0551   -2.9482   -0.5175 H       1  LIG1        0.0268
     46 H          -1.2778   -0.5969   -0.7232 H       1  LIG1        0.0265
     47 H          -0.5357   -0.9774   -2.2634 H       1  LIG1        0.0265
     48 H           0.8331   -2.7351   -0.9809 H       1  LIG1        0.0268
     49 H           0.0679   -2.1818    0.5171 H       1  LIG1        0.0268
     50 H           1.0869    0.0649    0.2057 H       1  LIG1        0.0298
     51 H           2.4089   -1.4954    1.5678 H       1  LIG1        0.0268
     52 H           3.3990   -0.3413    0.6865 H       1  LIG1        0.0268
     53 H           3.9961   -2.0830   -1.0029 H       1  LIG1        0.0265
     54 H           2.9816   -3.2351   -0.1616 H       1  LIG1        0.0265
     55 H           5.2874   -3.6995    0.2510 H       1  LIG1        0.0268
     56 H           4.4913   -3.2973    1.7556 H       1  LIG1        0.0268
     57 H           5.6129   -1.0839    1.7924 H       1  LIG1        0.0295
     58 H           6.8455   -2.9080    2.8951 H       1  LIG1        0.0232
     59 H           7.5991   -3.3861    1.3573 H       1  LIG1        0.0232
     60 H           7.9775   -1.8275    2.0889 H       1  LIG1        0.0232
     61 H           6.8662   -1.9530   -0.8654 H       1  LIG1        0.0232
     62 H           7.5451   -0.6859    0.1580 H       1  LIG1        0.0232
     63 H           5.9316   -0.4759   -0.5181 H       1  LIG1        0.0232
     64 H           1.5995   -1.0059   -2.4917 H       1  LIG1        0.0232
     65 H           3.0639   -0.2924   -1.8142 H       1  LIG1        0.0232
     66 H           1.6143    0.6510   -1.9005 H       1  LIG1        0.0232
     67 H          -4.0802   -3.9004   -1.5503 H       1  LIG1        0.0232
     68 H          -3.5696   -3.9099   -3.2410 H       1  LIG1        0.0232
     69 H          -5.0021   -2.9886   -2.7613 H       1  LIG1        0.0232
     70 H          -5.1592    1.8272    2.6915 H       1  LIG1        0.0232
     71 H          -5.9110    2.1764    1.1304 H       1  LIG1        0.0232
     72 H          -4.4811    3.0802    1.6189 H       1  LIG1        0.0232
     73 H           0.0263    6.6976   -0.1891 H       1  LIG1        0.0428
     74 H           1.5821    6.0561    0.4939 H       1  LIG1        0.0428
     75 H           0.9711    4.4242   -1.9703 H       1  LIG1        0.0658
     76 H          -1.5025    1.2310   -0.5863 H       1  LIG1        0.0658
     77 H          -0.2937    1.1769   -2.4459 H       1  LIG1        0.2921
@<TRIPOS>BOND
     1     1     2    1
     2     2     3    1
     3     3     4    1
     4     4     5    1
     5     5     6    1
     6     6     7    1
     7     7     8    1
     8     8     9    1
     9     9    10    1
    10    10    11    1
    11    11    12    1
    12    12    13    1
    13    13    14    1
    14    14    15    1
    15    15    16    1
    16    15    17    1
    17    11    18    1
    18     7    19    1
    19     3    20    1
    20     1    21    1
    21    21    22   ar
    22    22    23   ar
    23    23    24    1
    24    24    25    1
    25    25    26    2
    26    25    27    1
    27    22    27    1
    28    23    28   ar
    29    28    29   ar
    30    29    30   ar
    31    21    30   ar
    32    29    31    1
    33     1    32    1
    34     1    33    1
    35     2    34    1
    36     2    35    1
    37     3    36    1
    38     4    37    1
    39     4    38    1
    40     5    39    1
    41     5    40    1
    42     6    41    1
    43     6    42    1
    44     7    43    1
    45     8    44    1
    46     8    45    1
    47     9    46    1
    48     9    47    1
    49    10    48    1
    50    10    49    1
    51    11    50    1
    52    12    51    1
    53    12    52    1
    54    13    53    1
    55    13    54    1
    56    14    55    1
    57    14    56    1
    58    15    57    1
    59    16    58    1
    60    16    59    1
    61    16    60    1
    62    17    61    1
    63    17    62    1
    64    17    63    1
    65    18    64    1
    66    18    65    1
    67    18    66    1
    68    19    67    1
    69    19    68    1
    70    19    69    1
    71    20    70    1
    72    20    71    1
    73    20    72    1
    74    24    73    1
    75    24    74    1
    76    28    75    1
    77    30    76    1
    78    31    77    1
