REMARK  Name = NuBBE_598
REMARK  6 active torsions:
REMARK  status: ('A' for Active; 'I' for Inactive)
REMARK    1  A    between atoms: C_1  and  O_2
REMARK    2  A    between atoms: O_2  and  C_3
REMARK    3  A    between atoms: C_12  and  O_13
REMARK    4  A    between atoms: O_13  and  C_14
REMARK    5  A    between atoms: C_15  and  O_16
REMARK    6  A    between atoms: O_16  and  C_17
REMARK                            x       y       z     vdW  Elec       q    Type
REMARK                         _______ _______ _______ _____ _____    ______ ____
ROOT
ATOM      1  C   LIG A   1       0.481   1.684   0.287  0.00  0.00    +0.142 A 
ATOM      2  C   LIG A   1       1.143   2.189   1.421  0.00  0.00    +0.082 A 
ATOM      3  C   LIG A   1       1.400   1.280   2.443  0.00  0.00    +0.231 A 
ATOM      4  O   LIG A   1       2.038   1.905   3.472  0.00  0.00    -0.445 OA
ATOM      5  C   LIG A   1       2.207   3.201   3.115  0.00  0.00    +0.198 A 
ATOM      6  C   LIG A   1       1.687   3.426   1.862  0.00  0.00    +0.055 A 
ATOM      7  N   LIG A   1       1.101  -0.027   2.467  0.00  0.00    -0.212 NA
ATOM      8  C   LIG A   1       0.489  -0.490   1.370  0.00  0.00    +0.082 A 
ATOM      9  C   LIG A   1       0.155  -1.838   1.336  0.00  0.00    +0.078 A 
ATOM     10  C   LIG A   1      -0.501  -2.431   0.245  0.00  0.00    +0.164 A 
ATOM     11  C   LIG A   1      -0.856  -1.639  -0.849  0.00  0.00    +0.162 A 
ATOM     12  C   LIG A   1      -0.518  -0.287  -0.837  0.00  0.00    +0.063 A 
ATOM     13  C   LIG A   1       0.155   0.306   0.257  0.00  0.00    +0.046 A 
ENDROOT
BRANCH   1  15
ATOM     14  C   LIG A   1      -0.399   3.677  -0.618  0.00  0.00    +0.277 C 
ATOM     15  O   LIG A   1       0.227   2.421  -0.859  0.00  0.00    -0.494 OA
ENDBRANCH   1  15
BRANCH  10  16
ATOM     16  O   LIG A   1      -0.765  -3.767   0.416  0.00  0.00    -0.491 OA
ATOM     17  C   LIG A   1      -0.835  -4.563  -0.762  0.00  0.00    +0.277 C 
ENDBRANCH  10  16
BRANCH  11  18
ATOM     18  O   LIG A   1      -1.628  -2.181  -1.839  0.00  0.00    -0.491 OA
ATOM     19  C   LIG A   1      -1.367  -1.718  -3.158  0.00  0.00    +0.277 C 
ENDBRANCH  11  18
TORSDOF 3
