REMARK  Name = NuBBE_132
REMARK  10 active torsions:
REMARK  status: ('A' for Active; 'I' for Inactive)
REMARK    1  A    between atoms: C_1  and  C_2
REMARK    2  A    between atoms: C_2  and  C_3
REMARK    3  A    between atoms: C_6  and  C_32
REMARK    4  A    between atoms: C_9  and  C_29
REMARK    5  A    between atoms: C_14  and  C_28
REMARK    6  A    between atoms: C_17  and  O_18
REMARK    7  A    between atoms: C_19  and  C_20
REMARK    8  A    between atoms: C_19  and  C_26
REMARK    9  A    between atoms: C_24  and  C_25
REMARK   10  A    between atoms: C_32  and  O_33
REMARK                            x       y       z     vdW  Elec       q    Type
REMARK                         _______ _______ _______ _____ _____    ______ ____
ROOT
ATOM      1  C   LIG A   1      -3.234   1.000  -4.487  0.00  0.00    +0.011 C 
ATOM      2  C   LIG A   1      -1.883   1.706  -4.724  0.00  0.00    -0.034 C 
ATOM      3  C   LIG A   1      -1.463   1.424  -6.180  0.00  0.00    +0.011 C 
ATOM      4  C   LIG A   1      -2.020   3.229  -4.523  0.00  0.00    +0.007 C 
ATOM      5  C   LIG A   1      -2.235   3.641  -3.063  0.00  0.00    +0.019 C 
ATOM      6  C   LIG A   1      -1.160   3.083  -2.097  0.00  0.00    +0.074 C 
ATOM      7  C   LIG A   1      -1.621   3.339  -0.634  0.00  0.00    +0.019 C 
ATOM      8  C   LIG A   1      -0.685   2.702   0.407  0.00  0.00    +0.012 C 
ATOM      9  C   LIG A   1      -0.454   1.167   0.225  0.00  0.00    -0.005 C 
ATOM     10  C   LIG A   1      -0.056   0.931  -1.266  0.00  0.00    -0.063 C 
ATOM     11  C   LIG A   1       1.036   0.214  -1.620  0.00  0.00    -0.026 C 
ATOM     12  C   LIG A   1       1.897  -0.584  -0.671  0.00  0.00    +0.031 C 
ATOM     13  C   LIG A   1       1.130  -0.791   0.645  0.00  0.00    +0.006 C 
ATOM     14  C   LIG A   1       1.681  -1.841   1.676  0.00  0.00    -0.025 C 
ATOM     15  C   LIG A   1       2.010  -3.176   0.922  0.00  0.00    +0.010 C 
ATOM     16  C   LIG A   1       1.668  -4.468   1.666  0.00  0.00    +0.032 C 
ATOM     17  C   LIG A   1       1.737  -4.327   3.178  0.00  0.00    +0.120 C 
ATOM     18  C   LIG A   1       0.735  -3.264   3.730  0.00  0.00    -0.006 C 
ATOM     19  C   LIG A   1       1.295  -2.758   5.077  0.00  0.00    +0.014 C 
ATOM     20  C   LIG A   1       0.498  -2.122   2.666  0.00  0.00    +0.003 C 
ATOM     21  C   LIG A   1      -0.236  -0.865   3.195  0.00  0.00    +0.005 C 
ATOM     22  C   LIG A   1       0.267   0.493   2.706  0.00  0.00    +0.008 C 
ATOM     23  C   LIG A   1       0.702   0.609   1.219  0.00  0.00    -0.019 C 
ATOM     24  C   LIG A   1       1.905   1.613   1.230  0.00  0.00    +0.012 C 
ATOM     25  C   LIG A   1      -0.642  -3.911   4.041  0.00  0.00    +0.014 C 
ATOM     26  C   LIG A   1       2.965  -1.354   2.368  0.00  0.00    +0.012 C 
ATOM     27  C   LIG A   1      -1.804   0.449   0.523  0.00  0.00    +0.016 C 
ATOM     28  C   LIG A   1      -1.007   1.554  -2.298  0.00  0.00    +0.033 C 
ATOM     29  C   LIG A   1      -0.795   1.148  -3.776  0.00  0.00    +0.015 C 
ENDROOT
BRANCH  17  30
ATOM     30  O   LIG A   1       1.542  -5.606   3.783  0.00  0.00    -0.391 OA
ATOM     31  H   LIG A   1       0.761  -6.018   3.376  0.00  0.00    +0.210 HD
ENDBRANCH  17  30
BRANCH   6  32
ATOM     32  C   LIG A   1       0.148   3.835  -2.377  0.00  0.00    +0.311 C 
ATOM     33  O   LIG A   1       1.093   3.463  -3.056  0.00  0.00    -0.250 OA
BRANCH  32  34
ATOM     34  O   LIG A   1       0.173   5.083  -1.864  0.00  0.00    -0.480 OA
ATOM     35  H   LIG A   1       1.039   5.433  -2.160  0.00  0.00    +0.295 HD
ENDBRANCH  32  34
ENDBRANCH   6  32
TORSDOF 3
