@<TRIPOS>MOLECULE
NuBBE_69
 48 51 0 0 0
SMALL
GASTEIGER

@<TRIPOS>ATOM
      1 O           1.4540   -2.1380   -3.9533 O.3     1  LIG1       -0.3947
      2 C           1.3407   -2.1685   -2.5344 C.3     1  LIG1        0.0477
      3 C           0.7056   -0.8587   -2.0182 C.3     1  LIG1       -0.0086
      4 H          -0.2418   -0.7281   -2.5614 H       1  LIG1        0.0329
      5 C           0.3515   -0.9241   -0.4851 C.3     1  LIG1       -0.0086
      6 H          -0.0438    0.0600   -0.2034 H       1  LIG1        0.0329
      7 C           1.5492   -1.2256    0.4339 C.3     1  LIG1        0.0477
      8 O           2.6109   -0.3024    0.2585 O.3     1  LIG1       -0.3947
      9 C          -0.7760   -1.9754   -0.2515 C.3     1  LIG1       -0.0223
     10 C          -1.3159   -2.1314    1.1551 C.ar    1  LIG1       -0.0433
     11 C          -1.9360   -1.0666    1.8280 C.ar    1  LIG1       -0.0130
     12 C          -2.4818   -1.3118    3.0754 C.ar    1  LIG1        0.1665
     13 C          -2.4226   -2.5517    3.6661 C.ar    1  LIG1        0.1662
     14 C          -1.8173   -3.6207    3.0457 C.ar    1  LIG1       -0.0159
     15 C          -1.2684   -3.4048    1.7773 C.ar    1  LIG1       -0.0549
     16 O          -3.0300   -2.5823    4.8817 O.3     1  LIG1       -0.4526
     17 C          -3.5197   -1.2282    4.9745 C.3     1  LIG1        0.2332
     18 O          -3.1415   -0.4060    3.8473 O.3     1  LIG1       -0.4526
     19 C           1.6105    0.3307   -2.4473 C.3     1  LIG1       -0.0223
     20 C           1.1472    1.7157   -2.0498 C.ar    1  LIG1       -0.0433
     21 C           1.9748    2.5419   -1.2680 C.ar    1  LIG1       -0.0130
     22 C           1.5406    3.8193   -0.9796 C.ar    1  LIG1        0.1665
     23 C           0.3442    4.3000   -1.4539 C.ar    1  LIG1        0.1662
     24 O           0.1126    5.5862   -1.0796 O.3     1  LIG1       -0.4526
     25 C           1.2769    5.8435   -0.2706 C.3     1  LIG1        0.2332
     26 O           2.2051    4.7386   -0.2289 O.3     1  LIG1       -0.4526
     27 C          -0.4946    3.5230   -2.2218 C.ar    1  LIG1       -0.0159
     28 C          -0.0888    2.2165   -2.5146 C.ar    1  LIG1       -0.0549
     29 H           2.0169   -2.8895   -4.2097 H       1  LIG1        0.2094
     30 H           2.3404   -2.3161   -2.1147 H       1  LIG1        0.0560
     31 H           0.7306   -3.0410   -2.2914 H       1  LIG1        0.0560
     32 H           1.9502   -2.2248    0.2421 H       1  LIG1        0.0560
     33 H           1.2502   -1.1898    1.4866 H       1  LIG1        0.0560
     34 H           2.6315    0.2761    1.0415 H       1  LIG1        0.2094
     35 H          -0.4197   -2.9568   -0.5727 H       1  LIG1        0.0317
     36 H          -1.6300   -1.7414   -0.9032 H       1  LIG1        0.0317
     37 H          -2.0152   -0.0800    1.3837 H       1  LIG1        0.0658
     38 H          -1.7864   -4.5958    3.5151 H       1  LIG1        0.0655
     39 H          -0.8157   -4.2504    1.2617 H       1  LIG1        0.0621
     40 H          -3.1223   -0.7755    5.8908 H       1  LIG1        0.1166
     41 H          -4.6109   -1.2568    5.0426 H       1  LIG1        0.1166
     42 H           1.6851    0.3425   -3.5445 H       1  LIG1        0.0317
     43 H           2.6407    0.1650   -2.1112 H       1  LIG1        0.0317
     44 H           2.9366    2.1948   -0.9033 H       1  LIG1        0.0658
     45 H           0.9458    6.0634    0.7505 H       1  LIG1        0.1166
     46 H           1.7948    6.7209   -0.6677 H       1  LIG1        0.1166
     47 H          -1.4340    3.9154   -2.5922 H       1  LIG1        0.0655
     48 H          -0.7340    1.5887   -3.1260 H       1  LIG1        0.0621
@<TRIPOS>BOND
     1     1     2    1
     2     2     3    1
     3     3     4    1
     4     5     7    1
     5     7     8    1
     6     5     9    1
     7     9    10    1
     8    10    11   ar
     9    11    12   ar
    10    12    13   ar
    11    13    14   ar
    12    14    15   ar
    13    10    15   ar
    14    13    16    1
    15    16    17    1
    16    17    18    1
    17    12    18    1
    18     3    19    1
    19    19    20    1
    20    20    21   ar
    21    21    22   ar
    22    22    23   ar
    23    23    24    1
    24    24    25    1
    25    25    26    1
    26    22    26    1
    27    23    27   ar
    28    27    28   ar
    29    20    28   ar
    30     5     6    1
    31     5     3    1
    32     1    29    1
    33     2    30    1
    34     2    31    1
    35     7    32    1
    36     7    33    1
    37     8    34    1
    38     9    35    1
    39     9    36    1
    40    11    37    1
    41    14    38    1
    42    15    39    1
    43    17    40    1
    44    17    41    1
    45    19    42    1
    46    19    43    1
    47    21    44    1
    48    25    45    1
    49    25    46    1
    50    27    47    1
    51    28    48    1
