REMARK  Name = NuBBE_2179
REMARK  13 active torsions:
REMARK  status: ('A' for Active; 'I' for Inactive)
REMARK    1  A    between atoms: C_1  and  C_3
REMARK    2  A    between atoms: C_1  and  C_13
REMARK    3  A    between atoms: C_1  and  C_14
REMARK    4  A    between atoms: C_3  and  C_4
REMARK    5  A    between atoms: C_6  and  O_7
REMARK    6  A    between atoms: O_7  and  C_8
REMARK    7  A    between atoms: C_9  and  O_12
REMARK    8  A    between atoms: C_14  and  O_15
REMARK    9  A    between atoms: O_15  and  C_16
REMARK   10  A    between atoms: C_17  and  O_26
REMARK   11  A    between atoms: C_21  and  C_23
REMARK   12  A    between atoms: C_23  and  C_24
REMARK   13  A    between atoms: O_26  and  C_27
REMARK                            x       y       z     vdW  Elec       q    Type
REMARK                         _______ _______ _______ _____ _____    ______ ____
ROOT
ATOM      1  C   LIG A   1      -1.713   0.923   0.642  0.00  0.00    +0.147 C 
ATOM      2  C   LIG A   1      -1.054   2.173   1.236  0.00  0.00    +0.137 C 
ATOM      3  C   LIG A   1      -0.479   2.167   2.460  0.00  0.00    +0.095 C 
ATOM      4  C   LIG A   1      -0.456   0.961   3.308  0.00  0.00    +0.185 C 
ATOM      5  O   LIG A   1       0.101   1.004   4.388  0.00  0.00    -0.287 OA
ATOM      6  C   LIG A   1      -1.177  -0.254   2.804  0.00  0.00    +0.002 C 
ATOM      7  C   LIG A   1      -1.769  -0.230   1.615  0.00  0.00    +0.023 C 
ENDROOT
BRANCH   1   8
ATOM      8  C   LIG A   1      -0.938   0.500  -0.677  0.00  0.00    +0.034 C 
ATOM      9  C   LIG A   1      -1.655  -0.667  -1.393  0.00  0.00    +0.011 C 
BRANCH   8  10
ATOM     10  C   LIG A   1       0.570   0.191  -0.422  0.00  0.00    +0.042 C 
BRANCH  10  11
ATOM     11  C   LIG A   1       1.414   0.024  -1.674  0.00  0.00    -0.043 A 
ATOM     12  C   LIG A   1       1.567  -1.258  -2.230  0.00  0.00    +0.053 A 
ATOM     13  C   LIG A   1       2.238  -1.451  -3.437  0.00  0.00    +0.162 A 
ATOM     14  C   LIG A   1       2.783  -0.338  -4.083  0.00  0.00    +0.159 A 
ATOM     15  C   LIG A   1       2.719   0.930  -3.512  0.00  0.00    +0.049 A 
ATOM     16  C   LIG A   1       2.025   1.114  -2.311  0.00  0.00    +0.007 A 
BRANCH  13  17
ATOM     17  O   LIG A   1       2.331  -2.649  -4.097  0.00  0.00    -0.491 OA
ATOM     18  C   LIG A   1       2.350  -3.816  -3.276  0.00  0.00    +0.277 C 
ENDBRANCH  13  17
BRANCH  14  19
ATOM     19  O   LIG A   1       3.371  -0.463  -5.313  0.00  0.00    -0.503 OA
ATOM     20  H   LIG A   1       3.136  -1.360  -5.622  0.00  0.00    +0.292 HD
ENDBRANCH  14  19
ENDBRANCH  10  11
ENDBRANCH   8  10
ENDBRANCH   1   8
BRANCH   1  21
ATOM     21  O   LIG A   1      -3.069   1.241   0.249  0.00  0.00    -0.364 OA
ATOM     22  C   LIG A   1      -3.948   1.666   1.287  0.00  0.00    +0.195 C 
ENDBRANCH   1  21
BRANCH   2  23
ATOM     23  O   LIG A   1      -1.174   3.287   0.427  0.00  0.00    -0.496 OA
ATOM     24  C   LIG A   1      -0.165   4.283   0.509  0.00  0.00    +0.277 C 
ENDBRANCH   2  23
BRANCH   6  25
ATOM     25  C   LIG A   1      -1.235  -1.449   3.739  0.00  0.00    +0.065 C 
BRANCH  25  26
ATOM     26  C   LIG A   1      -0.079  -2.382   3.502  0.00  0.00    -0.030 C 
ATOM     27  C   LIG A   1       1.079  -2.317   4.170  0.00  0.00    +0.004 C 
ENDBRANCH  25  26
ENDBRANCH   6  25
TORSDOF 9
