@<TRIPOS>MOLECULE
NuBBE_1094
 32 34 0 0 0
SMALL
GASTEIGER

@<TRIPOS>ATOM
      1 O          -3.2049   -0.6861    0.4411 O.2     1  LIG1       -0.2864
      2 C          -1.9859   -0.6963    0.2776 C.ar    1  LIG1        0.2006
      3 C          -1.2533    0.5798    0.1388 C.ar    1  LIG1        0.0873
      4 C          -1.9558    1.7923    0.0860 C.ar    1  LIG1        0.1331
      5 O          -3.3197    1.8741    0.1864 O.3     1  LIG1       -0.5059
      6 C          -1.2751    2.9905   -0.0816 C.ar    1  LIG1        0.0224
      7 C           0.1119    2.9922   -0.2069 C.ar    1  LIG1        0.1256
      8 O           0.6631    4.2316   -0.3873 O.3     1  LIG1       -0.4949
      9 C           2.0787    4.3102   -0.4882 C.3     1  LIG1        0.0788
     10 C           0.8129    1.7798   -0.1489 C.ar    1  LIG1        0.0045
     11 C           0.1518    0.5487    0.0473 C.ar    1  LIG1        0.0600
     12 N           0.8316   -0.6908    0.1305 N.ar    1  LIG1       -0.3426
     13 C           2.2863   -0.6879    0.3095 C.3     1  LIG1        0.0124
     14 C           0.1599   -1.9332    0.0898 C.ar    1  LIG1        0.0529
     15 C          -1.2432   -1.9682    0.1788 C.ar    1  LIG1        0.0459
     16 C          -1.9593   -3.1747    0.1643 C.ar    1  LIG1       -0.0489
     17 C          -1.2805   -4.3814    0.0391 C.ar    1  LIG1       -0.0610
     18 C           0.1048   -4.3771   -0.0800 C.ar    1  LIG1       -0.0598
     19 C           0.8139   -3.1684   -0.0595 C.ar    1  LIG1       -0.0375
     20 H          -3.6634    0.9608    0.3190 H       1  LIG1        0.2922
     21 H          -1.8290    3.9247   -0.1249 H       1  LIG1        0.0691
     22 H           2.3479    5.3646   -0.6028 H       1  LIG1        0.0660
     23 H           2.4404    3.7762   -1.3730 H       1  LIG1        0.0660
     24 H           2.5612    3.9403    0.4225 H       1  LIG1        0.0660
     25 H           1.8873    1.7911   -0.2816 H       1  LIG1        0.0675
     26 H           2.6327    0.1773    0.8861 H       1  LIG1        0.0456
     27 H           2.7906   -0.6918   -0.6626 H       1  LIG1        0.0456
     28 H           2.6385   -1.5448    0.8945 H       1  LIG1        0.0456
     29 H          -3.0443   -3.1705    0.2427 H       1  LIG1        0.0625
     30 H          -1.8308   -5.3186    0.0231 H       1  LIG1        0.0618
     31 H           0.6409   -5.3165   -0.1952 H       1  LIG1        0.0618
     32 H           1.8908   -3.2278   -0.1845 H       1  LIG1        0.0638
@<TRIPOS>BOND
     1     1     2    2
     2     2     3   ar
     3     3     4   ar
     4     4     5    1
     5     4     6   ar
     6     6     7   ar
     7     7     8    1
     8     8     9    1
     9     7    10   ar
    10    10    11   ar
    11     3    11   ar
    12    11    12   ar
    13    12    13    1
    14    12    14   ar
    15    14    15   ar
    16     2    15   ar
    17    15    16   ar
    18    16    17   ar
    19    17    18   ar
    20    18    19   ar
    21    14    19   ar
    22     5    20    1
    23     6    21    1
    24     9    22    1
    25     9    23    1
    26     9    24    1
    27    10    25    1
    28    13    26    1
    29    13    27    1
    30    13    28    1
    31    16    29    1
    32    17    30    1
    33    18    31    1
    34    19    32    1
