@<TRIPOS>MOLECULE
NuBBE_93
 147 157 0 0 0
SMALL
GASTEIGER

@<TRIPOS>ATOM
      1 O          -0.4601    3.0094    2.0025 O.2     1  LIG1       -0.2873
      2 C           0.3204    3.2108    1.0821 C.2     1  LIG1        0.1867
      3 C           0.1971    4.4656    0.2764 C.2     1  LIG1       -0.0137
      4 C           1.2189    4.9481   -0.4688 C.2     1  LIG1       -0.0493
      5 C           1.1547    6.3553   -1.1326 C.3     1  LIG1       -0.0042
      6 C           1.5265    7.3263    0.0384 C.3     1  LIG1       -0.0553
      7 C          -0.2742    6.7813   -1.6165 C.3     1  LIG1       -0.0429
      8 C          -0.3459    8.1903   -2.2494 C.3     1  LIG1       -0.0465
      9 C           0.7179    8.5075   -3.3362 C.3     1  LIG1       -0.0286
     10 C           0.2103    7.9722   -4.7028 C.3     1  LIG1       -0.0593
     11 C           0.8323   10.0504   -3.4940 C.3     1  LIG1       -0.0464
     12 C           1.8962   10.4576   -4.5206 C.3     1  LIG1       -0.0370
     13 C           3.2993    9.8898   -4.2185 C.3     1  LIG1        0.0653
     14 C           3.8833   10.7312   -3.0540 C.2     1  LIG1        0.3128
     15 O           4.5394   11.8190   -3.5560 O.3     1  LIG1       -0.4675
     16 C           4.4676   13.0000   -2.7624 C.3     1  LIG1        0.0817
     17 O           3.6595   10.5555   -1.8714 O.2     1  LIG1       -0.2502
     18 C           4.1925   10.0639   -5.4636 C.3     1  LIG1       -0.0494
     19 C           3.2537    8.3793   -3.8642 C.3     1  LIG1       -0.0336
     20 C           2.1247    7.9774   -2.8815 C.3     1  LIG1       -0.0284
     21 H           2.3768    8.5519   -1.9860 H       1  LIG1        0.0312
     22 C           2.1260    6.4693   -2.3896 C.3     1  LIG1       -0.0196
     23 C           1.7003    5.5138   -3.5440 C.3     1  LIG1       -0.0585
     24 C           3.5470    6.0076   -1.9635 C.3     1  LIG1       -0.0455
     25 C           3.5698    4.5319   -1.5505 C.3     1  LIG1       -0.0393
     26 C           2.5458    4.1556   -0.4469 C.3     1  LIG1        0.0156
     27 C           3.2908    4.4630    0.8978 C.3     1  LIG1       -0.0517
     28 C           2.1921    2.6475   -0.4120 C.ar    1  LIG1       -0.0227
     29 C           2.6030    1.6792   -1.3314 C.ar    1  LIG1       -0.0114
     30 C           2.3154    0.3361   -1.0907 C.ar    1  LIG1        0.1669
     31 O           2.4251   -0.5376   -2.1403 O.3     1  LIG1       -0.4464
     32 C           1.8764   -0.0783    0.1639 C.ar    1  LIG1        0.1672
     33 O           1.9170   -1.4012    0.5380 O.3     1  LIG1       -0.4703
     34 C           2.2134   -2.3415   -0.5464 C.3     1  LIG1        0.2054
     35 C           1.3896   -3.5943   -0.2777 C.2     1  LIG1        0.0064
     36 C           1.7746   -4.8827   -0.3082 C.2     1  LIG1       -0.0543
     37 C           0.8508   -5.9483    0.0382 C.2     1  LIG1       -0.0607
     38 C          -0.2470   -5.7139    0.7993 C.2     1  LIG1       -0.0529
     39 C          -1.0556   -6.8681    1.4548 C.3     1  LIG1       -0.0043
     40 C          -0.9957   -8.2238    0.6769 C.3     1  LIG1       -0.0429
     41 C          -1.7148   -9.3909    1.3785 C.3     1  LIG1       -0.0465
     42 C          -3.1289   -9.0981    1.9501 C.3     1  LIG1       -0.0286
     43 C          -4.1709   -9.4527    0.8535 C.3     1  LIG1       -0.0593
     44 C          -3.2405   -7.6479    2.5497 C.3     1  LIG1       -0.0284
     45 H          -2.6303   -7.6485    3.4620 H       1  LIG1        0.0312
     46 C          -4.6552   -7.3755    3.1141 C.3     1  LIG1       -0.0336
     47 C          -5.1482   -8.4481    4.1257 C.3     1  LIG1        0.0653
     48 C          -4.5836   -8.1598    5.5365 C.2     1  LIG1        0.3128
     49 O          -5.4297   -7.3659    6.2519 O.3     1  LIG1       -0.4675
     50 C          -5.8566   -7.9438    7.4868 C.3     1  LIG1        0.0817
     51 O          -3.5429   -8.6150    5.9881 O.2     1  LIG1       -0.2502
     52 C          -6.6939   -8.3867    4.2000 C.3     1  LIG1       -0.0494
     53 C          -4.7756   -9.9031    3.7464 C.3     1  LIG1       -0.0370
     54 C          -3.3851  -10.0733    3.1326 C.3     1  LIG1       -0.0464
     55 C          -0.2991   -7.1101    2.8047 C.3     1  LIG1       -0.0553
     56 C          -2.5963   -6.5109    1.6467 C.3     1  LIG1       -0.0196
     57 C          -3.3484   -6.3876    0.2903 C.3     1  LIG1       -0.0585
     58 C          -2.7181   -5.1062    2.3075 C.3     1  LIG1       -0.0455
     59 C          -2.0607   -3.9921    1.4701 C.3     1  LIG1       -0.0393
     60 C          -0.5627   -4.2296    1.1724 C.3     1  LIG1        0.0152
     61 C           0.2113   -3.8251    2.4651 C.3     1  LIG1       -0.0518
     62 C          -0.0155   -3.3199    0.0251 C.2     1  LIG1       -0.0268
     63 C          -0.6278   -2.3821   -0.7229 C.2     1  LIG1       -0.0080
     64 C           3.7289   -2.6075   -0.5271 C.3     1  LIG1       -0.0138
     65 C           1.7073   -1.7533   -1.8816 C.3     1  LIG1        0.3183
     66 O           2.0131   -2.6248   -2.9821 O.3     1  LIG1       -0.3462
     67 C           0.1272   -1.6389   -1.8038 C.2     1  LIG1        0.2317
     68 O          -0.5174   -0.9832   -2.6268 O.2     1  LIG1       -0.2855
     69 C           1.3108    0.8623    1.0289 C.ar    1  LIG1        0.0060
     70 C           0.5975    0.4137    2.2724 C.3     1  LIG1       -0.0354
     71 C           1.3352    2.2134    0.6215 C.ar    1  LIG1        0.0323
     72 H          -0.7353    4.9949    0.4291 H       1  LIG1        0.0656
     73 H           0.8840    7.1515    0.9115 H       1  LIG1        0.0238
     74 H           1.3990    8.3830   -0.2063 H       1  LIG1        0.0238
     75 H           2.5577    7.2108    0.3757 H       1  LIG1        0.0238
     76 H          -0.9783    6.7840   -0.7752 H       1  LIG1        0.0274
     77 H          -0.6736    6.0434   -2.3216 H       1  LIG1        0.0274
     78 H          -0.2716    8.9290   -1.4421 H       1  LIG1        0.0271
     79 H          -1.3532    8.3340   -2.6634 H       1  LIG1        0.0271
     80 H          -0.4001    8.7203   -5.2239 H       1  LIG1        0.0235
     81 H          -0.4541    7.1105   -4.6003 H       1  LIG1        0.0235
     82 H           1.0258    7.7040   -5.3798 H       1  LIG1        0.0235
     83 H           1.0603   10.5144   -2.5265 H       1  LIG1        0.0271
     84 H          -0.1345   10.4712   -3.8014 H       1  LIG1        0.0271
     85 H           1.9291   11.5543   -4.5657 H       1  LIG1        0.0276
     86 H           1.5792   10.1295   -5.5180 H       1  LIG1        0.0276
     87 H           4.2969   13.8277   -3.4572 H       1  LIG1        0.0661
     88 H           5.4115   13.1656   -2.2395 H       1  LIG1        0.0661
     89 H           3.6296   12.9789   -2.0597 H       1  LIG1        0.0661
     90 H           3.8263    9.4683   -6.3050 H       1  LIG1        0.0240
     91 H           5.2246    9.7621   -5.2499 H       1  LIG1        0.0240
     92 H           4.2188   11.1073   -5.8026 H       1  LIG1        0.0240
     93 H           4.2268    8.1207   -3.4316 H       1  LIG1        0.0279
     94 H           3.1579    7.7893   -4.7823 H       1  LIG1        0.0279
     95 H           0.7077    5.7013   -3.9322 H       1  LIG1        0.0235
     96 H           1.6459    4.4670   -3.2356 H       1  LIG1        0.0235
     97 H           2.4030    5.5760   -4.3822 H       1  LIG1        0.0235
     98 H           3.9487    6.6375   -1.1634 H       1  LIG1        0.0271
     99 H           4.2495    6.1058   -2.7992 H       1  LIG1        0.0271
    100 H           4.5887    4.2776   -1.2253 H       1  LIG1        0.0277
    101 H           3.4376    3.9365   -2.4563 H       1  LIG1        0.0277
    102 H           3.7237    5.4676    0.9073 H       1  LIG1        0.0241
    103 H           4.1182    3.7589    1.0552 H       1  LIG1        0.0241
    104 H           2.6447    4.3930    1.7800 H       1  LIG1        0.0241
    105 H           3.0932    1.9348   -2.2642 H       1  LIG1        0.0658
    106 H           2.7878   -5.1787   -0.5615 H       1  LIG1        0.0622
    107 H           1.1824   -6.9467   -0.2243 H       1  LIG1        0.0618
    108 H           0.0436   -8.5468    0.5414 H       1  LIG1        0.0274
    109 H          -1.3918   -8.1036   -0.3382 H       1  LIG1        0.0274
    110 H          -1.0617   -9.7542    2.1814 H       1  LIG1        0.0271
    111 H          -1.7645  -10.2340    0.6753 H       1  LIG1        0.0271
    112 H          -3.8604   -9.1567   -0.1492 H       1  LIG1        0.0235
    113 H          -5.1580   -9.0240    1.0422 H       1  LIG1        0.0235
    114 H          -4.3078  -10.5402    0.7901 H       1  LIG1        0.0235
    115 H          -5.3678   -7.2812    2.2882 H       1  LIG1        0.0279
    116 H          -4.6630   -6.4067    3.6272 H       1  LIG1        0.0279
    117 H          -5.3050   -8.8493    7.7587 H       1  LIG1        0.0661
    118 H          -6.9148   -8.2045    7.3748 H       1  LIG1        0.0661
    119 H          -5.7694   -7.2018    8.2831 H       1  LIG1        0.0661
    120 H          -7.1519   -8.6596    3.2445 H       1  LIG1        0.0240
    121 H          -7.0476   -7.3802    4.4533 H       1  LIG1        0.0240
    122 H          -7.0773   -9.0747    4.9639 H       1  LIG1        0.0240
    123 H          -5.5127  -10.3009    3.0379 H       1  LIG1        0.0276
    124 H          -4.8448  -10.5555    4.6278 H       1  LIG1        0.0276
    125 H          -3.2722  -11.1133    2.7981 H       1  LIG1        0.0271
    126 H          -2.6226   -9.9295    3.9085 H       1  LIG1        0.0271
    127 H           0.7836   -7.1906    2.6422 H       1  LIG1        0.0238
    128 H          -0.5841   -8.0349    3.3110 H       1  LIG1        0.0238
    129 H          -0.4617   -6.3130    3.5303 H       1  LIG1        0.0238
    130 H          -3.3707   -7.3022   -0.2888 H       1  LIG1        0.0235
    131 H          -2.8826   -5.6642   -0.3843 H       1  LIG1        0.0235
    132 H          -4.3875   -6.0755    0.4446 H       1  LIG1        0.0235
    133 H          -2.3047   -5.1170    3.3211 H       1  LIG1        0.0271
    134 H          -3.7741   -4.8331    2.4236 H       1  LIG1        0.0271
    135 H          -2.1861   -3.0421    2.0087 H       1  LIG1        0.0277
    136 H          -2.6291   -3.8557    0.5446 H       1  LIG1        0.0277
    137 H          -0.2371   -4.2368    3.3721 H       1  LIG1        0.0241
    138 H           0.2081   -2.7369    2.5949 H       1  LIG1        0.0241
    139 H           1.2577   -4.1508    2.4540 H       1  LIG1        0.0241
    140 H          -1.6712   -2.1156   -0.6175 H       1  LIG1        0.0658
    141 H           4.0317   -3.0476    0.4308 H       1  LIG1        0.0274
    142 H           4.3051   -1.6811   -0.6228 H       1  LIG1        0.0274
    143 H           4.0415   -3.2808   -1.3319 H       1  LIG1        0.0274
    144 H           1.5264   -2.2389   -3.7338 H       1  LIG1        0.2144
    145 H           1.0172   -0.5194    2.6598 H       1  LIG1        0.0279
    146 H          -0.4659    0.2586    2.0657 H       1  LIG1        0.0279
    147 H           0.7163    1.1434    3.0792 H       1  LIG1        0.0279
@<TRIPOS>BOND
     1     2     3    1
     2     3     4    2
     3     4     5    1
     4     5     7    1
     5     7     8    1
     6     8     9    1
     7     9    11    1
     8    11    12    1
     9    12    13    1
    10    14    15    1
    11    15    16    1
    12    14    17    2
    13    13    19    1
    14    19    20    1
    15     9    20    1
    16    20    22    1
    17     5    22    1
    18    22    24    1
    19    24    25    1
    20    25    26    1
    21     4    26    1
    22    26    28    1
    23    28    29   ar
    24    29    30   ar
    25    30    31    1
    26    30    32   ar
    27    32    33    1
    28    33    34    1
    29    34    35    1
    30    35    36    2
    31    36    37    1
    32    37    38    2
    33    38    39    1
    34    39    40    1
    35    40    41    1
    36    41    42    1
    37    42    44    1
    38    44    46    1
    39    46    47    1
    40    48    49    1
    41    49    50    1
    42    48    51    2
    43    47    53    1
    44    53    54    1
    45    42    54    1
    46    39    56    1
    47    44    56    1
    48    56    58    1
    49    58    59    1
    50    38    60    1
    51    59    60    1
    52    60    62    1
    53    35    62    1
    54    62    63    2
    55    34    65    1
    56    31    65    1
    57    65    67    1
    58    63    67    1
    59    32    69   ar
    60    69    71   ar
    61     2    71    1
    62    28    71   ar
    63     1     2    2
    64     5     6    1
    65     9    10    1
    66    20    21    1
    67    22    23    1
    68    26    27    1
    69    34    64    1
    70    39    55    1
    71    42    43    1
    72    44    45    1
    73    56    57    1
    74    60    61    1
    75    65    66    1
    76    67    68    2
    77    69    70    1
    78    13    18    1
    79    13    14    1
    80    47    52    1
    81    47    48    1
    82     3    72    1
    83     6    73    1
    84     6    74    1
    85     6    75    1
    86     7    76    1
    87     7    77    1
    88     8    78    1
    89     8    79    1
    90    10    80    1
    91    10    81    1
    92    10    82    1
    93    11    83    1
    94    11    84    1
    95    12    85    1
    96    12    86    1
    97    16    87    1
    98    16    88    1
    99    16    89    1
   100    18    90    1
   101    18    91    1
   102    18    92    1
   103    19    93    1
   104    19    94    1
   105    23    95    1
   106    23    96    1
   107    23    97    1
   108    24    98    1
   109    24    99    1
   110    25   100    1
   111    25   101    1
   112    27   102    1
   113    27   103    1
   114    27   104    1
   115    29   105    1
   116    36   106    1
   117    37   107    1
   118    40   108    1
   119    40   109    1
   120    41   110    1
   121    41   111    1
   122    43   112    1
   123    43   113    1
   124    43   114    1
   125    46   115    1
   126    46   116    1
   127    50   117    1
   128    50   118    1
   129    50   119    1
   130    52   120    1
   131    52   121    1
   132    52   122    1
   133    53   123    1
   134    53   124    1
   135    54   125    1
   136    54   126    1
   137    55   127    1
   138    55   128    1
   139    55   129    1
   140    57   130    1
   141    57   131    1
   142    57   132    1
   143    58   133    1
   144    58   134    1
   145    59   135    1
   146    59   136    1
   147    61   137    1
   148    61   138    1
   149    61   139    1
   150    63   140    1
   151    64   141    1
   152    64   142    1
   153    64   143    1
   154    66   144    1
   155    70   145    1
   156    70   146    1
   157    70   147    1
