@<TRIPOS>MOLECULE
NuBBE_1820
 80 82 0 0 0
SMALL
GASTEIGER

@<TRIPOS>ATOM
      1 O          -0.2006    0.6142    6.2459 O.2     1  LIG1       -0.2922
      2 C           0.7232    0.8998    5.5086 C.2     1  LIG1        0.1639
      3 C           1.1002   -0.0277    4.4027 C.ar    1  LIG1        0.0631
      4 C           2.3294   -0.6865    4.4780 C.ar    1  LIG1       -0.0359
      5 C           2.6258   -1.6566    3.5139 C.ar    1  LIG1       -0.0500
      6 C           1.7496   -1.9640    2.4621 C.ar    1  LIG1       -0.0071
      7 C           2.1043   -2.9971    1.5848 C.ar    1  LIG1       -0.0112
      8 C           1.2754   -3.3384    0.5263 C.ar    1  LIG1        0.1357
      9 C           0.1565   -2.5779    0.2388 C.ar    1  LIG1        0.0234
     10 C          -0.1427   -1.4792    1.0459 C.ar    1  LIG1        0.1388
     11 O          -1.0664   -0.5648    0.6275 O.3     1  LIG1       -0.4588
     12 C          -1.0236   -0.0796   -0.7501 C.3     1  LIG1        0.2432
     13 H          -1.9802   -0.3638   -1.1951 H       1  LIG1        0.1097
     14 C          -0.7949    1.4321   -0.6633 C.3     1  LIG1        0.2048
     15 H           0.2284    1.5719   -0.2863 H       1  LIG1        0.0837
     16 C          -0.8799    2.1293   -2.0301 C.3     1  LIG1        0.1848
     17 H          -1.8423    2.6490   -2.1166 H       1  LIG1        0.0813
     18 C          -0.6516    1.2638   -3.2840 C.3     1  LIG1        0.1726
     19 H           0.1493    1.7169   -3.8852 H       1  LIG1        0.0801
     20 C          -0.2856   -0.2242   -3.0248 C.3     1  LIG1        0.1371
     21 H          -1.0965   -0.8926   -3.3361 H       1  LIG1        0.0670
     22 O           0.0162   -0.5307   -1.6405 O.3     1  LIG1       -0.3282
     23 C           0.9715   -0.5550   -3.8572 C.3     1  LIG1        0.1223
     24 O           1.2971   -1.9569   -3.8503 O.3     1  LIG1       -0.4621
     25 C           1.1840   -2.5886   -5.0416 C.2     1  LIG1        0.3040
     26 C           1.9765   -3.8560   -5.0363 C.3     1  LIG1        0.0332
     27 O           0.5489   -2.1840   -5.9989 O.2     1  LIG1       -0.2512
     28 O          -1.8853    1.3602   -4.0584 O.3     1  LIG1       -0.4549
     29 C          -1.9351    2.4117   -4.9342 C.2     1  LIG1        0.3044
     30 C          -3.2147    3.1864   -4.7809 C.3     1  LIG1        0.0332
     31 O          -1.0230    2.7378   -5.6819 O.2     1  LIG1       -0.2512
     32 O           0.1831    3.1207   -2.0782 O.3     1  LIG1       -0.4537
     33 C          -0.0524    4.3467   -1.5356 C.2     1  LIG1        0.3044
     34 C           1.2311    5.1209   -1.5380 C.3     1  LIG1        0.0332
     35 O          -1.1303    4.7519   -1.1354 O.2     1  LIG1       -0.2512
     36 O          -1.6053    2.1489    0.2997 O.3     1  LIG1       -0.4513
     37 C          -2.9391    1.9279    0.3174 C.2     1  LIG1        0.3045
     38 C          -3.6448    2.9852    1.0826 C.3     1  LIG1        0.0332
     39 O          -3.5168    1.0046   -0.2689 O.2     1  LIG1       -0.2512
     40 O           1.7549   -4.3132   -0.3577 O.3     1  LIG1       -0.4259
     41 C           0.8464   -5.2000   -0.9165 C.2     1  LIG1        0.3092
     42 C           1.4391   -5.7469   -2.1754 C.3     1  LIG1        0.0336
     43 O          -0.2851   -5.4437   -0.5325 O.2     1  LIG1       -0.2507
     44 C           0.5471   -1.2398    2.2835 C.ar    1  LIG1        0.0672
     45 C           0.1943   -0.3456    3.3569 C.ar    1  LIG1        0.1535
     46 O          -1.1035    0.1966    3.4565 O.3     1  LIG1       -0.4246
     47 C          -1.9182   -0.6499    4.1577 C.2     1  LIG1        0.3092
     48 C          -2.8714    0.1173    5.0555 C.3     1  LIG1        0.0336
     49 O          -1.9375   -1.8983    4.1013 O.2     1  LIG1       -0.2507
     50 C           3.3141   -0.4480    5.5874 C.3     1  LIG1       -0.0389
     51 C           1.5702    2.1221    5.7777 C.3     1  LIG1       -0.0013
     52 H           3.5696   -2.1957    3.5897 H       1  LIG1        0.0626
     53 H           3.0322   -3.5467    1.7198 H       1  LIG1        0.0660
     54 H          -0.4433   -2.7921   -0.6403 H       1  LIG1        0.0691
     55 H           0.8724   -0.1818   -4.8862 H       1  LIG1        0.0725
     56 H           1.8447   -0.0558   -3.4225 H       1  LIG1        0.0725
     57 H           2.6625   -3.8700   -4.1767 H       1  LIG1        0.0342
     58 H           2.5883   -3.9066   -5.9393 H       1  LIG1        0.0342
     59 H           1.3104   -4.7218   -4.9936 H       1  LIG1        0.0342
     60 H          -3.8975    2.9841   -5.6071 H       1  LIG1        0.0342
     61 H          -2.9787    4.2563   -4.7408 H       1  LIG1        0.0342
     62 H          -3.6979    2.9348   -3.8320 H       1  LIG1        0.0342
     63 H           2.0741    4.4323   -1.4079 H       1  LIG1        0.0342
     64 H           1.2367    5.8092   -0.6930 H       1  LIG1        0.0342
     65 H           1.3395    5.6581   -2.4810 H       1  LIG1        0.0342
     66 H          -2.9714    3.8259    1.2752 H       1  LIG1        0.0342
     67 H          -4.0233    2.5935    2.0293 H       1  LIG1        0.0342
     68 H          -4.4644    3.3550    0.4599 H       1  LIG1        0.0342
     69 H           2.5184   -5.5709   -2.2110 H       1  LIG1        0.0342
     70 H           0.9583   -5.2151   -2.9936 H       1  LIG1        0.0342
     71 H           1.2544   -6.8177   -2.2604 H       1  LIG1        0.0342
     72 H          -3.5911    0.6833    4.4659 H       1  LIG1        0.0342
     73 H          -2.3223    0.8084    5.6943 H       1  LIG1        0.0342
     74 H          -3.3961   -0.5712    5.7274 H       1  LIG1        0.0342
     75 H           2.8162   -0.4991    6.5609 H       1  LIG1        0.0278
     76 H           3.7949    0.5269    5.4649 H       1  LIG1        0.0278
     77 H           4.1026   -1.2057    5.5915 H       1  LIG1        0.0278
     78 H           0.9257    2.9993    5.8825 H       1  LIG1        0.0309
     79 H           2.2925    2.3153    4.9827 H       1  LIG1        0.0309
     80 H           2.1030    1.9609    6.7210 H       1  LIG1        0.0309
@<TRIPOS>BOND
     1     1     2    2
     2     2     3    1
     3     3     4   ar
     4     4     5   ar
     5     5     6   ar
     6     6     7   ar
     7     7     8   ar
     8     8     9   ar
     9     9    10   ar
    10    10    11    1
    11    11    12    1
    12    12    13    1
    13    12    14    1
    14    14    16    1
    15    16    18    1
    16    18    19    1
    17    18    20    1
    18    20    22    1
    19    12    22    1
    20    23    24    1
    21    24    25    1
    22    25    26    1
    23    25    27    2
    24    18    28    1
    25    28    29    1
    26    29    30    1
    27    29    31    2
    28    32    33    1
    29    33    34    1
    30    33    35    2
    31    36    37    1
    32    37    38    1
    33    37    39    2
    34     8    40    1
    35    40    41    1
    36    41    42    1
    37    41    43    2
    38     6    44   ar
    39    10    44   ar
    40    44    45   ar
    41     3    45   ar
    42    45    46    1
    43    46    47    1
    44    47    48    1
    45    47    49    2
    46     4    50    1
    47     2    51    1
    48    14    36    1
    49    14    15    1
    50    16    32    1
    51    16    17    1
    52    20    23    1
    53    20    21    1
    54     5    52    1
    55     7    53    1
    56     9    54    1
    57    23    55    1
    58    23    56    1
    59    26    57    1
    60    26    58    1
    61    26    59    1
    62    30    60    1
    63    30    61    1
    64    30    62    1
    65    34    63    1
    66    34    64    1
    67    34    65    1
    68    38    66    1
    69    38    67    1
    70    38    68    1
    71    42    69    1
    72    42    70    1
    73    42    71    1
    74    48    72    1
    75    48    73    1
    76    48    74    1
    77    50    75    1
    78    50    76    1
    79    50    77    1
    80    51    78    1
    81    51    79    1
    82    51    80    1
