@<TRIPOS>MOLECULE
NuBBE_230
 83 85 0 0 0
SMALL
GASTEIGER

@<TRIPOS>ATOM
      1 C          -3.0107    2.8215    1.1973 C.3     1  LIG1       -0.0594
      2 C          -2.1683    1.7170    0.5427 C.3     1  LIG1       -0.0083
      3 H          -2.9694    1.1394    0.0791 H       1  LIG1        0.0330
      4 C          -1.5236    0.8218    1.6202 C.3     1  LIG1        0.0962
      5 H          -1.2804    1.4839    2.4600 H       1  LIG1        0.0633
      6 O          -2.5412   -0.0515    2.1297 O.3     1  LIG1       -0.3878
      7 C          -0.2543   -0.0128    1.2645 C.3     1  LIG1        0.1444
      8 H          -0.3430   -1.0002    1.7360 H       1  LIG1        0.0771
      9 O           0.8370    0.6964    1.9382 O.3     1  LIG1       -0.4578
     10 C           0.9722    0.4272    3.2720 C.2     1  LIG1        0.3043
     11 C           1.5379    1.6004    4.0166 C.3     1  LIG1        0.0332
     12 O           0.5941   -0.6020    3.8151 O.2     1  LIG1       -0.2512
     13 C           0.0710   -0.2801   -0.2508 C.3     1  LIG1        0.1026
     14 C          -0.3127   -1.7009   -0.7197 C.2     1  LIG1        0.0125
     15 C           0.7780   -2.3043   -1.5855 C.3     1  LIG1        0.2315
     16 H           1.2476   -3.1963   -1.1549 H       1  LIG1        0.1111
     17 O           0.2986   -2.5467   -2.9327 O.3     1  LIG1       -0.4309
     18 C          -0.4346   -3.6945   -3.0970 C.2     1  LIG1        0.3095
     19 C          -1.0191   -3.7905   -4.4615 C.3     1  LIG1        0.0448
     20 C          -1.6215   -5.2076   -4.7212 C.3     1  LIG1       -0.0458
     21 C          -2.8483   -5.5220   -3.8781 C.3     1  LIG1       -0.0648
     22 O          -0.5958   -4.5216   -2.2050 O.2     1  LIG1       -0.2508
     23 O           1.7629   -1.2498   -1.6533 O.3     1  LIG1       -0.2971
     24 C           1.6249   -0.5171   -0.4230 C.3     1  LIG1        0.2215
     25 H           2.1973    0.4160   -0.4752 H       1  LIG1        0.1068
     26 O           2.1279   -1.3884    0.6440 O.3     1  LIG1       -0.4339
     27 C           3.4589   -1.4364    0.9232 C.2     1  LIG1        0.3093
     28 C           3.7939   -2.7692    1.5994 C.3     1  LIG1        0.0448
     29 C           4.4327   -2.6705    2.9835 C.3     1  LIG1       -0.0458
     30 C           4.6804   -4.0496    3.6025 C.3     1  LIG1       -0.0648
     31 O           4.2741   -0.5928    0.6105 O.2     1  LIG1       -0.2508
     32 C          -1.5796   -2.1412   -0.7457 C.2     1  LIG1       -0.0499
     33 C          -2.6318   -1.1391   -1.0141 C.3     1  LIG1        0.0741
     34 H          -3.1044   -0.8306   -0.0871 H       1  LIG1        0.0638
     35 O          -3.6385   -1.7647   -1.8059 O.3     1  LIG1       -0.3877
     36 C          -1.9979   -0.0122   -1.8624 C.3     1  LIG1       -0.0188
     37 C          -0.7090    0.7143   -1.2330 C.3     1  LIG1       -0.0136
     38 H          -0.0432    0.9486   -2.0777 H       1  LIG1        0.0319
     39 C          -1.1892    2.1193   -0.6046 C.3     1  LIG1       -0.0196
     40 C          -1.9547    2.9266   -1.7133 C.3     1  LIG1       -0.0587
     41 C           0.0049    3.0430   -0.1481 C.3     1  LIG1       -0.0282
     42 C          -0.3995    4.4066    0.3936 C.2     1  LIG1       -0.0806
     43 C           0.3563    5.4122    0.8691 C.2     1  LIG1       -0.0549
     44 C           1.7986    5.3978    0.8714 C.2     1  LIG1       -0.0662
     45 C           2.5306    5.3304   -0.2468 C.2     1  LIG1       -0.0985
     46 C          -0.2984    6.6344    1.4738 C.3     1  LIG1       -0.0400
     47 H          -2.4133    3.5405    1.7553 H       1  LIG1        0.0233
     48 H          -3.7045    2.3906    1.9264 H       1  LIG1        0.0233
     49 H          -3.6168    3.3455    0.4502 H       1  LIG1        0.0233
     50 H          -2.1701   -0.5159    2.9034 H       1  LIG1        0.2099
     51 H           1.1478    2.5355    3.6028 H       1  LIG1        0.0342
     52 H           2.6274    1.5923    3.9934 H       1  LIG1        0.0342
     53 H           1.1936    1.5509    5.0566 H       1  LIG1        0.0342
     54 H          -0.2083   -3.6429   -5.1975 H       1  LIG1        0.0377
     55 H          -1.7845   -3.0293   -4.6321 H       1  LIG1        0.0377
     56 H          -0.8531   -5.9585   -4.5400 H       1  LIG1        0.0268
     57 H          -1.9032   -5.2699   -5.7794 H       1  LIG1        0.0268
     58 H          -2.6005   -5.6817   -2.8240 H       1  LIG1        0.0230
     59 H          -3.3077   -6.4529   -4.2303 H       1  LIG1        0.0230
     60 H          -3.6014   -4.7285   -3.9320 H       1  LIG1        0.0230
     61 H           4.4651   -3.3094    0.9207 H       1  LIG1        0.0377
     62 H           2.8786   -3.3744    1.6651 H       1  LIG1        0.0377
     63 H           3.7969   -2.0881    3.6594 H       1  LIG1        0.0268
     64 H           5.3912   -2.1448    2.9129 H       1  LIG1        0.0268
     65 H           5.2520   -3.9556    4.5330 H       1  LIG1        0.0230
     66 H           5.2499   -4.6986    2.9283 H       1  LIG1        0.0230
     67 H           3.7387   -4.5548    3.8437 H       1  LIG1        0.0230
     68 H          -1.8427   -3.1495   -1.0329 H       1  LIG1        0.0599
     69 H          -4.0067   -2.4870   -1.2659 H       1  LIG1        0.2102
     70 H          -2.8041    0.6711   -2.1305 H       1  LIG1        0.0296
     71 H          -1.7050   -0.4205   -2.8423 H       1  LIG1        0.0296
     72 H          -2.9864    2.5889   -1.8465 H       1  LIG1        0.0235
     73 H          -1.4411    2.8588   -2.6791 H       1  LIG1        0.0235
     74 H          -2.0520    3.9911   -1.4882 H       1  LIG1        0.0235
     75 H           0.5956    2.5498    0.6207 H       1  LIG1        0.0313
     76 H           0.6696    3.1911   -1.0079 H       1  LIG1        0.0313
     77 H          -1.4613    4.6240    0.3996 H       1  LIG1        0.0575
     78 H           2.2885    5.4906    1.8371 H       1  LIG1        0.0614
     79 H           2.0701    5.2836   -1.2296 H       1  LIG1        0.0535
     80 H           3.6136    5.3320   -0.2006 H       1  LIG1        0.0535
     81 H          -1.3114    6.4139    1.8356 H       1  LIG1        0.0277
     82 H          -0.3775    7.4371    0.7331 H       1  LIG1        0.0277
     83 H           0.2628    7.0109    2.3359 H       1  LIG1        0.0277
@<TRIPOS>BOND
     1     2     4    1
     2     4     7    1
     3     9    10    1
     4    10    11    1
     5    10    12    2
     6     7    13    1
     7    13    14    1
     8    14    15    1
     9    17    18    1
    10    18    19    1
    11    19    20    1
    12    20    21    1
    13    18    22    2
    14    15    23    1
    15    23    24    1
    16    13    24    1
    17    26    27    1
    18    27    28    1
    19    28    29    1
    20    29    30    1
    21    27    31    2
    22    14    32    2
    23    32    33    1
    24    33    36    1
    25    36    37    1
    26    13    37    1
    27    37    39    1
    28     2    39    1
    29    41    42    1
    30    42    43    2
    31    43    44    1
    32    44    45    2
    33    43    46    1
    34     7     8    1
    35     7     9    1
    36    15    16    1
    37    15    17    1
    38    24    25    1
    39    24    26    1
    40    37    38    1
    41    39    40    1
    42    39    41    1
    43     4     6    1
    44     4     5    1
    45     2     3    1
    46     2     1    1
    47    33    35    1
    48    33    34    1
    49     1    47    1
    50     1    48    1
    51     1    49    1
    52     6    50    1
    53    11    51    1
    54    11    52    1
    55    11    53    1
    56    19    54    1
    57    19    55    1
    58    20    56    1
    59    20    57    1
    60    21    58    1
    61    21    59    1
    62    21    60    1
    63    28    61    1
    64    28    62    1
    65    29    63    1
    66    29    64    1
    67    30    65    1
    68    30    66    1
    69    30    67    1
    70    32    68    1
    71    35    69    1
    72    36    70    1
    73    36    71    1
    74    40    72    1
    75    40    73    1
    76    40    74    1
    77    41    75    1
    78    41    76    1
    79    42    77    1
    80    44    78    1
    81    45    79    1
    82    45    80    1
    83    46    81    1
    84    46    82    1
    85    46    83    1
