REMARK  Name = NuBBE_1791
REMARK  12 active torsions:
REMARK  status: ('A' for Active; 'I' for Inactive)
REMARK    1  A    between atoms: C_3  and  C_4
REMARK    2  A    between atoms: C_4  and  C_5
REMARK    3  A    between atoms: C_5  and  O_6
REMARK    4  A    between atoms: C_9  and  C_10
REMARK    5  A    between atoms: C_10  and  C_11
REMARK    6  A    between atoms: C_11  and  C_12
REMARK    7  A    between atoms: C_12  and  C_13
REMARK    8  A    between atoms: C_13  and  C_14
REMARK    9  A    between atoms: C_14  and  C_15
REMARK   10  A    between atoms: C_15  and  C_16
REMARK   11  A    between atoms: C_16  and  C_17
REMARK   12  A    between atoms: C_17  and  C_18
REMARK                            x       y       z     vdW  Elec       q    Type
REMARK                         _______ _______ _______ _____ _____    ______ ____
ROOT
ATOM      1  O   LIG A   1       0.380   5.007   0.984  0.00  0.00    -0.251 OA
ATOM      2  C   LIG A   1       0.373   3.818   1.249  0.00  0.00    +0.311 C 
ATOM      3  C   LIG A   1       0.950   3.211   2.501  0.00  0.00    +0.112 C 
ATOM      4  C   LIG A   1       0.877   1.724   2.219  0.00  0.00    +0.060 C 
ATOM      5  C   LIG A   1      -0.194   1.615   1.156  0.00  0.00    +0.177 C 
ATOM      6  O   LIG A   1      -0.119   2.843   0.429  0.00  0.00    -0.461 OA
ENDROOT
BRANCH   3   7
ATOM      7  C   LIG A   1       0.255   3.685   3.777  0.00  0.00    +0.135 C 
BRANCH   7   8
ATOM      8  C   LIG A   1      -1.211   3.400   3.889  0.00  0.00    +0.305 C 
ATOM      9  O   LIG A   1      -1.998   3.058   2.977  0.00  0.00    -0.251 OA
BRANCH   8  10
ATOM     10  O   LIG A   1      -1.684   3.554   5.120  0.00  0.00    -0.481 OA
ATOM     11  H   LIG A   1      -2.642   3.354   5.042  0.00  0.00    +0.295 HD
ENDBRANCH   8  10
ENDBRANCH   7   8
ENDBRANCH   3   7
BRANCH   5  12
ATOM     12  C   LIG A   1      -0.031   0.428   0.223  0.00  0.00    +0.045 C 
BRANCH  12  13
ATOM     13  C   LIG A   1      -0.123  -0.909   0.974  0.00  0.00    +0.003 C 
BRANCH  13  14
ATOM     14  C   LIG A   1      -0.008  -2.149   0.086  0.00  0.00    +0.000 C 
BRANCH  14  15
ATOM     15  C   LIG A   1       1.300  -2.212  -0.697  0.00  0.00    -0.000 C 
BRANCH  15  16
ATOM     16  C   LIG A   1       1.430  -3.317  -1.749  0.00  0.00    +0.000 C 
BRANCH  16  17
ATOM     17  C   LIG A   1       0.453  -3.378  -2.926  0.00  0.00    +0.000 C 
BRANCH  17  18
ATOM     18  C   LIG A   1       0.381  -2.163  -3.864  0.00  0.00    +0.004 C 
BRANCH  18  19
ATOM     19  C   LIG A   1      -0.075  -0.805  -3.320  0.00  0.00    +0.026 C 
BRANCH  19  20
ATOM     20  C   LIG A   1      -1.473  -0.702  -2.762  0.00  0.00    -0.035 C 
ATOM     21  C   LIG A   1      -2.267  -1.661  -2.264  0.00  0.00    +0.004 C 
ENDBRANCH  19  20
ENDBRANCH  18  19
ENDBRANCH  17  18
ENDBRANCH  16  17
ENDBRANCH  15  16
ENDBRANCH  14  15
ENDBRANCH  13  14
ENDBRANCH  12  13
ENDBRANCH   5  12
TORSDOF 12
