REMARK  Name = NuBBE_1423
REMARK  9 active torsions:
REMARK  status: ('A' for Active; 'I' for Inactive)
REMARK    1  A    between atoms: O_1  and  C_2
REMARK    2  A    between atoms: O_1  and  C_3
REMARK    3  A    between atoms: C_5  and  C_15
REMARK    4  A    between atoms: C_8  and  O_9
REMARK    5  A    between atoms: O_9  and  C_10
REMARK    6  A    between atoms: C_10  and  C_11
REMARK    7  A    between atoms: C_12  and  C_13
REMARK    8  A    between atoms: C_12  and  C_14
REMARK    9  A    between atoms: C_23  and  C_27
REMARK                            x       y       z     vdW  Elec       q    Type
REMARK                         _______ _______ _______ _____ _____    ______ ____
ROOT
ATOM      1  C   LIG A   1      -0.087   1.815  -0.518  0.00  0.00    +0.154 C 
ATOM      2  C   LIG A   1       0.233   3.215   0.009  0.00  0.00    +0.056 C 
ATOM      3  C   LIG A   1       0.125   4.061  -1.233  0.00  0.00    +0.056 C 
ATOM      4  C   LIG A   1       0.661   3.130  -2.292  0.00  0.00    +0.167 C 
ATOM      5  O   LIG A   1       0.310   1.798  -1.904  0.00  0.00    -0.371 OA
ATOM      6  C   LIG A   1      -1.348   4.502  -1.248  0.00  0.00    +0.154 C 
ATOM      7  O   LIG A   1      -1.765   4.487   0.141  0.00  0.00    -0.371 OA
ATOM      8  C   LIG A   1      -0.806   3.782   0.939  0.00  0.00    +0.167 C 
ENDROOT
BRANCH   6   9
ATOM      9  C   LIG A   1      -2.380   3.783  -2.108  0.00  0.00    -0.015 A 
ATOM     10  C   LIG A   1      -2.290   3.824  -3.513  0.00  0.00    +0.055 A 
ATOM     11  C   LIG A   1      -3.277   3.213  -4.264  0.00  0.00    +0.167 A 
ATOM     12  C   LIG A   1      -4.357   2.598  -3.682  0.00  0.00    +0.166 A 
ATOM     13  C   LIG A   1      -4.507   2.554  -2.316  0.00  0.00    +0.050 A 
ATOM     14  C   LIG A   1      -3.511   3.150  -1.531  0.00  0.00    +0.010 A 
ATOM     15  O   LIG A   1      -5.221   2.084  -4.597  0.00  0.00    -0.453 OA
ATOM     16  C   LIG A   1      -4.542   2.416  -5.825  0.00  0.00    +0.466 C 
ATOM     17  O   LIG A   1      -3.320   3.157  -5.623  0.00  0.00    -0.453 OA
ENDBRANCH   6   9
BRANCH   1  20
ATOM     18  C   LIG A   1       2.416  -0.464   1.349  0.00  0.00    +0.162 A 
ATOM     19  C   LIG A   1       1.846   0.665   0.728  0.00  0.00    +0.055 A 
ATOM     20  C   LIG A   1       0.555   0.642   0.185  0.00  0.00    -0.015 A 
ATOM     21  C   LIG A   1      -0.150  -0.564   0.246  0.00  0.00    +0.010 A 
ATOM     22  C   LIG A   1       0.400  -1.692   0.860  0.00  0.00    +0.050 A 
ATOM     23  C   LIG A   1       1.684  -1.661   1.419  0.00  0.00    +0.162 A 
BRANCH  18  24
ATOM     24  O   LIG A   1       3.683  -0.212   1.810  0.00  0.00    -0.491 OA
ATOM     25  C   LIG A   1       4.304  -1.174   2.648  0.00  0.00    +0.277 C 
ENDBRANCH  18  24
BRANCH  23  26
ATOM     26  O   LIG A   1       2.279  -2.778   1.939  0.00  0.00    -0.484 OA
BRANCH  26  27
ATOM     27  C   LIG A   1       1.427  -3.760   2.526  0.00  0.00    +0.257 C 
BRANCH  27  28
ATOM     28  C   LIG A   1       2.293  -4.875   3.035  0.00  0.00    +0.012 C 
ATOM     29  C   LIG A   1       1.963  -6.187   3.119  0.00  0.00    -0.076 C 
ATOM     30  C   LIG A   1       0.633  -6.756   2.755  0.00  0.00    +0.038 C 
ATOM     31  C   LIG A   1       2.954  -7.201   3.631  0.00  0.00    +0.038 C 
ENDBRANCH  27  28
ENDBRANCH  26  27
ENDBRANCH  23  26
ENDBRANCH   1  20
TORSDOF 6
