REMARK  Name = NuBBE_2509
REMARK  5 active torsions:
REMARK  status: ('A' for Active; 'I' for Inactive)
REMARK    1  A    between atoms: C_4  and  O_5
REMARK    2  A    between atoms: C_7  and  O_8
REMARK    3  A    between atoms: C_13  and  C_14
REMARK    4  A    between atoms: C_17  and  O_18
REMARK    5  A    between atoms: O_18  and  C_19
REMARK                            x       y       z     vdW  Elec       q    Type
REMARK                         _______ _______ _______ _____ _____    ______ ____
ROOT
ATOM      1  O   LIG A   1      -1.118  -1.248   1.205  0.00  0.00    -0.291 OA
ATOM      2  C   LIG A   1       0.051  -1.069   0.874  0.00  0.00    +0.181 C 
ATOM      3  C   LIG A   1       0.877  -2.251   0.558  0.00  0.00    +0.101 A 
ATOM      4  C   LIG A   1       0.333  -3.542   0.547  0.00  0.00    +0.134 A 
ATOM      5  C   LIG A   1       1.137  -4.644   0.268  0.00  0.00    +0.091 A 
ATOM      6  C   LIG A   1       2.491  -4.448   0.016  0.00  0.00    +0.124 A 
ATOM      7  C   LIG A   1       3.047  -3.171   0.035  0.00  0.00    +0.092 A 
ATOM      8  C   LIG A   1       2.232  -2.068   0.285  0.00  0.00    +0.138 A 
ATOM      9  O   LIG A   1       2.834  -0.838   0.274  0.00  0.00    -0.490 OA
ATOM     10  C   LIG A   1       1.927   0.201  -0.118  0.00  0.00    +0.245 C 
ATOM     11  C   LIG A   1       0.729   0.291   0.822  0.00  0.00    +0.128 C 
ENDROOT
BRANCH  11  12
ATOM     12  C   LIG A   1      -0.187   1.436   0.419  0.00  0.00    -0.033 A 
ATOM     13  C   LIG A   1       0.002   2.706   0.984  0.00  0.00    +0.008 A 
ATOM     14  C   LIG A   1      -0.825   3.776   0.626  0.00  0.00    +0.046 A 
ATOM     15  C   LIG A   1      -1.852   3.606  -0.304  0.00  0.00    +0.120 A 
ATOM     16  C   LIG A   1      -2.036   2.354  -0.885  0.00  0.00    +0.046 A 
ATOM     17  C   LIG A   1      -1.205   1.283  -0.535  0.00  0.00    +0.008 A 
BRANCH  15  18
ATOM     18  O   LIG A   1      -2.595   4.727  -0.554  0.00  0.00    -0.495 OA
ATOM     19  C   LIG A   1      -3.652   4.600  -1.497  0.00  0.00    +0.277 C 
ENDBRANCH  15  18
ENDBRANCH  11  12
BRANCH   4  20
ATOM     20  O   LIG A   1      -0.987  -3.799   0.806  0.00  0.00    -0.506 OA
ATOM     21  H   LIG A   1      -1.422  -2.948   1.047  0.00  0.00    +0.292 HD
ENDBRANCH   4  20
BRANCH   6  22
ATOM     22  O   LIG A   1       3.317  -5.497  -0.263  0.00  0.00    -0.506 OA
ATOM     23  H   LIG A   1       2.796  -6.318  -0.257  0.00  0.00    +0.292 HD
ENDBRANCH   6  22
TORSDOF 4
