@<TRIPOS>MOLECULE
NuBBE_1381
 27 26 0 0 0
SMALL
GASTEIGER

@<TRIPOS>ATOM
      1 C          -3.8021   -0.8239   -0.4845 C.3     1  LIG1       -0.0440
      2 C          -2.3470   -0.6334   -0.8328 C.2     1  LIG1       -0.0796
      3 C          -2.0991   -0.3972   -2.2974 C.3     1  LIG1       -0.0440
      4 C          -1.4004   -0.6854    0.1252 C.2     1  LIG1       -0.0850
      5 C           0.0898   -0.5297   -0.0298 C.3     1  LIG1       -0.0308
      6 C           0.6176    0.6548    0.7910 C.3     1  LIG1       -0.0282
      7 C           2.1164    0.8335    0.6515 C.2     1  LIG1       -0.0693
      8 C           2.5472    1.7210   -0.4893 C.3     1  LIG1       -0.0434
      9 C           3.0450    0.2932    1.4634 C.2     1  LIG1       -0.0235
     10 C           2.7684   -0.6055    2.6050 C.2     1  LIG1        0.1431
     11 O           3.6795   -1.0465    3.2974 O.2     1  LIG1       -0.2963
     12 H          -4.3795    0.0607   -0.7732 H       1  LIG1        0.0274
     13 H          -3.9575   -0.9862    0.5872 H       1  LIG1        0.0274
     14 H          -4.2077   -1.6920   -1.0146 H       1  LIG1        0.0274
     15 H          -2.4691   -1.2469   -2.8811 H       1  LIG1        0.0274
     16 H          -1.0459   -0.2648   -2.5503 H       1  LIG1        0.0274
     17 H          -2.6280    0.5033   -2.6269 H       1  LIG1        0.0274
     18 H          -1.7213   -0.8784    1.1499 H       1  LIG1        0.0572
     19 H           0.3831   -0.4105   -1.0757 H       1  LIG1        0.0310
     20 H           0.5622   -1.4577    0.3159 H       1  LIG1        0.0310
     21 H           0.3426    0.5340    1.8456 H       1  LIG1        0.0313
     22 H           0.1164    1.5794    0.4743 H       1  LIG1        0.0313
     23 H           2.1797    1.3279   -1.4424 H       1  LIG1        0.0274
     24 H           3.6372    1.8006   -0.5639 H       1  LIG1        0.0274
     25 H           2.1507    2.7323   -0.3521 H       1  LIG1        0.0274
     26 H           4.1043    0.4830    1.3116 H       1  LIG1        0.0649
     27 H           1.7174   -0.8654    2.7959 H       1  LIG1        0.1075
@<TRIPOS>BOND
     1     1     2    1
     2     2     3    1
     3     2     4    2
     4     4     5    1
     5     5     6    1
     6     6     7    1
     7     7     8    1
     8     7     9    2
     9     9    10    1
    10    10    11    2
    11     1    12    1
    12     1    13    1
    13     1    14    1
    14     3    15    1
    15     3    16    1
    16     3    17    1
    17     4    18    1
    18     5    19    1
    19     5    20    1
    20     6    21    1
    21     6    22    1
    22     8    23    1
    23     8    24    1
    24     8    25    1
    25     9    26    1
    26    10    27    1
