REMARK  Name = NuBBE_2171
REMARK  5 active torsions:
REMARK  status: ('A' for Active; 'I' for Inactive)
REMARK    1  A    between atoms: C_1  and  C_2
REMARK    2  A    between atoms: C_2  and  C_4
REMARK    3  A    between atoms: C_11  and  C_12
REMARK    4  A    between atoms: C_23  and  C_24
REMARK    5  A    between atoms: C_23  and  C_25
REMARK                            x       y       z     vdW  Elec       q    Type
REMARK                         _______ _______ _______ _____ _____    ______ ____
ROOT
ATOM      1  C   LIG A   1       0.372   1.339   0.381  0.00  0.00    +0.211 C 
ATOM      2  C   LIG A   1       1.292   2.526   0.142  0.00  0.00    +0.129 C 
ATOM      3  C   LIG A   1       2.264   2.593   1.284  0.00  0.00    +0.171 C 
ATOM      4  C   LIG A   1       2.672   1.304   1.881  0.00  0.00    +0.060 A 
ATOM      5  C   LIG A   1       3.651   1.273   2.876  0.00  0.00    +0.019 A 
ATOM      6  C   LIG A   1       4.062   0.046   3.394  0.00  0.00    +0.047 A 
ATOM      7  C   LIG A   1       3.505  -1.143   2.916  0.00  0.00    +0.132 A 
ATOM      8  C   LIG A   1       2.522  -1.119   1.920  0.00  0.00    +0.059 A 
ATOM      9  C   LIG A   1       1.967  -2.381   1.446  0.00  0.00    +0.015 C 
ATOM     10  C   LIG A   1       2.415  -3.516   1.989  0.00  0.00    +0.020 C 
ATOM     11  C   LIG A   1       3.468  -3.562   3.071  0.00  0.00    +0.123 C 
ATOM     12  C   LIG A   1       4.668  -4.378   2.576  0.00  0.00    +0.060 C 
ATOM     13  C   LIG A   1       2.878  -4.218   4.324  0.00  0.00    +0.060 C 
ATOM     14  O   LIG A   1       3.991  -2.284   3.488  0.00  0.00    -0.481 OA
ATOM     15  C   LIG A   1       2.092   0.120   1.412  0.00  0.00    +0.142 A 
ATOM     16  O   LIG A   1       1.125   0.118   0.435  0.00  0.00    -0.482 OA
ATOM     17  O   LIG A   1       2.749   3.650   1.672  0.00  0.00    -0.292 OA
ENDROOT
BRANCH   1  28
ATOM     18  C   LIG A   1      -5.728   0.427  -4.077  0.00  0.00    +0.060 C 
ATOM     19  C   LIG A   1      -4.744   1.552  -3.738  0.00  0.00    +0.123 C 
ATOM     20  O   LIG A   1      -3.425   0.977  -3.845  0.00  0.00    -0.482 OA
ATOM     21  C   LIG A   1      -4.829   2.651  -4.804  0.00  0.00    +0.060 C 
ATOM     22  C   LIG A   1      -5.102   2.136  -2.389  0.00  0.00    +0.020 C 
ATOM     23  C   LIG A   1      -4.247   2.195  -1.364  0.00  0.00    +0.011 C 
ATOM     24  C   LIG A   1      -2.907   1.672  -1.567  0.00  0.00    +0.017 A 
ATOM     25  C   LIG A   1      -2.566   1.093  -2.789  0.00  0.00    +0.129 A 
ATOM     26  C   LIG A   1      -1.284   0.583  -2.988  0.00  0.00    +0.046 A 
ATOM     27  C   LIG A   1      -0.333   0.652  -1.969  0.00  0.00    +0.011 A 
ATOM     28  C   LIG A   1      -0.656   1.228  -0.731  0.00  0.00    -0.006 A 
ATOM     29  C   LIG A   1      -1.952   1.739  -0.543  0.00  0.00    +0.018 A 
ENDBRANCH   1  28
TORSDOF 1
