REMARK  Name = NuBBE_540
REMARK  9 active torsions:
REMARK  status: ('A' for Active; 'I' for Inactive)
REMARK    1  A    between atoms: O_1  and  C_2
REMARK    2  A    between atoms: C_2  and  C_4
REMARK    3  A    between atoms: C_2  and  C_19
REMARK    4  A    between atoms: C_4  and  C_5
REMARK    5  A    between atoms: C_5  and  O_7
REMARK    6  A    between atoms: C_5  and  C_8
REMARK    7  A    between atoms: C_8  and  C_9
REMARK    8  A    between atoms: C_10  and  C_11
REMARK    9  A    between atoms: C_20  and  C_21
REMARK                            x       y       z     vdW  Elec       q    Type
REMARK                         _______ _______ _______ _____ _____    ______ ____
ROOT
ATOM      1  C   LIG A   1      -0.010   1.070  -0.105  0.00  0.00    +0.121 C 
ENDROOT
BRANCH   1   2
ATOM      2  O   LIG A   1      -1.020   2.076  -0.186  0.00  0.00    -0.391 OA
ATOM      3  H   LIG A   1      -1.581   1.979   0.615  0.00  0.00    +0.210 HD
ENDBRANCH   1   2
BRANCH   1   4
ATOM      4  C   LIG A   1      -0.633  -0.311   0.194  0.00  0.00    +0.067 C 
BRANCH   4   5
ATOM      5  C   LIG A   1      -1.373  -0.364   1.542  0.00  0.00    +0.140 C 
BRANCH   5   6
ATOM      6  O   LIG A   1      -2.403   0.622   1.574  0.00  0.00    -0.388 OA
ATOM      7  H   LIG A   1      -2.928   0.450   2.378  0.00  0.00    +0.210 HD
ENDBRANCH   5   6
BRANCH   5   8
ATOM      8  C   LIG A   1      -1.944  -1.729   1.830  0.00  0.00    +0.004 C 
ATOM      9  C   LIG A   1      -3.185  -2.145   1.523  0.00  0.00    +0.006 C 
BRANCH   9  10
ATOM     10  C   LIG A   1      -3.714  -3.487   1.819  0.00  0.00    -0.025 A 
ATOM     11  C   LIG A   1      -4.696  -4.029   0.978  0.00  0.00    +0.008 A 
ATOM     12  C   LIG A   1      -5.259  -5.279   1.249  0.00  0.00    +0.001 A 
ATOM     13  C   LIG A   1      -4.854  -5.999   2.371  0.00  0.00    +0.000 A 
ATOM     14  C   LIG A   1      -3.880  -5.473   3.217  0.00  0.00    +0.001 A 
ATOM     15  C   LIG A   1      -3.317  -4.223   2.945  0.00  0.00    +0.008 A 
ENDBRANCH   9  10
ENDBRANCH   5   8
ENDBRANCH   4   5
ENDBRANCH   1   4
BRANCH   1  16
ATOM     16  C   LIG A   1       0.771   1.050  -1.435  0.00  0.00    +0.058 C 
BRANCH  16  17
ATOM     17  C   LIG A   1       1.417   2.377  -1.767  0.00  0.00    -0.025 C 
ATOM     18  C   LIG A   1       2.736   2.550  -1.958  0.00  0.00    +0.013 C 
BRANCH  18  19
ATOM     19  C   LIG A   1       3.389   3.857  -2.345  0.00  0.00    +0.203 C 
ATOM     20  O   LIG A   1       4.076   3.671  -3.609  0.00  0.00    -0.454 OA
ATOM     21  C   LIG A   1       5.314   3.139  -3.648  0.00  0.00    +0.332 C 
ATOM     22  C   LIG A   1       6.061   3.052  -2.383  0.00  0.00    +0.087 C 
ATOM     23  C   LIG A   1       5.633   3.671  -1.276  0.00  0.00    -0.016 C 
ATOM     24  C   LIG A   1       4.338   4.417  -1.277  0.00  0.00    +0.076 C 
ATOM     25  O   LIG A   1       5.837   2.757  -4.702  0.00  0.00    -0.246 OA
ENDBRANCH  18  19
ENDBRANCH  16  17
ENDBRANCH   1  16
TORSDOF 9
