REMARK  Name = NuBBE_2400
REMARK  7 active torsions:
REMARK  status: ('A' for Active; 'I' for Inactive)
REMARK    1  A    between atoms: O_1  and  C_2
REMARK    2  A    between atoms: C_7  and  C_8
REMARK    3  A    between atoms: C_8  and  C_10
REMARK    4  A    between atoms: C_11  and  C_12
REMARK    5  A    between atoms: C_15  and  O_18
REMARK    6  A    between atoms: C_20  and  C_23
REMARK    7  A    between atoms: C_20  and  C_24
REMARK                            x       y       z     vdW  Elec       q    Type
REMARK                         _______ _______ _______ _____ _____    ______ ____
ROOT
ATOM      1  C   LIG A   1       0.632  -0.366  -0.540  0.00  0.00    +0.138 A 
ATOM      2  C   LIG A   1       1.529  -1.457  -0.585  0.00  0.00    +0.059 A 
ATOM      3  C   LIG A   1       2.888  -1.213  -0.809  0.00  0.00    +0.132 A 
ATOM      4  C   LIG A   1       3.356   0.095  -0.938  0.00  0.00    +0.047 A 
ATOM      5  C   LIG A   1       2.470   1.170  -0.850  0.00  0.00    +0.019 A 
ATOM      6  C   LIG A   1       1.097   0.957  -0.642  0.00  0.00    +0.064 A 
ATOM      7  O   LIG A   1       3.838  -2.192  -0.910  0.00  0.00    -0.481 OA
ATOM      8  C   LIG A   1       3.419  -3.571  -0.956  0.00  0.00    +0.123 C 
ATOM      9  C   LIG A   1       1.982  -3.818  -0.567  0.00  0.00    +0.020 C 
ATOM     10  C   LIG A   1       1.095  -2.837  -0.378  0.00  0.00    +0.015 C 
ATOM     11  C   LIG A   1       3.658  -4.082  -2.381  0.00  0.00    +0.060 C 
ATOM     12  C   LIG A   1       4.329  -4.323   0.024  0.00  0.00    +0.060 C 
ENDROOT
BRANCH   1  13
ATOM     13  O   LIG A   1      -0.717  -0.602  -0.454  0.00  0.00    -0.505 OA
ATOM     14  H   LIG A   1      -0.908  -1.428  -0.932  0.00  0.00    +0.292 HD
ENDBRANCH   1  13
BRANCH   6  15
ATOM     15  C   LIG A   1       0.231   2.173  -0.609  0.00  0.00    +0.190 C 
ATOM     16  O   LIG A   1       0.596   3.192  -1.202  0.00  0.00    -0.287 OA
BRANCH  15  17
ATOM     17  C   LIG A   1      -1.028   2.157   0.179  0.00  0.00    +0.052 C 
ATOM     18  C   LIG A   1      -1.871   3.206   0.162  0.00  0.00    +0.012 C 
BRANCH  18  19
ATOM     19  C   LIG A   1      -3.141   3.240   0.905  0.00  0.00    -0.025 A 
ATOM     20  C   LIG A   1      -3.900   2.082   1.139  0.00  0.00    +0.011 A 
ATOM     21  C   LIG A   1      -5.109   2.144   1.838  0.00  0.00    +0.046 A 
ATOM     22  C   LIG A   1      -5.573   3.372   2.291  0.00  0.00    +0.117 A 
ATOM     23  C   LIG A   1      -4.853   4.535   2.048  0.00  0.00    +0.046 A 
ATOM     24  C   LIG A   1      -3.642   4.471   1.351  0.00  0.00    +0.011 A 
BRANCH  22  25
ATOM     25  O   LIG A   1      -6.745   3.477   2.979  0.00  0.00    -0.507 OA
ATOM     26  H   LIG A   1      -7.122   2.588   3.083  0.00  0.00    +0.292 HD
ENDBRANCH  22  25
ENDBRANCH  18  19
ENDBRANCH  15  17
ENDBRANCH   6  15
TORSDOF 5
