@<TRIPOS>MOLECULE
NuBBE_296
 26 27 0 0 0
SMALL
GASTEIGER

@<TRIPOS>ATOM
      1 O          -2.1540   -1.0340   -0.9365 O.2     1  LIG1       -0.2917
      2 C          -0.9938   -1.0263   -0.5391 C.2     1  LIG1        0.1737
      3 C          -0.2160   -2.3121   -0.4533 C.3     1  LIG1        0.0475
      4 C           0.7533   -2.2073    0.7071 C.3     1  LIG1        0.1044
      5 H           0.2235   -2.0173    1.6511 H       1  LIG1        0.0734
      6 O           1.6812   -1.1415    0.4775 O.3     1  LIG1       -0.4878
      7 C           1.0637    0.0682    0.2841 C.ar    1  LIG1        0.1349
      8 C          -0.2515    0.2178   -0.1826 C.ar    1  LIG1        0.1006
      9 C          -0.7976    1.5076   -0.3341 C.ar    1  LIG1        0.1341
     10 O          -2.0876    1.6048   -0.7770 O.3     1  LIG1       -0.4943
     11 C          -2.6429    2.8959   -0.9796 C.3     1  LIG1        0.0788
     12 C          -0.0009    2.6208   -0.0283 C.ar    1  LIG1       -0.0190
     13 C           1.3158    2.4609    0.4098 C.ar    1  LIG1       -0.0548
     14 C           1.8489    1.1859    0.5614 C.ar    1  LIG1       -0.0190
     15 C           1.5613   -3.4902    0.8583 C.3     1  LIG1       -0.0274
     16 H           0.2998   -2.4573   -1.4092 H       1  LIG1        0.0381
     17 H          -0.9152   -3.1395   -0.2915 H       1  LIG1        0.0381
     18 H          -3.6641    2.7664   -1.3507 H       1  LIG1        0.0660
     19 H          -2.0821    3.4531   -1.7372 H       1  LIG1        0.0660
     20 H          -2.6996    3.4526   -0.0386 H       1  LIG1        0.0660
     21 H          -0.3756    3.6349   -0.1274 H       1  LIG1        0.0654
     22 H           1.9239    3.3340    0.6346 H       1  LIG1        0.0620
     23 H           2.8725    1.0603    0.9058 H       1  LIG1        0.0654
     24 H           0.9121   -4.3490    1.0543 H       1  LIG1        0.0265
     25 H           2.2745   -3.3962    1.6844 H       1  LIG1        0.0265
     26 H           2.1503   -3.6925   -0.0432 H       1  LIG1        0.0265
@<TRIPOS>BOND
     1     1     2    2
     2     2     3    1
     3     3     4    1
     4     4     5    1
     5     4     6    1
     6     6     7    1
     7     7     8   ar
     8     2     8    1
     9     8     9   ar
    10     9    10    1
    11    10    11    1
    12     9    12   ar
    13    12    13   ar
    14    13    14   ar
    15     7    14   ar
    16     4    15    1
    17     3    16    1
    18     3    17    1
    19    11    18    1
    20    11    19    1
    21    11    20    1
    22    12    21    1
    23    13    22    1
    24    14    23    1
    25    15    24    1
    26    15    25    1
    27    15    26    1
