@<TRIPOS>MOLECULE
NuBBE_2277
 32 34 0 0 0
SMALL
GASTEIGER

@<TRIPOS>ATOM
      1 O          -4.7421    0.1269    1.2464 O.2     1  LIG1       -0.2451
      2 C          -3.7529    0.7677    0.9059 C.ar    1  LIG1        0.3407
      3 O          -2.5398    0.1813    0.6970 O.2     1  LIG1       -0.4226
      4 C          -3.8533    2.2231    0.7121 C.ar    1  LIG1        0.0646
      5 C          -2.7843    2.9406    0.3380 C.ar    1  LIG1        0.1304
      6 O          -2.7208    4.2946    0.1216 O.3     1  LIG1       -0.4948
      7 C          -3.9117    5.0474    0.3213 C.3     1  LIG1        0.0788
      8 C          -1.5263    2.2801    0.1239 C.ar    1  LIG1        0.0227
      9 C          -1.4274    0.9573    0.3033 C.ar    1  LIG1        0.1354
     10 C          -0.1936    0.2272    0.1090 C.2     1  LIG1       -0.0185
     11 C          -0.0479   -1.0986    0.2742 C.2     1  LIG1       -0.0510
     12 C           1.2199   -1.8143    0.0649 C.ar    1  LIG1       -0.0212
     13 C           1.4775   -2.9788    0.8239 C.ar    1  LIG1       -0.0509
     14 C           2.6618   -3.7066    0.6538 C.ar    1  LIG1       -0.0156
     15 C           3.5612   -3.2542   -0.2851 C.ar    1  LIG1        0.1663
     16 O           4.7570   -3.8252   -0.5870 O.3     1  LIG1       -0.4526
     17 C           5.2291   -2.9376   -1.6222 C.3     1  LIG1        0.2332
     18 O           4.3168   -1.8592   -1.9135 O.3     1  LIG1       -0.4526
     19 C           3.3119   -2.1339   -1.0405 C.ar    1  LIG1        0.1668
     20 C           2.1536   -1.4013   -0.8979 C.ar    1  LIG1       -0.0090
     21 H          -4.8321    2.6435    0.8933 H       1  LIG1        0.0726
     22 H          -3.6844    6.0979    0.1170 H       1  LIG1        0.0660
     23 H          -4.2532    4.9709    1.3587 H       1  LIG1        0.0660
     24 H          -4.6959    4.7291   -0.3734 H       1  LIG1        0.0660
     25 H          -0.6780    2.8848   -0.1814 H       1  LIG1        0.0691
     26 H           0.6630    0.8303   -0.1843 H       1  LIG1        0.0654
     27 H          -0.8870   -1.7119    0.5946 H       1  LIG1        0.0625
     28 H           0.7550   -3.3205    1.5627 H       1  LIG1        0.0625
     29 H           2.8638   -4.5954    1.2407 H       1  LIG1        0.0655
     30 H           5.3855   -3.5182   -2.5384 H       1  LIG1        0.1166
     31 H           6.1878   -2.5094   -1.3081 H       1  LIG1        0.1166
     32 H           1.9867   -0.5375   -1.5305 H       1  LIG1        0.0661
@<TRIPOS>BOND
     1     1     2    2
     2     2     3   ar
     3     2     4   ar
     4     4     5   ar
     5     5     6    1
     6     6     7    1
     7     5     8   ar
     8     8     9   ar
     9     3     9   ar
    10     9    10    1
    11    10    11    2
    12    11    12    1
    13    12    13   ar
    14    13    14   ar
    15    14    15   ar
    16    15    16    1
    17    16    17    1
    18    17    18    1
    19    15    19   ar
    20    18    19    1
    21    19    20   ar
    22    12    20   ar
    23     4    21    1
    24     7    22    1
    25     7    23    1
    26     7    24    1
    27     8    25    1
    28    10    26    1
    29    11    27    1
    30    13    28    1
    31    14    29    1
    32    17    30    1
    33    17    31    1
    34    20    32    1
