@<TRIPOS>MOLECULE
NuBBE_1128
 52 55 0 0 0
SMALL
GASTEIGER

@<TRIPOS>ATOM
      1 C          -1.1337   -1.9491   -4.5614 C.3     1  LIG1        0.0163
      2 S          -2.4388   -1.7701   -3.3135 S.O     1  LIG1        0.0507
      3 C          -2.0361   -0.0752   -2.8276 C.ar    1  LIG1        0.0404
      4 C          -2.6437    1.0034   -3.4496 C.ar    1  LIG1       -0.0448
      5 C          -2.2946    2.2913   -3.0659 C.ar    1  LIG1       -0.0451
      6 C          -1.0871    0.1490   -1.8134 C.ar    1  LIG1       -0.0235
      7 C          -0.6742    1.4464   -1.4206 C.ar    1  LIG1        0.0490
      8 C          -1.3224    2.5172   -2.0691 C.ar    1  LIG1        0.0342
      9 S          -1.0080    4.2274   -1.7247 S.3     1  LIG1       -0.0857
     10 C           0.3074    4.1462   -0.5385 C.ar    1  LIG1        0.0341
     11 C           0.8173    5.4015   -0.1424 C.ar    1  LIG1       -0.0462
     12 C           1.8457    5.4989    0.7853 C.ar    1  LIG1       -0.0606
     13 C           2.3562    4.3409    1.3396 C.ar    1  LIG1       -0.0599
     14 C           1.8439    3.0920    0.9578 C.ar    1  LIG1       -0.0393
     15 C           0.8225    2.9448   -0.0116 C.ar    1  LIG1        0.0479
     16 N           0.3446    1.6661   -0.4396 N.pl3   1  LIG1       -0.2982
     17 C           1.0270    0.4668    0.1133 C.3     1  LIG1        0.0188
     18 C           0.3364   -0.0206    1.3992 C.3     1  LIG1       -0.0212
     19 C           1.0350   -1.2620    2.0027 C.3     1  LIG1        0.0116
     20 H           2.0739   -0.9509    2.1838 H       1  LIG1        0.0463
     21 C           0.4384   -1.6430    3.3747 C.3     1  LIG1       -0.0373
     22 C          -0.9087   -2.3518    3.2721 C.3     1  LIG1       -0.0505
     23 C          -0.8409   -3.5108    2.2867 C.3     1  LIG1       -0.0402
     24 C          -0.2646   -3.0591    0.9462 C.3     1  LIG1       -0.0011
     25 N           1.0416   -2.3878    1.0442 N.3     1  LIG1       -0.3023
     26 C           2.1117   -3.3445    1.3386 C.3     1  LIG1       -0.0125
     27 O          -3.7424   -1.6828   -4.0546 O.2     1  LIG1       -0.2524
     28 H          -0.1550   -1.9216   -4.0764 H       1  LIG1        0.0368
     29 H          -1.2089   -1.1504   -5.3039 H       1  LIG1        0.0368
     30 H          -1.2622   -2.9135   -5.0591 H       1  LIG1        0.0368
     31 H          -3.3886    0.8533   -4.2285 H       1  LIG1        0.0630
     32 H          -2.7846    3.1299   -3.5569 H       1  LIG1        0.0630
     33 H          -0.6824   -0.7365   -1.3381 H       1  LIG1        0.0648
     34 H           0.4102    6.3171   -0.5653 H       1  LIG1        0.0629
     35 H           2.2363    6.4709    1.0720 H       1  LIG1        0.0618
     36 H           3.1565    4.3951    2.0748 H       1  LIG1        0.0618
     37 H           2.2878    2.2407    1.4605 H       1  LIG1        0.0636
     38 H           2.0904    0.6546    0.2994 H       1  LIG1        0.0468
     39 H           1.0949   -0.3323   -0.6312 H       1  LIG1        0.0468
     40 H          -0.7237   -0.2201    1.2060 H       1  LIG1        0.0296
     41 H           0.3539    0.7864    2.1431 H       1  LIG1        0.0296
     42 H           0.3328   -0.7513    4.0041 H       1  LIG1        0.0280
     43 H           1.1403   -2.3032    3.9007 H       1  LIG1        0.0280
     44 H          -1.6798   -1.6413    2.9525 H       1  LIG1        0.0266
     45 H          -1.2094   -2.7230    4.2587 H       1  LIG1        0.0266
     46 H          -1.8452   -3.9229    2.1348 H       1  LIG1        0.0278
     47 H          -0.2322   -4.3202    2.7070 H       1  LIG1        0.0278
     48 H          -0.9786   -2.3783    0.4676 H       1  LIG1        0.0426
     49 H          -0.1952   -3.9171    0.2660 H       1  LIG1        0.0426
     50 H           2.1397   -4.1331    0.5784 H       1  LIG1        0.0391
     51 H           2.0091   -3.8199    2.3192 H       1  LIG1        0.0391
     52 H           3.0876   -2.8476    1.3027 H       1  LIG1        0.0391
@<TRIPOS>BOND
     1     1     2    1
     2     2     3    1
     3     3     4   ar
     4     4     5   ar
     5     3     6   ar
     6     6     7   ar
     7     7     8   ar
     8     5     8   ar
     9     8     9    1
    10     9    10    1
    11    10    11   ar
    12    11    12   ar
    13    12    13   ar
    14    13    14   ar
    15    14    15   ar
    16    10    15   ar
    17    15    16    1
    18     7    16    1
    19    16    17    1
    20    17    18    1
    21    18    19    1
    22    19    20    1
    23    19    21    1
    24    21    22    1
    25    22    23    1
    26    23    24    1
    27    24    25    1
    28    19    25    1
    29    25    26    1
    30     2    27    2
    31     1    28    1
    32     1    29    1
    33     1    30    1
    34     4    31    1
    35     5    32    1
    36     6    33    1
    37    11    34    1
    38    12    35    1
    39    13    36    1
    40    14    37    1
    41    17    38    1
    42    17    39    1
    43    18    40    1
    44    18    41    1
    45    21    42    1
    46    21    43    1
    47    22    44    1
    48    22    45    1
    49    23    46    1
    50    23    47    1
    51    24    48    1
    52    24    49    1
    53    26    50    1
    54    26    51    1
    55    26    52    1
