@<TRIPOS>MOLECULE
NuBBE_534
 49 52 0 0 0
SMALL
GASTEIGER

@<TRIPOS>ATOM
      1 O          -0.0353   -5.6385    3.1460 O.3     1  LIG1       -0.5065
      2 C           0.3116   -4.6809    2.2398 C.ar    1  LIG1        0.1239
      3 C           0.7934   -5.0190    0.9796 C.ar    1  LIG1        0.0223
      4 C           1.1570   -3.9988    0.0986 C.ar    1  LIG1        0.1348
      5 O           1.5782   -4.3320   -1.1585 O.3     1  LIG1       -0.5058
      6 C           1.0562   -2.6537    0.4874 C.ar    1  LIG1        0.1092
      7 C           1.5043   -1.5382   -0.3633 C.ar    1  LIG1        0.2382
      8 C           1.0325   -0.1650    0.0053 C.ar    1  LIG1        0.2138
      9 O           1.1059    0.8974   -0.8840 O.3     1  LIG1       -0.4532
     10 C           1.1711    0.6724   -2.3005 C.3     1  LIG1        0.2308
     11 H           2.0727    0.1074   -2.5421 H       1  LIG1        0.1084
     12 O           1.3652    1.9368   -2.9677 O.3     1  LIG1       -0.3369
     13 C           0.2658    2.8465   -2.8315 C.3     1  LIG1        0.0802
     14 C          -1.0669    2.2560   -3.2976 C.3     1  LIG1        0.1070
     15 H          -1.8918    2.9365   -3.0624 H       1  LIG1        0.0643
     16 C          -1.3012    0.8856   -2.6676 C.3     1  LIG1        0.1148
     17 H          -1.5176    0.9854   -1.5974 H       1  LIG1        0.0648
     18 O          -2.4584    0.2779   -3.2706 O.3     1  LIG1       -0.3864
     19 O          -1.0643    2.1093   -4.7268 O.3     1  LIG1       -0.3869
     20 C          -0.0848   -0.0147   -2.8931 C.3     1  LIG1        0.1454
     21 H           0.0589   -0.1627   -3.9699 H       1  LIG1        0.0683
     22 O          -0.3959   -1.3128   -2.3611 O.3     1  LIG1       -0.3829
     23 C           0.5470   -0.0014    1.2563 C.ar    1  LIG1        0.1810
     24 O           0.3777   -1.0441    2.1640 O.2     1  LIG1       -0.4507
     25 C           0.5356   -2.3351    1.7345 C.ar    1  LIG1        0.1465
     26 C           0.1642   -3.3495    2.6181 C.ar    1  LIG1        0.0231
     27 C           0.1479    1.3169    1.8353 C.ar    1  LIG1        0.0247
     28 C          -0.8755    1.3836    2.8030 C.ar    1  LIG1       -0.0057
     29 C          -1.1961    2.5998    3.4064 C.ar    1  LIG1        0.1589
     30 O          -2.1729    2.7028    4.3594 O.3     1  LIG1       -0.5033
     31 C          -0.5145    3.7609    3.0605 C.ar    1  LIG1        0.1583
     32 C           0.4913    3.7283    2.1123 C.ar    1  LIG1       -0.0159
     33 C           0.8271    2.5095    1.5133 C.ar    1  LIG1       -0.0473
     34 O          -0.8222    4.9449    3.6651 O.3     1  LIG1       -0.5033
     35 O           2.2047   -1.7333   -1.3455 O.2     1  LIG1       -0.2830
     36 H           0.1889   -6.5159    2.7926 H       1  LIG1        0.2921
     37 H           0.8762   -6.0591    0.6823 H       1  LIG1        0.0691
     38 H           1.7602   -5.2837   -1.2160 H       1  LIG1        0.2922
     39 H           0.5124    3.7241   -3.4389 H       1  LIG1        0.0588
     40 H           0.2035    3.1706   -1.7871 H       1  LIG1        0.0588
     41 H          -2.4166   -0.6587   -2.9848 H       1  LIG1        0.2100
     42 H          -1.8352    1.5369   -4.9207 H       1  LIG1        0.2100
     43 H           0.4049   -1.8630   -2.5057 H       1  LIG1        0.2102
     44 H          -0.2305   -3.1074    3.6008 H       1  LIG1        0.0691
     45 H          -1.4081    0.4823    3.0929 H       1  LIG1        0.0662
     46 H          -2.5767    1.8266    4.4812 H       1  LIG1        0.2923
     47 H           1.0261    4.6365    1.8507 H       1  LIG1        0.0655
     48 H           1.6504    2.5121    0.8021 H       1  LIG1        0.0626
     49 H          -1.5262    4.7202    4.3053 H       1  LIG1        0.2923
@<TRIPOS>BOND
     1     1     2    1
     2     2     3   ar
     3     3     4   ar
     4     4     5    1
     5     4     6   ar
     6     6     7   ar
     7     7     8   ar
     8     8     9    1
     9    10    12    1
    10    12    13    1
    11    13    14    1
    12    14    15    1
    13    14    16    1
    14    16    17    1
    15    16    18    1
    16    14    19    1
    17    10    20    1
    18    20    21    1
    19    16    20    1
    20    20    22    1
    21     8    23   ar
    22    23    24   ar
    23    24    25   ar
    24     6    25   ar
    25    25    26   ar
    26     2    26   ar
    27    23    27    1
    28    27    28   ar
    29    28    29   ar
    30    29    30    1
    31    29    31   ar
    32    31    32   ar
    33    32    33   ar
    34    27    33   ar
    35    31    34    1
    36     7    35    2
    37    10    11    1
    38    10     9    1
    39     1    36    1
    40     3    37    1
    41     5    38    1
    42    13    39    1
    43    13    40    1
    44    18    41    1
    45    19    42    1
    46    22    43    1
    47    26    44    1
    48    28    45    1
    49    30    46    1
    50    32    47    1
    51    33    48    1
    52    34    49    1
