@<TRIPOS>MOLECULE
NuBBE_1414
 51 55 0 0 0
SMALL
GASTEIGER

@<TRIPOS>ATOM
      1 O          -3.2665   -0.2976    0.7788 O.2     1  LIG1       -0.2912
      2 C          -2.0485   -0.2758    0.9021 C.2     1  LIG1        0.1778
      3 C          -1.2834    0.9490    0.6155 C.ar    1  LIG1        0.0603
      4 C          -1.9109    2.0398   -0.0189 C.ar    1  LIG1       -0.0442
      5 C          -1.1803    3.1915   -0.3144 C.ar    1  LIG1       -0.0187
      6 C           0.1523    3.2118    0.0414 C.ar    1  LIG1        0.1282
      7 C           0.7794    2.1215    0.6292 C.ar    1  LIG1        0.0404
      8 C           2.2214    2.4280    0.7823 C.3     1  LIG1        0.0204
      9 C           2.1451    3.9661    0.6974 C.3     1  LIG1        0.1249
     10 H           3.0323    4.3335    0.1651 H       1  LIG1        0.0784
     11 C           2.0448    4.7249    2.0247 C.2     1  LIG1       -0.0395
     12 C           1.9784    6.2250    1.9103 C.3     1  LIG1       -0.0406
     13 C           2.0120    4.1512    3.2421 C.2     1  LIG1       -0.0962
     14 O           0.9801    4.2950   -0.1191 O.3     1  LIG1       -0.4838
     15 C           0.0714    0.9797    0.9436 C.ar    1  LIG1        0.1383
     16 O           0.7494   -0.0378    1.5409 O.3     1  LIG1       -0.4833
     17 C          -0.0733   -1.0550    2.1389 C.3     1  LIG1        0.1478
     18 H          -0.4338   -0.6633    3.0998 H       1  LIG1        0.0778
     19 C           0.8085   -2.2780    2.3906 C.3     1  LIG1        0.1273
     20 O           1.3397   -2.8561    1.1904 O.3     1  LIG1       -0.4879
     21 C           0.4952   -2.9046    0.1153 C.ar    1  LIG1        0.1283
     22 C          -0.7539   -2.2856    0.0758 C.ar    1  LIG1        0.0122
     23 C          -1.2429   -1.4986    1.2675 C.3     1  LIG1        0.0908
     24 H          -1.8909   -2.1564    1.8628 H       1  LIG1        0.0468
     25 C          -1.5366   -2.4086   -1.0851 C.ar    1  LIG1       -0.0088
     26 C          -1.0712   -3.0981   -2.2124 C.ar    1  LIG1        0.1620
     27 O          -1.7823   -3.1384   -3.3811 O.3     1  LIG1       -0.4914
     28 C          -3.1984   -3.0507   -3.2762 C.3     1  LIG1        0.0790
     29 C           0.2004   -3.6888   -2.1723 C.ar    1  LIG1        0.1650
     30 O           0.8371   -4.3582   -3.1868 O.3     1  LIG1       -0.4913
     31 C           0.0157   -5.0152   -4.1439 C.3     1  LIG1        0.0790
     32 C           0.9711   -3.5842   -1.0058 C.ar    1  LIG1        0.0257
     33 H          -2.9649    1.9869   -0.2844 H       1  LIG1        0.0627
     34 H          -1.6435    4.0453   -0.7966 H       1  LIG1        0.0654
     35 H           2.7723    2.0178   -0.0711 H       1  LIG1        0.0355
     36 H           2.6713    2.0439    1.6989 H       1  LIG1        0.0355
     37 H           2.7255    6.5973    1.2026 H       1  LIG1        0.0275
     38 H           2.1728    6.7130    2.8723 H       1  LIG1        0.0275
     39 H           0.9852    6.5356    1.5713 H       1  LIG1        0.0275
     40 H           2.0346    3.0780    3.3927 H       1  LIG1        0.0535
     41 H           1.9342    4.7453    4.1473 H       1  LIG1        0.0535
     42 H           0.2610   -3.0554    2.9376 H       1  LIG1        0.0734
     43 H           1.6709   -1.9901    3.0024 H       1  LIG1        0.0734
     44 H          -2.5055   -1.9177   -1.1150 H       1  LIG1        0.0659
     45 H          -3.5140   -2.0127   -3.1320 H       1  LIG1        0.0660
     46 H          -3.5859   -3.6973   -2.4815 H       1  LIG1        0.0660
     47 H          -3.6204   -3.3989   -4.2236 H       1  LIG1        0.0660
     48 H           0.6597   -5.6698   -4.7390 H       1  LIG1        0.0660
     49 H          -0.4327   -4.3052   -4.8441 H       1  LIG1        0.0660
     50 H          -0.7406   -5.6431   -3.6604 H       1  LIG1        0.0660
     51 H           1.9586   -4.0390   -0.9759 H       1  LIG1        0.0692
@<TRIPOS>BOND
     1     1     2    2
     2     2     3    1
     3     3     4   ar
     4     4     5   ar
     5     5     6   ar
     6     6     7   ar
     7     7     8    1
     8     8     9    1
     9     9    10    1
    10     9    11    1
    11    11    12    1
    12    11    13    2
    13     9    14    1
    14     6    14    1
    15     7    15   ar
    16     3    15   ar
    17    15    16    1
    18    16    17    1
    19    17    18    1
    20    17    19    1
    21    19    20    1
    22    20    21    1
    23    21    22   ar
    24    22    23    1
    25     2    23    1
    26    17    23    1
    27    23    24    1
    28    22    25   ar
    29    25    26   ar
    30    26    27    1
    31    27    28    1
    32    26    29   ar
    33    29    30    1
    34    30    31    1
    35    29    32   ar
    36    21    32   ar
    37     4    33    1
    38     5    34    1
    39     8    35    1
    40     8    36    1
    41    12    37    1
    42    12    38    1
    43    12    39    1
    44    13    40    1
    45    13    41    1
    46    19    42    1
    47    19    43    1
    48    25    44    1
    49    28    45    1
    50    28    46    1
    51    28    47    1
    52    31    48    1
    53    31    49    1
    54    31    50    1
    55    32    51    1
