@<TRIPOS>MOLECULE
NuBBE_1556
 40 42 0 0 0
SMALL
GASTEIGER

@<TRIPOS>ATOM
      1 C           1.5919    1.3314   -1.0702 C.3     1  LIG1       -0.0011
      2 C           0.5716    0.7081   -0.0990 C.3     1  LIG1        0.0633
      3 C           0.5409    1.4903    1.2292 C.3     1  LIG1        0.0022
      4 C          -0.4245    0.9247    2.2517 C.ar    1  LIG1       -0.0033
      5 C          -0.2268   -0.3286    2.8369 C.ar    1  LIG1        0.1236
      6 O           0.8777   -1.0533    2.4849 O.3     1  LIG1       -0.5064
      7 C          -1.1284   -0.8496    3.7679 C.ar    1  LIG1        0.0218
      8 C          -2.2518   -0.1117    4.1400 C.ar    1  LIG1        0.1236
      9 C          -2.4555    1.1486    3.5758 C.ar    1  LIG1       -0.0195
     10 C          -1.5521    1.6637    2.6396 C.ar    1  LIG1       -0.0516
     11 O          -3.2069   -0.5133    5.0350 O.3     1  LIG1       -0.4950
     12 C          -3.0307   -1.8015    5.6149 C.3     1  LIG1        0.0788
     13 O          -0.7320    0.7648   -0.6942 O.3     1  LIG1       -0.3911
     14 C           1.6853    0.5796   -2.3834 C.ar    1  LIG1       -0.0412
     15 C           0.8448    0.9432   -3.4516 C.ar    1  LIG1       -0.0129
     16 C           0.9150    0.2078   -4.6162 C.ar    1  LIG1        0.1665
     17 C           1.7754   -0.8508   -4.7521 C.ar    1  LIG1        0.1662
     18 C           2.6214   -1.2357   -3.7305 C.ar    1  LIG1       -0.0159
     19 C           2.5696   -0.5100   -2.5338 C.ar    1  LIG1       -0.0548
     20 O           1.6777   -1.4479   -5.9700 O.3     1  LIG1       -0.4526
     21 C           0.6335   -0.6559   -6.5739 C.3     1  LIG1        0.2332
     22 O           0.1635    0.4154   -5.7316 O.3     1  LIG1       -0.4526
     23 H           2.5871    1.3627   -0.6075 H       1  LIG1        0.0338
     24 H           1.3192    2.3731   -1.2855 H       1  LIG1        0.0338
     25 H           0.8227   -0.3467    0.0589 H       1  LIG1        0.0600
     26 H           0.2593    2.5310    1.0197 H       1  LIG1        0.0339
     27 H           1.5412    1.5255    1.6785 H       1  LIG1        0.0339
     28 H           0.8712   -1.8914    2.9765 H       1  LIG1        0.2921
     29 H          -0.9400   -1.8270    4.1934 H       1  LIG1        0.0691
     30 H          -3.3246    1.7362    3.8642 H       1  LIG1        0.0654
     31 H          -1.7402    2.6477    2.2141 H       1  LIG1        0.0623
     32 H          -3.8656   -1.9871    6.2966 H       1  LIG1        0.0660
     33 H          -2.1063   -1.8443    6.2012 H       1  LIG1        0.0660
     34 H          -3.0470   -2.5837    4.8480 H       1  LIG1        0.0660
     35 H          -1.2873    0.1438   -0.1895 H       1  LIG1        0.2098
     36 H           0.1392    1.7608   -3.3588 H       1  LIG1        0.0658
     37 H           3.2920   -2.0765   -3.8513 H       1  LIG1        0.0655
     38 H           3.2181   -0.8045   -1.7105 H       1  LIG1        0.0621
     39 H          -0.2128   -1.3122   -6.8098 H       1  LIG1        0.1166
     40 H           1.0141   -0.2266   -7.5077 H       1  LIG1        0.1166
@<TRIPOS>BOND
     1     1     2    1
     2     2     3    1
     3     3     4    1
     4     4     5   ar
     5     5     6    1
     6     5     7   ar
     7     7     8   ar
     8     8     9   ar
     9     9    10   ar
    10     4    10   ar
    11     8    11    1
    12    11    12    1
    13     2    13    1
    14     1    14    1
    15    14    15   ar
    16    15    16   ar
    17    16    17   ar
    18    17    18   ar
    19    18    19   ar
    20    14    19   ar
    21    17    20    1
    22    20    21    1
    23    21    22    1
    24    16    22    1
    25     1    23    1
    26     1    24    1
    27     2    25    1
    28     3    26    1
    29     3    27    1
    30     6    28    1
    31     7    29    1
    32     9    30    1
    33    10    31    1
    34    12    32    1
    35    12    33    1
    36    12    34    1
    37    13    35    1
    38    15    36    1
    39    18    37    1
    40    19    38    1
    41    21    39    1
    42    21    40    1
