@<TRIPOS>MOLECULE
NuBBE_1496
 39 40 0 0 0
SMALL
GASTEIGER

@<TRIPOS>ATOM
      1 C          -2.1294   -0.7228   -0.6456 C.3     1  LIG1       -0.0431
      2 C          -2.6663   -1.7104   -1.6899 C.3     1  LIG1       -0.0624
      3 C          -2.8157   -0.9796    0.6990 C.3     1  LIG1       -0.0624
      4 C          -0.5674   -0.7279   -0.5764 C.3     1  LIG1       -0.0287
      5 H          -0.2146   -0.4954   -1.5936 H       1  LIG1        0.0312
      6 C           0.0381    0.3536    0.3782 C.3     1  LIG1        0.0017
      7 H          -0.2828    0.1397    1.4057 H       1  LIG1        0.0391
      8 C           1.5617    0.2585    0.3579 C.2     1  LIG1       -0.0632
      9 C           2.3477    1.2984    0.0193 C.2     1  LIG1       -0.0800
     10 C           1.8346    2.6585   -0.3511 C.3     1  LIG1       -0.0135
     11 C           0.3367    2.7910   -0.2600 C.2     1  LIG1       -0.0722
     12 C          -0.4558    1.7546    0.0705 C.2     1  LIG1       -0.0774
     13 C          -0.2152    4.1574   -0.5453 C.3     1  LIG1       -0.0435
     14 C           2.1519   -1.0961    0.6879 C.3     1  LIG1       -0.0221
     15 H           3.2298   -1.0902    0.4757 H       1  LIG1        0.0343
     16 C           1.5229   -2.1601   -0.2178 C.3     1  LIG1       -0.0465
     17 C          -0.0065   -2.1265   -0.2185 C.3     1  LIG1       -0.0486
     18 C           2.0022   -1.4354    2.1735 C.3     1  LIG1       -0.0587
     19 H          -2.4478    0.2680   -0.9913 H       1  LIG1        0.0298
     20 H          -2.5441   -2.7506   -1.3726 H       1  LIG1        0.0232
     21 H          -2.1593   -1.5783   -2.6512 H       1  LIG1        0.0232
     22 H          -3.7368   -1.5448   -1.8550 H       1  LIG1        0.0232
     23 H          -2.5839   -1.9742    1.0915 H       1  LIG1        0.0232
     24 H          -3.9042   -0.9166    0.5892 H       1  LIG1        0.0232
     25 H          -2.5260   -0.2383    1.4487 H       1  LIG1        0.0232
     26 H           3.4281    1.1805   -0.0021 H       1  LIG1        0.0575
     27 H           2.1571    2.8876   -1.3735 H       1  LIG1        0.0352
     28 H           2.3006    3.3928    0.3168 H       1  LIG1        0.0352
     29 H          -1.5259    1.9215    0.1602 H       1  LIG1        0.0578
     30 H           0.1931    4.8875    0.1609 H       1  LIG1        0.0274
     31 H          -1.3067    4.1872   -0.4624 H       1  LIG1        0.0274
     32 H           0.0502    4.4689   -1.5608 H       1  LIG1        0.0274
     33 H           1.8655   -3.1588    0.0792 H       1  LIG1        0.0271
     34 H           1.8749   -2.0070   -1.2470 H       1  LIG1        0.0271
     35 H          -0.3741   -2.4443    0.7632 H       1  LIG1        0.0268
     36 H          -0.3529   -2.8727   -0.9414 H       1  LIG1        0.0268
     37 H           0.9560   -1.5118    2.4851 H       1  LIG1        0.0235
     38 H           2.4800   -0.6706    2.7959 H       1  LIG1        0.0235
     39 H           2.4844   -2.3933    2.3968 H       1  LIG1        0.0235
@<TRIPOS>BOND
     1     1     2    1
     2     1     3    1
     3     1     4    1
     4     4     5    1
     5     4     6    1
     6     6     7    1
     7     6     8    1
     8     8     9    2
     9     9    10    1
    10    10    11    1
    11    11    12    2
    12     6    12    1
    13    11    13    1
    14     8    14    1
    15    14    16    1
    16    16    17    1
    17     4    17    1
    18    14    18    1
    19    14    15    1
    20     1    19    1
    21     2    20    1
    22     2    21    1
    23     2    22    1
    24     3    23    1
    25     3    24    1
    26     3    25    1
    27     9    26    1
    28    10    27    1
    29    10    28    1
    30    12    29    1
    31    13    30    1
    32    13    31    1
    33    13    32    1
    34    16    33    1
    35    16    34    1
    36    17    35    1
    37    17    36    1
    38    18    37    1
    39    18    38    1
    40    18    39    1
