REMARK  Name = NuBBE_2020
REMARK  7 active torsions:
REMARK  status: ('A' for Active; 'I' for Inactive)
REMARK    1  A    between atoms: C_6  and  O_7
REMARK    2  A    between atoms: C_8  and  O_9
REMARK    3  A    between atoms: O_9  and  C_10
REMARK    4  A    between atoms: C_14  and  C_15
REMARK    5  A    between atoms: C_17  and  O_18
REMARK    6  A    between atoms: C_19  and  O_20
REMARK    7  A    between atoms: O_20  and  C_21
REMARK                            x       y       z     vdW  Elec       q    Type
REMARK                         _______ _______ _______ _____ _____    ______ ____
ROOT
ATOM      1  O   LIG A   1      -1.919  -0.663   0.390  0.00  0.00    -0.286 OA
ATOM      2  C   LIG A   1      -0.694  -0.773   0.316  0.00  0.00    +0.200 A 
ATOM      3  C   LIG A   1      -0.093  -2.115   0.290  0.00  0.00    +0.068 A 
ATOM      4  C   LIG A   1      -0.917  -3.243   0.328  0.00  0.00    +0.019 A 
ATOM      5  C   LIG A   1      -0.351  -4.513   0.294  0.00  0.00    +0.050 A 
ATOM      6  C   LIG A   1       1.038  -4.657   0.218  0.00  0.00    +0.162 A 
ATOM      7  C   LIG A   1       1.879  -3.531   0.176  0.00  0.00    +0.205 A 
ATOM      8  C   LIG A   1       1.292  -2.250   0.226  0.00  0.00    +0.183 A 
ATOM      9  O   LIG A   1       2.114  -1.148   0.203  0.00  0.00    -0.458 OA
ATOM     10  C   LIG A   1       1.536   0.102   0.195  0.00  0.00    +0.208 A 
ATOM     11  C   LIG A   1       0.225   0.400   0.243  0.00  0.00    +0.064 A 
ENDROOT
BRANCH  11  12
ATOM     12  C   LIG A   1      -0.266   1.805   0.196  0.00  0.00    -0.008 A 
ATOM     13  C   LIG A   1      -1.502   2.118  -0.393  0.00  0.00    +0.058 A 
ATOM     14  C   LIG A   1      -1.994   3.432  -0.432  0.00  0.00    +0.159 A 
ATOM     15  C   LIG A   1      -1.250   4.481   0.107  0.00  0.00    +0.161 A 
ATOM     16  C   LIG A   1      -0.015   4.181   0.693  0.00  0.00    +0.050 A 
ATOM     17  C   LIG A   1       0.469   2.867   0.743  0.00  0.00    +0.012 A 
BRANCH  14  18
ATOM     18  O   LIG A   1      -3.213   3.642  -1.017  0.00  0.00    -0.503 OA
ATOM     19  H   LIG A   1      -3.581   2.789  -1.301  0.00  0.00    +0.292 HD
ENDBRANCH  14  18
BRANCH  15  20
ATOM     20  O   LIG A   1      -1.559   5.813   0.149  0.00  0.00    -0.491 OA
ATOM     21  C   LIG A   1      -2.800   6.226  -0.408  0.00  0.00    +0.277 C 
ENDBRANCH  15  20
ENDBRANCH  11  12
BRANCH   6  22
ATOM     22  O   LIG A   1       1.544  -5.927   0.218  0.00  0.00    -0.503 OA
ATOM     23  H   LIG A   1       0.819  -6.568   0.301  0.00  0.00    +0.292 HD
ENDBRANCH   6  22
BRANCH   7  24
ATOM     24  O   LIG A   1       3.252  -3.557   0.161  0.00  0.00    -0.488 OA
ATOM     25  C   LIG A   1       3.876  -4.637  -0.524  0.00  0.00    +0.277 C 
ENDBRANCH   7  24
TORSDOF 5
