REMARK  Name = NuBBE_273
REMARK  11 active torsions:
REMARK  status: ('A' for Active; 'I' for Inactive)
REMARK    1  A    between atoms: O_1  and  C_2
REMARK    2  A    between atoms: C_4  and  C_5
REMARK    3  A    between atoms: C_6  and  C_7
REMARK    4  A    between atoms: C_7  and  O_8
REMARK    5  A    between atoms: O_8  and  C_9
REMARK    6  A    between atoms: C_12  and  C_23
REMARK    7  A    between atoms: C_14  and  O_22
REMARK    8  A    between atoms: C_16  and  O_21
REMARK    9  A    between atoms: C_18  and  O_20
REMARK   10  A    between atoms: C_23  and  O_24
REMARK   11  A    between atoms: C_28  and  O_29
REMARK                            x       y       z     vdW  Elec       q    Type
REMARK                         _______ _______ _______ _____ _____    ______ ____
ROOT
ATOM      1  O   LIG A   1      -0.295  -0.716   0.058  0.00  0.00    -0.429 OA
ENDROOT
BRANCH   1   2
ATOM      2  C   LIG A   1      -0.979  -1.132   1.246  0.00  0.00    +0.343 C 
ATOM      3  O   LIG A   1      -0.291  -0.602   2.384  0.00  0.00    -0.331 OA
ATOM      4  C   LIG A   1      -0.906  -0.969   3.619  0.00  0.00    +0.179 C 
ATOM      5  C   LIG A   1      -0.854  -2.496   3.800  0.00  0.00    +0.177 C 
ATOM      6  C   LIG A   1      -1.540  -3.167   2.608  0.00  0.00    +0.180 C 
ATOM      7  C   LIG A   1      -0.970  -2.672   1.280  0.00  0.00    +0.214 C 
BRANCH   7   8
ATOM      8  O   LIG A   1      -1.752  -3.223   0.209  0.00  0.00    -0.383 OA
ATOM      9  H   LIG A   1      -1.806  -4.181   0.400  0.00  0.00    +0.210 HD
ENDBRANCH   7   8
BRANCH   6  10
ATOM     10  O   LIG A   1      -1.383  -4.593   2.687  0.00  0.00    -0.386 OA
ATOM     11  H   LIG A   1      -1.607  -4.819   3.613  0.00  0.00    +0.210 HD
ENDBRANCH   6  10
BRANCH   5  12
ATOM     12  O   LIG A   1      -1.518  -2.936   4.989  0.00  0.00    -0.387 OA
ATOM     13  H   LIG A   1      -1.155  -2.394   5.726  0.00  0.00    +0.210 HD
ENDBRANCH   5  12
BRANCH   4  14
ATOM     14  C   LIG A   1      -0.171  -0.242   4.751  0.00  0.00    +0.190 C 
BRANCH  14  15
ATOM     15  O   LIG A   1      -0.740  -0.559   6.018  0.00  0.00    -0.392 OA
ATOM     16  H   LIG A   1      -1.516   0.022   6.135  0.00  0.00    +0.209 HD
ENDBRANCH  14  15
ENDBRANCH   4  14
ENDBRANCH   1   2
BRANCH   1  17
ATOM     17  C   LIG A   1      -0.579   0.549  -0.322  0.00  0.00    +0.334 C 
ATOM     18  O   LIG A   1      -1.339   1.333   0.223  0.00  0.00    -0.245 OA
BRANCH  17  20
ATOM     19  C   LIG A   1       0.114   2.034  -2.128  0.00  0.00    +0.015 C 
ATOM     20  C   LIG A   1       0.199   0.829  -1.544  0.00  0.00    +0.092 C 
BRANCH  19  23
ATOM     21  C   LIG A   1       2.727   2.262  -4.862  0.00  0.00    +0.159 A 
ATOM     22  C   LIG A   1       2.078   1.859  -3.693  0.00  0.00    +0.057 A 
ATOM     23  C   LIG A   1       0.831   2.407  -3.354  0.00  0.00    -0.021 A 
ATOM     24  C   LIG A   1       0.267   3.382  -4.192  0.00  0.00    +0.012 A 
ATOM     25  C   LIG A   1       0.920   3.784  -5.362  0.00  0.00    +0.050 A 
ATOM     26  C   LIG A   1       2.147   3.219  -5.692  0.00  0.00    +0.158 A 
BRANCH  21  27
ATOM     27  O   LIG A   1       3.937   1.722  -5.197  0.00  0.00    -0.503 OA
ATOM     28  H   LIG A   1       4.200   1.084  -4.517  0.00  0.00    +0.292 HD
ENDBRANCH  21  27
BRANCH  26  29
ATOM     29  O   LIG A   1       2.800   3.599  -6.833  0.00  0.00    -0.503 OA
ATOM     30  H   LIG A   1       2.269   4.266  -7.295  0.00  0.00    +0.292 HD
ENDBRANCH  26  29
ENDBRANCH  19  23
ENDBRANCH  17  20
ENDBRANCH   1  17
TORSDOF 11
