@<TRIPOS>MOLECULE
NuBBE_1032
 36 36 0 0 0
SMALL
GASTEIGER

@<TRIPOS>ATOM
      1 O          -2.2793    1.0786   -0.1174 O.3     1  LIG1       -0.3608
      2 C          -1.4678    0.2181    0.6796 C.3     1  LIG1        0.2207
      3 C          -1.0065   -0.9845   -0.1717 C.3     1  LIG1        0.1041
      4 O          -0.2911   -0.5242   -1.3393 O.3     1  LIG1       -0.3744
      5 C           0.2041   -1.6283   -2.1027 C.3     1  LIG1        0.0479
      6 C           0.9737   -1.1313   -3.3247 C.3     1  LIG1       -0.0297
      7 C           2.2068   -0.3175   -2.9295 C.3     1  LIG1       -0.0538
      8 C           2.9975    0.1291   -4.1486 C.3     1  LIG1       -0.0652
      9 O          -0.3377    1.0045    1.1115 O.3     1  LIG1       -0.3364
     10 C          -0.5397    1.3289    2.4986 C.3     1  LIG1        0.1134
     11 H          -1.1629    2.2332    2.5518 H       1  LIG1        0.0647
     12 C           0.8126    1.6088    3.1414 C.3     1  LIG1        0.0730
     13 O           1.4310    2.7125    2.4739 O.3     1  LIG1       -0.3924
     14 C          -1.2577    0.1220    3.0695 C.3     1  LIG1        0.1144
     15 H          -0.5699   -0.7254    3.1973 H       1  LIG1        0.0648
     16 O          -1.8997    0.3364    4.3157 O.3     1  LIG1       -0.3864
     17 C          -2.2483   -0.1848    1.9536 C.3     1  LIG1        0.1392
     18 H          -3.1581    0.4198    2.0661 H       1  LIG1        0.0675
     19 O          -2.6579   -1.5521    2.0188 O.3     1  LIG1       -0.3837
     20 H          -1.7809    1.1470   -0.9539 H       1  LIG1        0.2129
     21 H          -1.8791   -1.5463   -0.5244 H       1  LIG1        0.0614
     22 H          -0.3488   -1.6355    0.4148 H       1  LIG1        0.0614
     23 H          -0.6402   -2.2434   -2.4330 H       1  LIG1        0.0560
     24 H           0.8645   -2.2423   -1.4791 H       1  LIG1        0.0560
     25 H           0.3173   -0.5123   -3.9483 H       1  LIG1        0.0287
     26 H           1.2816   -1.9951   -3.9267 H       1  LIG1        0.0287
     27 H           2.8561   -0.9202   -2.2837 H       1  LIG1        0.0263
     28 H           1.9057    0.5655   -2.3550 H       1  LIG1        0.0263
     29 H           3.3872   -0.7327   -4.6998 H       1  LIG1        0.0230
     30 H           3.8470    0.7473   -3.8414 H       1  LIG1        0.0230
     31 H           2.3745    0.7195   -4.8277 H       1  LIG1        0.0230
     32 H           1.4858    0.7525    3.0381 H       1  LIG1        0.0584
     33 H           0.7124    1.8595    4.2008 H       1  LIG1        0.0584
     34 H           1.3630    2.5160    1.5206 H       1  LIG1        0.2095
     35 H          -2.5253    1.0817    4.2248 H       1  LIG1        0.2100
     36 H          -2.9697   -1.7047    2.9301 H       1  LIG1        0.2101
@<TRIPOS>BOND
     1     1     2    1
     2     2     3    1
     3     3     4    1
     4     4     5    1
     5     5     6    1
     6     6     7    1
     7     7     8    1
     8     2     9    1
     9     9    10    1
    10    10    11    1
    11    10    12    1
    12    12    13    1
    13    10    14    1
    14    14    17    1
    15    17    18    1
    16     2    17    1
    17    17    19    1
    18    14    16    1
    19    14    15    1
    20     1    20    1
    21     3    21    1
    22     3    22    1
    23     5    23    1
    24     5    24    1
    25     6    25    1
    26     6    26    1
    27     7    27    1
    28     7    28    1
    29     8    29    1
    30     8    30    1
    31     8    31    1
    32    12    32    1
    33    12    33    1
    34    13    34    1
    35    16    35    1
    36    19    36    1
