REMARK  Name = NuBBE_1141
REMARK  4 active torsions:
REMARK  status: ('A' for Active; 'I' for Inactive)
REMARK    1  A    between atoms: C_1  and  N_2
REMARK    2  A    between atoms: C_3  and  C_27
REMARK    3  A    between atoms: C_27  and  C_28
REMARK    4  A    between atoms: C_28  and  C_29
REMARK                            x       y       z     vdW  Elec       q    Type
REMARK                         _______ _______ _______ _____ _____    ______ ____
ROOT
ATOM      1  C   LIG A   1      -1.967  -1.327  -1.671  0.00  0.00    +0.130 C 
ATOM      2  N   LIG A   1      -0.870  -0.861  -0.846  0.00  0.00    -0.325 N 
ATOM      3  C   LIG A   1      -0.338  -1.839   0.139  0.00  0.00    +0.111 C 
ATOM      4  C   LIG A   1       1.176  -1.768   0.122  0.00  0.00    -0.015 A 
ATOM      5  C   LIG A   1       1.960  -2.930   0.246  0.00  0.00    +0.055 A 
ATOM      6  C   LIG A   1       3.328  -2.787   0.225  0.00  0.00    +0.167 A 
ATOM      7  C   LIG A   1       3.918  -1.556   0.085  0.00  0.00    +0.167 A 
ATOM      8  C   LIG A   1       3.175  -0.400  -0.042  0.00  0.00    +0.058 A 
ATOM      9  C   LIG A   1       1.770  -0.490  -0.017  0.00  0.00    -0.007 A 
ATOM     10  C   LIG A   1       0.870   0.677  -0.171  0.00  0.00    +0.004 A 
ATOM     11  C   LIG A   1      -0.468   0.482  -0.671  0.00  0.00    +0.046 A 
ATOM     12  C   LIG A   1      -1.293   1.649  -0.919  0.00  0.00    +0.007 A 
ATOM     13  C   LIG A   1      -0.772   2.939  -0.553  0.00  0.00    -0.012 A 
ATOM     14  C   LIG A   1       0.498   3.066   0.002  0.00  0.00    +0.009 A 
ATOM     15  C   LIG A   1       1.311   1.959   0.178  0.00  0.00    +0.011 A 
ATOM     16  C   LIG A   1      -1.508   4.125  -0.725  0.00  0.00    +0.058 A 
ATOM     17  C   LIG A   1      -2.757   4.053  -1.283  0.00  0.00    +0.167 A 
ATOM     18  C   LIG A   1      -3.290   2.854  -1.654  0.00  0.00    +0.167 A 
ATOM     19  O   LIG A   1      -4.530   2.983  -2.198  0.00  0.00    -0.453 OA
ATOM     20  C   LIG A   1      -4.701   4.415  -2.142  0.00  0.00    +0.466 C 
ATOM     21  O   LIG A   1      -3.587   5.098  -1.532  0.00  0.00    -0.453 OA
ATOM     22  C   LIG A   1      -2.606   1.666  -1.475  0.00  0.00    +0.060 A 
ATOM     23  O   LIG A   1       5.276  -1.628   0.080  0.00  0.00    -0.453 OA
ATOM     24  C   LIG A   1       5.472  -3.050   0.230  0.00  0.00    +0.466 C 
ATOM     25  O   LIG A   1       4.237  -3.791   0.327  0.00  0.00    -0.453 OA
ENDROOT
BRANCH   3  26
ATOM     26  C   LIG A   1      -0.944  -1.575   1.525  0.00  0.00    +0.101 C 
BRANCH  26  27
ATOM     27  C   LIG A   1      -0.425  -2.559   2.543  0.00  0.00    +0.132 C 
ATOM     28  C   LIG A   1       0.367  -1.992   3.696  0.00  0.00    +0.086 C 
ATOM     29  O   LIG A   1      -0.640  -3.763   2.440  0.00  0.00    -0.298 OA
ENDBRANCH  26  27
ENDBRANCH   3  26
TORSDOF 2
