REMARK  Name = NuBBE_1451
REMARK  6 active torsions:
REMARK  status: ('A' for Active; 'I' for Inactive)
REMARK    1  A    between atoms: C_9  and  C_10
REMARK    2  A    between atoms: C_10  and  C_11
REMARK    3  A    between atoms: C_20  and  O_21
REMARK    4  A    between atoms: O_21  and  C_22
REMARK    5  A    between atoms: C_23  and  O_24
REMARK    6  A    between atoms: O_24  and  C_25
REMARK                            x       y       z     vdW  Elec       q    Type
REMARK                         _______ _______ _______ _____ _____    ______ ____
ROOT
ATOM      1  O   LIG A   1      -2.577  -0.880  -0.474  0.00  0.00    -0.286 OA
ATOM      2  C   LIG A   1      -1.412  -0.620  -0.215  0.00  0.00    +0.201 A 
ATOM      3  C   LIG A   1      -0.369  -1.642  -0.419  0.00  0.00    +0.065 A 
ATOM      4  C   LIG A   1      -0.684  -2.876  -1.019  0.00  0.00    +0.019 A 
ATOM      5  C   LIG A   1       0.323  -3.814  -1.261  0.00  0.00    +0.047 A 
ATOM      6  C   LIG A   1       1.614  -3.486  -0.896  0.00  0.00    +0.128 A 
ATOM      7  C   LIG A   1       1.923  -2.288  -0.276  0.00  0.00    +0.041 A 
ATOM      8  C   LIG A   1       3.364  -2.264   0.063  0.00  0.00    +0.091 C 
ATOM      9  C   LIG A   1       3.844  -3.480  -0.753  0.00  0.00    +0.203 C 
ATOM     10  O   LIG A   1       2.694  -4.301  -1.100  0.00  0.00    -0.484 OA
ATOM     11  C   LIG A   1       0.936  -1.351  -0.030  0.00  0.00    +0.146 A 
ATOM     12  O   LIG A   1       1.286  -0.181   0.577  0.00  0.00    -0.455 OA
ATOM     13  C   LIG A   1       0.343   0.828   0.634  0.00  0.00    +0.154 A 
ATOM     14  C   LIG A   1      -0.948   0.710   0.275  0.00  0.00    +0.074 A 
ATOM     15  C   LIG A   1      -1.774   1.931   0.344  0.00  0.00    +0.035 A 
ATOM     16  C   LIG A   1      -3.171   1.938   0.226  0.00  0.00    +0.061 A 
ATOM     17  C   LIG A   1      -3.888   3.144   0.165  0.00  0.00    +0.162 A 
ATOM     18  C   LIG A   1      -3.212   4.372   0.270  0.00  0.00    +0.165 A 
ATOM     19  C   LIG A   1      -1.827   4.370   0.429  0.00  0.00    +0.095 A 
ATOM     20  C   LIG A   1      -1.124   3.165   0.471  0.00  0.00    +0.133 A 
ATOM     21  O   LIG A   1       0.237   3.286   0.582  0.00  0.00    -0.484 OA
ATOM     22  C   LIG A   1       0.893   2.136   1.123  0.00  0.00    +0.303 C 
ENDROOT
BRANCH   9  23
ATOM     23  C   LIG A   1       4.873  -4.325  -0.028  0.00  0.00    -0.040 C 
ATOM     24  C   LIG A   1       4.360  -5.439   0.844  0.00  0.00    +0.042 C 
ATOM     25  C   LIG A   1       6.192  -4.103  -0.164  0.00  0.00    +0.011 C 
ENDBRANCH   9  23
BRANCH  17  26
ATOM     26  O   LIG A   1      -5.255   3.199   0.032  0.00  0.00    -0.491 OA
ATOM     27  C   LIG A   1      -5.855   2.119  -0.675  0.00  0.00    +0.277 C 
ENDBRANCH  17  26
BRANCH  18  28
ATOM     28  O   LIG A   1      -3.977   5.508   0.182  0.00  0.00    -0.491 OA
ATOM     29  C   LIG A   1      -3.297   6.755   0.248  0.00  0.00    +0.277 C 
ENDBRANCH  18  28
TORSDOF 3
