REMARK  Name = NuBBE_1465
REMARK  12 active torsions:
REMARK  status: ('A' for Active; 'I' for Inactive)
REMARK    1  A    between atoms: C_1  and  C_2
REMARK    2  A    between atoms: C_2  and  O_3
REMARK    3  A    between atoms: C_6  and  C_7
REMARK    4  A    between atoms: C_12  and  C_13
REMARK    5  A    between atoms: C_12  and  C_14
REMARK    6  A    between atoms: C_15  and  C_17
REMARK    7  A    between atoms: C_17  and  C_18
REMARK    8  A    between atoms: C_18  and  O_19
REMARK    9  A    between atoms: O_19  and  C_20
REMARK   10  A    between atoms: C_25  and  C_39
REMARK   11  A    between atoms: C_26  and  C_28
REMARK   12  A    between atoms: C_35  and  O_37
REMARK                            x       y       z     vdW  Elec       q    Type
REMARK                         _______ _______ _______ _____ _____    ______ ____
ROOT
ATOM      1  C   LIG A   1      -0.082  -2.546  -2.618  0.00  0.00    +0.090 C 
ATOM      2  C   LIG A   1      -0.373  -1.349  -1.701  0.00  0.00    +0.220 C 
ATOM      3  C   LIG A   1       0.223  -1.482  -0.226  0.00  0.00    +0.103 C 
ATOM      4  C   LIG A   1       0.325  -0.068   0.431  0.00  0.00    -0.044 C 
ATOM      5  C   LIG A   1       0.701   1.162  -0.427  0.00  0.00    +0.051 C 
ATOM      6  C   LIG A   1       2.219   1.052  -0.753  0.00  0.00    +0.024 C 
ATOM      7  C   LIG A   1      -0.027   0.992  -1.757  0.00  0.00    +0.115 C 
ATOM      8  O   LIG A   1       0.205  -0.219  -2.410  0.00  0.00    -0.464 OA
ATOM      9  C   LIG A   1      -0.851   1.882  -2.322  0.00  0.00    +0.088 C 
ATOM     10  C   LIG A   1      -1.311   3.082  -1.588  0.00  0.00    +0.165 C 
ATOM     11  C   LIG A   1      -1.079   3.120  -0.075  0.00  0.00    +0.032 C 
ATOM     12  C   LIG A   1      -1.342   4.550   0.450  0.00  0.00    +0.019 C 
ATOM     13  C   LIG A   1      -2.181   2.238   0.555  0.00  0.00    +0.019 C 
ATOM     14  C   LIG A   1       0.362   2.577   0.270  0.00  0.00    +0.030 C 
ATOM     15  O   LIG A   1      -1.969   3.930  -2.190  0.00  0.00    -0.292 OA
ATOM     16  C   LIG A   1       0.131  -0.169   1.760  0.00  0.00    -0.025 C 
ATOM     17  C   LIG A   1      -0.158  -1.577   2.196  0.00  0.00    +0.039 C 
ATOM     18  C   LIG A   1      -0.651  -2.241   0.882  0.00  0.00    +0.031 C 
ATOM     19  C   LIG A   1      -0.438  -3.780   0.840  0.00  0.00    +0.217 C 
ATOM     20  O   LIG A   1       0.932  -4.178   0.727  0.00  0.00    -0.454 OA
ATOM     21  C   LIG A   1       1.642  -3.634  -0.280  0.00  0.00    +0.338 C 
ATOM     22  C   LIG A   1       1.659  -2.116  -0.290  0.00  0.00    +0.240 C 
ATOM     23  O   LIG A   1       2.390  -4.302  -0.986  0.00  0.00    -0.248 OA
ATOM     24  C   LIG A   1      -2.185  -1.979   0.823  0.00  0.00    +0.017 C 
ENDROOT
BRANCH  19  25
ATOM     25  C   LIG A   1      -1.067  -4.540   1.984  0.00  0.00    +0.031 A 
ATOM     26  C   LIG A   1      -0.504  -4.854   3.207  0.00  0.00    +0.202 A 
ATOM     27  O   LIG A   1      -1.366  -5.570   3.974  0.00  0.00    -0.471 OA
ATOM     28  C   LIG A   1      -2.494  -5.745   3.242  0.00  0.00    +0.195 A 
ATOM     29  C   LIG A   1      -2.363  -5.143   2.013  0.00  0.00    +0.048 A 
ENDBRANCH  19  25
BRANCH   2  30
ATOM     30  O   LIG A   1      -1.791  -1.237  -1.747  0.00  0.00    -0.355 OA
ATOM     31  H   LIG A   1      -2.027  -0.408  -1.305  0.00  0.00    +0.214 HD
ENDBRANCH   2  30
BRANCH  22  32
ATOM     32  O   LIG A   1       2.502  -1.754   0.819  0.00  0.00    -0.380 OA
ATOM     33  H   LIG A   1       3.377  -2.157   0.661  0.00  0.00    +0.211 HD
ENDBRANCH  22  32
BRANCH  14  34
ATOM     34  C   LIG A   1       1.478   3.659   0.186  0.00  0.00    +0.126 C 
BRANCH  34  35
ATOM     35  C   LIG A   1       1.795   4.291  -1.133  0.00  0.00    +0.307 C 
ATOM     36  O   LIG A   1       0.982   4.435  -2.040  0.00  0.00    -0.251 OA
BRANCH  35  37
ATOM     37  O   LIG A   1       3.064   4.712  -1.205  0.00  0.00    -0.468 OA
ATOM     38  C   LIG A   1       3.393   5.576  -2.303  0.00  0.00    +0.280 C 
ENDBRANCH  35  37
ENDBRANCH  34  35
ENDBRANCH  14  34
TORSDOF 6
