@<TRIPOS>MOLECULE
NuBBE_171
 64 64 0 0 0
SMALL
GASTEIGER

@<TRIPOS>ATOM
      1 C           0.4523    1.6555    3.4646 C.3     1  LIG1       -0.0473
      2 C           0.6178    0.1421    3.3442 C.3     1  LIG1        0.0310
      3 H          -0.1265   -0.2147    2.6184 H       1  LIG1        0.0483
      4 C           0.3778   -0.5419    4.7089 C.3     1  LIG1        0.0703
      5 H          -0.6419   -0.2809    5.0614 H       1  LIG1        0.0609
      6 O           1.2477   -0.0090    5.6850 O.3     1  LIG1       -0.3903
      7 C           0.5086   -2.0427    4.5233 C.3     1  LIG1       -0.0240
      8 C           1.8608   -2.4287    3.8692 C.3     1  LIG1       -0.0352
      9 C           2.1045   -1.6364    2.5601 C.3     1  LIG1        0.0080
     10 H           1.3498   -1.9414    1.8222 H       1  LIG1        0.0460
     11 C           3.4900   -1.9136    1.9220 C.3     1  LIG1       -0.0375
     12 C           3.8649   -1.1678    0.6091 C.3     1  LIG1       -0.0516
     13 C           4.1386    0.3544    0.6124 C.3     1  LIG1       -0.0530
     14 C           2.9768    1.3747    0.6108 C.3     1  LIG1       -0.0531
     15 C           1.9101    1.1809   -0.4849 C.3     1  LIG1       -0.0531
     16 C           0.6780    2.0948   -0.3265 C.3     1  LIG1       -0.0531
     17 C          -0.4650    1.8637   -1.3379 C.3     1  LIG1       -0.0531
     18 C          -0.2012    2.2386   -2.7993 C.3     1  LIG1       -0.0531
     19 C          -1.4427    2.1035   -3.7324 C.3     1  LIG1       -0.0531
     20 C          -2.1895    0.7476   -3.6947 C.3     1  LIG1       -0.0530
     21 C          -3.4584    0.7057   -4.5765 C.3     1  LIG1       -0.0507
     22 C          -4.1718   -0.6563   -4.7398 C.3     1  LIG1       -0.0271
     23 C          -4.9063   -1.3038   -3.5519 C.3     1  LIG1        0.0524
     24 O          -5.4489   -2.5404   -4.0442 O.3     1  LIG1       -0.3921
     25 C          -4.0640   -1.6109   -2.3247 C.3     1  LIG1       -0.0389
     26 N           1.9509   -0.2211    2.8576 N.3     1  LIG1       -0.3083
     27 H           2.6622    0.0965    3.5233 H       1  LIG1        0.1225
     28 H           1.1594    2.1089    4.1609 H       1  LIG1        0.0245
     29 H          -0.5663    1.8984    3.7867 H       1  LIG1        0.0245
     30 H           0.5975    2.1583    2.5068 H       1  LIG1        0.0245
     31 H           1.9752   -0.6963    5.8653 H       1  LIG1        0.2098
     32 H          -0.3005   -2.4008    3.8941 H       1  LIG1        0.0291
     33 H           0.4227   -2.5437    5.5034 H       1  LIG1        0.0291
     34 H           1.8583   -3.5076    3.6696 H       1  LIG1        0.0281
     35 H           2.6757   -2.2443    4.5785 H       1  LIG1        0.0281
     36 H           3.5156   -2.9868    1.6712 H       1  LIG1        0.0280
     37 H           4.2950   -1.7750    2.6562 H       1  LIG1        0.0280
     38 H           3.1654   -1.4334   -0.1895 H       1  LIG1        0.0266
     39 H           4.8224   -1.6201    0.2978 H       1  LIG1        0.0266
     40 H           4.7177    0.5693   -0.2976 H       1  LIG1        0.0265
     41 H           4.8168    0.5838    1.4451 H       1  LIG1        0.0265
     42 H           3.4105    2.3803    0.5243 H       1  LIG1        0.0265
     43 H           2.5127    1.4185    1.5862 H       1  LIG1        0.0265
     44 H           1.5587    0.1450   -0.4696 H       1  LIG1        0.0265
     45 H           2.3799    1.3703   -1.4535 H       1  LIG1        0.0265
     46 H           0.9719    3.1508   -0.2852 H       1  LIG1        0.0265
     47 H           0.2205    1.8649    0.6375 H       1  LIG1        0.0265
     48 H          -1.3328    2.4388   -0.9884 H       1  LIG1        0.0265
     49 H          -0.7428    0.8067   -1.2836 H       1  LIG1        0.0265
     50 H           0.6193    1.6299   -3.1933 H       1  LIG1        0.0265
     51 H           0.1367    3.2837   -2.8400 H       1  LIG1        0.0265
     52 H          -1.1111    2.2990   -4.7608 H       1  LIG1        0.0265
     53 H          -2.1497    2.9039   -3.4797 H       1  LIG1        0.0265
     54 H          -2.4835    0.5688   -2.6633 H       1  LIG1        0.0265
     55 H          -1.5053   -0.0514   -3.9991 H       1  LIG1        0.0265
     56 H          -3.1732    1.0222   -5.5897 H       1  LIG1        0.0266
     57 H          -4.1852    1.4450   -4.2204 H       1  LIG1        0.0266
     58 H          -3.4840   -1.3861   -5.1869 H       1  LIG1        0.0290
     59 H          -4.9429   -0.5133   -5.5154 H       1  LIG1        0.0290
     60 H          -5.7579   -0.6811   -3.2560 H       1  LIG1        0.0590
     61 H          -5.5926   -3.1451   -3.2951 H       1  LIG1        0.2098
     62 H          -3.1753   -2.1925   -2.5891 H       1  LIG1        0.0254
     63 H          -4.6330   -2.2147   -1.6071 H       1  LIG1        0.0254
     64 H          -3.7703   -0.7025   -1.8001 H       1  LIG1        0.0254
@<TRIPOS>BOND
     1     2     4    1
     2     4     7    1
     3     7     8    1
     4     8     9    1
     5     9    10    1
     6     9    11    1
     7    11    12    1
     8    12    13    1
     9    13    14    1
    10    14    15    1
    11    15    16    1
    12    16    17    1
    13    17    18    1
    14    18    19    1
    15    19    20    1
    16    20    21    1
    17    21    22    1
    18    22    23    1
    19    23    24    1
    20    23    25    1
    21     9    26    1
    22     2    26    1
    23    26    27    1
    24     2     3    1
    25     2     1    1
    26     4     6    1
    27     4     5    1
    28     1    28    1
    29     1    29    1
    30     1    30    1
    31     6    31    1
    32     7    32    1
    33     7    33    1
    34     8    34    1
    35     8    35    1
    36    11    36    1
    37    11    37    1
    38    12    38    1
    39    12    39    1
    40    13    40    1
    41    13    41    1
    42    14    42    1
    43    14    43    1
    44    15    44    1
    45    15    45    1
    46    16    46    1
    47    16    47    1
    48    17    48    1
    49    17    49    1
    50    18    50    1
    51    18    51    1
    52    19    52    1
    53    19    53    1
    54    20    54    1
    55    20    55    1
    56    21    56    1
    57    21    57    1
    58    22    58    1
    59    22    59    1
    60    23    60    1
    61    24    61    1
    62    25    62    1
    63    25    63    1
    64    25    64    1
