@<TRIPOS>MOLECULE
NuBBE_2493
 54 56 0 0 0
SMALL
GASTEIGER

@<TRIPOS>ATOM
      1 C           0.5322    5.4446    0.9588 C.2     1  LIG1       -0.1021
      2 C          -0.3464    4.6176    1.5426 C.2     1  LIG1       -0.0851
      3 C          -0.8269    3.2466    1.0545 C.3     1  LIG1       -0.0117
      4 C          -2.3230    3.4252    0.7196 C.3     1  LIG1       -0.0560
      5 C          -0.6553    2.2519    2.2253 C.3     1  LIG1       -0.0437
      6 C          -0.9344    0.7930    1.8506 C.3     1  LIG1       -0.0463
      7 C          -0.0439    0.3299    0.6790 C.3     1  LIG1       -0.0064
      8 C          -0.1365   -1.2215    0.3420 C.3     1  LIG1       -0.0225
      9 C          -1.5849   -1.6259   -0.0212 C.3     1  LIG1       -0.0589
     10 C           0.3026   -2.0424    1.5854 C.3     1  LIG1       -0.0403
     11 C           0.4666   -3.5314    1.3189 C.3     1  LIG1        0.0069
     12 C           1.4016   -3.8029    0.1665 C.2     1  LIG1        0.1392
     13 O           2.2152   -4.7265    0.2519 O.2     1  LIG1       -0.2968
     14 C           1.1989   -3.0118   -1.1373 C.3     1  LIG1        0.0267
     15 C           0.1160   -3.7152   -1.9679 C.3     1  LIG1       -0.0528
     16 C           2.5217   -3.1101   -1.9433 C.3     1  LIG1       -0.0528
     17 C           0.9098   -1.5076   -0.8018 C.3     1  LIG1       -0.0234
     18 C           0.6305   -0.6304   -2.0409 C.3     1  LIG1       -0.0462
     19 C           0.6912    0.8585   -1.6946 C.3     1  LIG1       -0.0234
     20 C          -0.2608    1.2511   -0.5528 C.3     1  LIG1        0.0702
     21 O          -1.5940    1.1103   -1.0400 O.3     1  LIG1       -0.3883
     22 C          -0.0270    2.7328   -0.1750 C.3     1  LIG1       -0.0149
     23 H           0.7765    6.3975    1.4203 H       1  LIG1        0.0532
     24 H           1.0243    5.2177    0.0201 H       1  LIG1        0.0532
     25 H          -0.7914    4.9572    2.4799 H       1  LIG1        0.0572
     26 H          -2.8292    2.4808    0.5078 H       1  LIG1        0.0238
     27 H          -2.4566    4.0759   -0.1528 H       1  LIG1        0.0238
     28 H          -2.8668    3.8837    1.5552 H       1  LIG1        0.0238
     29 H          -1.3113    2.5301    3.0611 H       1  LIG1        0.0274
     30 H           0.3716    2.3142    2.6125 H       1  LIG1        0.0274
     31 H          -1.9960    0.6769    1.6140 H       1  LIG1        0.0269
     32 H          -0.7439    0.1854    2.7408 H       1  LIG1        0.0269
     33 H           0.9931    0.5007    1.0109 H       1  LIG1        0.0334
     34 H          -2.3048   -1.2406    0.7065 H       1  LIG1        0.0235
     35 H          -1.7377   -2.7050   -0.0172 H       1  LIG1        0.0235
     36 H          -1.8935   -1.2756   -1.0076 H       1  LIG1        0.0235
     37 H          -0.4222   -1.9273    2.3993 H       1  LIG1        0.0275
     38 H           1.2581   -1.6502    1.9588 H       1  LIG1        0.0275
     39 H          -0.4882   -4.0241    1.1163 H       1  LIG1        0.0342
     40 H           0.8837   -4.0038    2.2164 H       1  LIG1        0.0342
     41 H           0.4430   -4.7235   -2.2521 H       1  LIG1        0.0239
     42 H          -0.1026   -3.1752   -2.8942 H       1  LIG1        0.0239
     43 H          -0.8178   -3.8551   -1.4240 H       1  LIG1        0.0239
     44 H           2.8139   -4.1537   -2.1127 H       1  LIG1        0.0239
     45 H           3.3488   -2.6299   -1.4079 H       1  LIG1        0.0239
     46 H           2.4390   -2.6478   -2.9314 H       1  LIG1        0.0239
     47 H           1.8672   -1.1371   -0.3971 H       1  LIG1        0.0315
     48 H          -0.3401   -0.8705   -2.4862 H       1  LIG1        0.0269
     49 H           1.3754   -0.8095   -2.8219 H       1  LIG1        0.0269
     50 H           0.4496    1.4298   -2.5999 H       1  LIG1        0.0293
     51 H           1.7244    1.1119   -1.4240 H       1  LIG1        0.0293
     52 H          -1.7073    1.7100   -1.7978 H       1  LIG1        0.2102
     53 H          -0.2589    3.3665   -1.0422 H       1  LIG1        0.0301
     54 H           1.0462    2.8550    0.0292 H       1  LIG1        0.0301
@<TRIPOS>BOND
     1     1     2    2
     2     3     5    1
     3     5     6    1
     4     6     7    1
     5     7     8    1
     6     8     9    1
     7     8    10    1
     8    10    11    1
     9    11    12    1
    10    12    13    2
    11    12    14    1
    12    14    15    1
    13    14    16    1
    14    14    17    1
    15     8    17    1
    16    17    18    1
    17    18    19    1
    18    19    20    1
    19     7    20    1
    20    20    21    1
    21    20    22    1
    22     3    22    1
    23     3     4    1
    24     3     2    1
    25     1    23    1
    26     1    24    1
    27     2    25    1
    28     4    26    1
    29     4    27    1
    30     4    28    1
    31     5    29    1
    32     5    30    1
    33     6    31    1
    34     6    32    1
    35     7    33    1
    36     9    34    1
    37     9    35    1
    38     9    36    1
    39    10    37    1
    40    10    38    1
    41    11    39    1
    42    11    40    1
    43    15    41    1
    44    15    42    1
    45    15    43    1
    46    16    44    1
    47    16    45    1
    48    16    46    1
    49    17    47    1
    50    18    48    1
    51    18    49    1
    52    19    50    1
    53    19    51    1
    54    21    52    1
    55    22    53    1
    56    22    54    1
