@<TRIPOS>MOLECULE
NuBBE_1770
 34 36 0 0 0
SMALL
GASTEIGER

@<TRIPOS>ATOM
      1 C           0.5470   -1.8546    0.0333 C.2     1  LIG1        0.2308
      2 O          -0.0136   -2.9510   -0.0141 O.2     1  LIG1       -0.2833
      3 C          -0.2197   -0.5645    0.0595 C.2     1  LIG1        0.1687
      4 C          -1.5162   -0.6225    0.4085 C.2     1  LIG1       -0.0084
      5 C          -2.3460    0.5741    0.3140 C.ar    1  LIG1       -0.0114
      6 C          -1.7084    1.8010    0.0727 C.ar    1  LIG1        0.0005
      7 C          -0.2049    1.8241    0.0283 C.3     1  LIG1        0.1155
      8 O           0.4105    0.5900   -0.3653 O.2     1  LIG1       -0.4835
      9 C          -2.4621    2.9783   -0.0448 C.ar    1  LIG1       -0.0096
     10 C          -3.8456    2.9067    0.0617 C.ar    1  LIG1        0.1586
     11 C          -4.4730    1.6856    0.3007 C.ar    1  LIG1        0.1588
     12 C          -3.7364    0.5167    0.4339 C.ar    1  LIG1       -0.0089
     13 O          -5.8339    1.6294    0.4022 O.3     1  LIG1       -0.5033
     14 O          -4.6382    4.0145   -0.0574 O.3     1  LIG1       -0.5033
     15 C           2.0308   -1.8218   -0.0161 C.ar    1  LIG1        0.0669
     16 C           2.7172   -2.8269   -0.7163 C.ar    1  LIG1        0.1312
     17 O           2.0805   -3.8742   -1.3306 O.3     1  LIG1       -0.5059
     18 C           4.1074   -2.8046   -0.8203 C.ar    1  LIG1        0.0220
     19 C           4.8178   -1.7887   -0.1905 C.ar    1  LIG1        0.1204
     20 C           4.1622   -0.8117    0.5506 C.ar    1  LIG1       -0.0193
     21 C           2.7684   -0.8295    0.6446 C.ar    1  LIG1       -0.0438
     22 O           6.1769   -1.7176   -0.2685 O.3     1  LIG1       -0.5066
     23 H          -1.9902   -1.5553    0.7002 H       1  LIG1        0.0661
     24 H           0.1818    2.0941    1.0185 H       1  LIG1        0.0748
     25 H           0.1358    2.5842   -0.6831 H       1  LIG1        0.0748
     26 H          -1.9635    3.9269   -0.2173 H       1  LIG1        0.0659
     27 H          -4.2503   -0.4227    0.6149 H       1  LIG1        0.0661
     28 H          -6.1304    2.5506    0.2609 H       1  LIG1        0.2923
     29 H          -4.0687    4.7820   -0.2374 H       1  LIG1        0.2923
     30 H           1.1498   -3.8880   -1.0122 H       1  LIG1        0.2922
     31 H           4.6097   -3.5842   -1.3835 H       1  LIG1        0.0691
     32 H           4.7354   -0.0368    1.0527 H       1  LIG1        0.0654
     33 H           2.2780   -0.0658    1.2411 H       1  LIG1        0.0627
     34 H           6.4917   -2.4375   -0.8409 H       1  LIG1        0.2921
@<TRIPOS>BOND
     1     1     2    2
     2     1     3    1
     3     3     4    2
     4     4     5    1
     5     5     6   ar
     6     6     7    1
     7     7     8    1
     8     3     8    1
     9     6     9   ar
    10     9    10   ar
    11    10    11   ar
    12    11    12   ar
    13     5    12   ar
    14    11    13    1
    15    10    14    1
    16     1    15    1
    17    15    16   ar
    18    16    17    1
    19    16    18   ar
    20    18    19   ar
    21    19    20   ar
    22    20    21   ar
    23    15    21   ar
    24    19    22    1
    25     4    23    1
    26     7    24    1
    27     7    25    1
    28     9    26    1
    29    12    27    1
    30    13    28    1
    31    14    29    1
    32    17    30    1
    33    18    31    1
    34    20    32    1
    35    21    33    1
    36    22    34    1
