@<TRIPOS>MOLECULE
NuBBE_2375
 48 50 0 0 0
SMALL
GASTEIGER

@<TRIPOS>ATOM
      1 C          -0.0639    3.4619    0.7190 C.3     1  LIG1       -0.0281
      2 C          -0.2114    1.9152    0.4081 C.3     1  LIG1       -0.0141
      3 H          -1.2431    1.6686    0.7166 H       1  LIG1        0.0351
      4 C          -0.2494    1.6808   -1.1074 C.2     1  LIG1       -0.0654
      5 C          -1.0986    2.4479   -1.8211 C.2     1  LIG1       -0.0842
      6 C          -1.8636    3.5551   -1.1714 C.3     1  LIG1       -0.0340
      7 C          -0.9502    4.3415   -0.2316 C.3     1  LIG1       -0.0439
      8 C           0.5903    0.6529   -1.8225 C.3     1  LIG1       -0.0022
      9 C           0.4377   -0.7252   -1.2584 C.2     1  LIG1        0.0103
     10 C           0.9188   -1.0581   -0.0503 C.2     1  LIG1       -0.0397
     11 C           0.7960   -2.3939    0.4906 C.2     1  LIG1       -0.0510
     12 C           0.1673   -3.4076   -0.1272 C.2     1  LIG1        0.0060
     13 C           0.0717   -4.7925    0.4817 C.3     1  LIG1       -0.0178
     14 C          -1.3682   -5.1911    0.8129 C.3     1  LIG1       -0.0585
     15 C           0.7608   -5.8582   -0.3747 C.3     1  LIG1       -0.0585
     16 C          -0.4492   -3.1384   -1.4592 C.2     1  LIG1        0.2289
     17 O          -1.0958   -3.9864   -2.0591 O.2     1  LIG1       -0.2835
     18 C          -0.2468   -1.7568   -2.0779 C.2     1  LIG1        0.2292
     19 O          -0.6331   -1.5288   -3.2165 O.2     1  LIG1       -0.2835
     20 C           1.6077   -0.0149    0.7920 C.3     1  LIG1       -0.0267
     21 C           0.6315    1.0085    1.3653 C.3     1  LIG1       -0.0420
     22 C          -0.4977    3.7682    2.1713 C.3     1  LIG1       -0.0593
     23 C           1.4054    3.9137    0.5474 C.3     1  LIG1       -0.0593
     24 H          -1.2181    2.3171   -2.8940 H       1  LIG1        0.0572
     25 H          -2.7285    3.1487   -0.6349 H       1  LIG1        0.0308
     26 H          -2.2537    4.2325   -1.9398 H       1  LIG1        0.0308
     27 H          -1.5677    5.0446    0.3416 H       1  LIG1        0.0274
     28 H          -0.3034    4.9755   -0.8547 H       1  LIG1        0.0274
     29 H           1.6414    0.9655   -1.7792 H       1  LIG1        0.0360
     30 H           0.3651    0.6523   -2.8963 H       1  LIG1        0.0360
     31 H           1.2498   -2.5697    1.4649 H       1  LIG1        0.0624
     32 H           0.6113   -4.7791    1.4395 H       1  LIG1        0.0345
     33 H          -1.9734   -5.3447   -0.0857 H       1  LIG1        0.0235
     34 H          -1.8568   -4.4247    1.4246 H       1  LIG1        0.0235
     35 H          -1.3827   -6.1279    1.3810 H       1  LIG1        0.0235
     36 H           0.2307   -6.0416   -1.3144 H       1  LIG1        0.0235
     37 H           0.8067   -6.8102    0.1657 H       1  LIG1        0.0235
     38 H           1.7882   -5.5642   -0.6164 H       1  LIG1        0.0235
     39 H           2.3974    0.4922    0.2247 H       1  LIG1        0.0313
     40 H           2.1358   -0.4928    1.6278 H       1  LIG1        0.0313
     41 H           1.2062    1.6192    2.0678 H       1  LIG1        0.0274
     42 H          -0.0793    0.4655    2.0066 H       1  LIG1        0.0274
     43 H          -1.5348    3.4584    2.3418 H       1  LIG1        0.0235
     44 H          -0.4332    4.8425    2.3817 H       1  LIG1        0.0235
     45 H           0.1281    3.2647    2.9133 H       1  LIG1        0.0235
     46 H           1.7710    3.7018   -0.4633 H       1  LIG1        0.0235
     47 H           2.0787    3.4194    1.2538 H       1  LIG1        0.0235
     48 H           1.5050    4.9925    0.7164 H       1  LIG1        0.0235
@<TRIPOS>BOND
     1     1     2    1
     2     2     3    1
     3     2     4    1
     4     4     5    2
     5     5     6    1
     6     6     7    1
     7     1     7    1
     8     4     8    1
     9     8     9    1
    10     9    10    2
    11    10    11    1
    12    11    12    2
    13    12    13    1
    14    13    14    1
    15    13    15    1
    16    12    16    1
    17    16    17    2
    18    16    18    1
    19     9    18    1
    20    18    19    2
    21    10    20    1
    22    20    21    1
    23     2    21    1
    24     1    22    1
    25     1    23    1
    26     5    24    1
    27     6    25    1
    28     6    26    1
    29     7    27    1
    30     7    28    1
    31     8    29    1
    32     8    30    1
    33    11    31    1
    34    13    32    1
    35    14    33    1
    36    14    34    1
    37    14    35    1
    38    15    36    1
    39    15    37    1
    40    15    38    1
    41    20    39    1
    42    20    40    1
    43    21    41    1
    44    21    42    1
    45    22    43    1
    46    22    44    1
    47    22    45    1
    48    23    46    1
    49    23    47    1
    50    23    48    1
