@<TRIPOS>MOLECULE
NuBBE_20
 44 45 0 0 0
SMALL
GASTEIGER

@<TRIPOS>ATOM
      1 C          -4.0017   -1.7843    2.2201 C.3     1  LIG1        0.0790
      2 O          -3.6096   -0.4279    2.4080 O.3     1  LIG1       -0.4913
      3 C          -2.9070    0.1580    1.3792 C.ar    1  LIG1        0.1654
      4 C          -3.0002    1.5635    1.2469 C.ar    1  LIG1        0.2035
      5 O          -3.8083    2.1873    2.1661 O.3     1  LIG1       -0.4885
      6 C          -4.5230    3.3486    1.7651 C.3     1  LIG1        0.0791
      7 C          -2.2394    2.2155    0.2576 C.ar    1  LIG1        0.1654
      8 O          -2.2190    3.5894    0.2161 O.3     1  LIG1       -0.4913
      9 C          -2.1663    4.1497   -1.0951 C.3     1  LIG1        0.0790
     10 C          -1.4156    1.4641   -0.5946 C.ar    1  LIG1       -0.0129
     11 C          -1.3316    0.0732   -0.4734 C.ar    1  LIG1       -0.0398
     12 C          -0.3659   -0.7094   -1.3365 C.3     1  LIG1       -0.0192
     13 C           0.9825   -0.8331   -0.6330 C.3     1  LIG1        0.0285
     14 C           2.0218   -1.5971   -1.4411 C.2     1  LIG1        0.2223
     15 N           3.3057   -1.7154   -0.8844 N.am    1  LIG1       -0.2383
     16 C           4.2805   -2.5019   -1.6561 C.3     1  LIG1        0.0260
     17 C           5.7471   -2.1508   -1.3916 C.3     1  LIG1       -0.0180
     18 C           6.0007   -1.8439    0.0408 C.2     1  LIG1       -0.0776
     19 C           5.0016   -1.5169    0.8754 C.2     1  LIG1       -0.0031
     20 C           3.5981   -1.3763    0.4340 C.2     1  LIG1        0.2454
     21 O           2.8171   -0.9429    1.2742 O.2     1  LIG1       -0.2702
     22 O           1.7307   -2.0968   -2.5298 O.2     1  LIG1       -0.2752
     23 C          -2.0696   -0.5691    0.5248 C.ar    1  LIG1       -0.0129
     24 H          -4.5219   -2.1138    3.1250 H       1  LIG1        0.0660
     25 H          -3.1488   -2.4573    2.0927 H       1  LIG1        0.0660
     26 H          -4.6968   -1.8701    1.3785 H       1  LIG1        0.0660
     27 H          -5.5852    3.1762    1.9651 H       1  LIG1        0.0660
     28 H          -4.4512    3.6073    0.7065 H       1  LIG1        0.0660
     29 H          -4.1971    4.1928    2.3810 H       1  LIG1        0.0660
     30 H          -2.4560    5.2019   -1.0190 H       1  LIG1        0.0660
     31 H          -2.8709    3.6574   -1.7756 H       1  LIG1        0.0660
     32 H          -1.1484    4.1170   -1.4954 H       1  LIG1        0.0660
     33 H          -0.7832    1.9553   -1.3250 H       1  LIG1        0.0658
     34 H          -0.2578   -0.2207   -2.3097 H       1  LIG1        0.0318
     35 H          -0.7824   -1.7047   -1.5356 H       1  LIG1        0.0318
     36 H           0.8122   -1.3745    0.3036 H       1  LIG1        0.0362
     37 H           1.3762    0.1668   -0.4166 H       1  LIG1        0.0362
     38 H           4.0818   -2.4139   -2.7326 H       1  LIG1        0.0472
     39 H           4.1079   -3.5515   -1.3905 H       1  LIG1        0.0472
     40 H           6.0479   -1.2846   -1.9975 H       1  LIG1        0.0323
     41 H           6.3779   -2.9912   -1.7029 H       1  LIG1        0.0323
     42 H           7.0160   -1.8705    0.4083 H       1  LIG1        0.0574
     43 H           5.1844   -1.2679    1.9175 H       1  LIG1        0.0666
     44 H          -1.9331   -1.6379    0.6496 H       1  LIG1        0.0658
@<TRIPOS>BOND
     1     1     2    1
     2     2     3    1
     3     3     4   ar
     4     4     5    1
     5     5     6    1
     6     4     7   ar
     7     7     8    1
     8     8     9    1
     9     7    10   ar
    10    10    11   ar
    11    11    12    1
    12    12    13    1
    13    13    14    1
    14    14    15   am
    15    15    16    1
    16    16    17    1
    17    17    18    1
    18    18    19    2
    19    19    20    1
    20    15    20   am
    21    20    21    2
    22    14    22    2
    23    11    23   ar
    24     3    23   ar
    25     1    24    1
    26     1    25    1
    27     1    26    1
    28     6    27    1
    29     6    28    1
    30     6    29    1
    31     9    30    1
    32     9    31    1
    33     9    32    1
    34    10    33    1
    35    12    34    1
    36    12    35    1
    37    13    36    1
    38    13    37    1
    39    16    38    1
    40    16    39    1
    41    17    40    1
    42    17    41    1
    43    18    42    1
    44    19    43    1
    45    23    44    1
