@<TRIPOS>MOLECULE
NuBBE_1464
 73 78 0 0 0
SMALL
GASTEIGER

@<TRIPOS>ATOM
      1 C           1.5974    2.4400   -2.0087 C.3     1  LIG1       -0.0236
      2 C           1.1395    1.8263   -0.7271 C.3     1  LIG1        0.1254
      3 C           0.5215    0.4520   -0.4776 C.3     1  LIG1        0.0705
      4 C           1.4757   -0.2317    0.5498 C.3     1  LIG1        0.0453
      5 C           2.4145   -1.1796   -0.2452 C.3     1  LIG1       -0.0515
      6 C           2.3718    0.9229    0.9869 C.2     1  LIG1        0.1089
      7 O           2.1415    2.0980    0.2981 O.2     1  LIG1       -0.4882
      8 C           3.2459    0.8757    1.9945 C.2     1  LIG1        0.0194
      9 C           3.0236   -0.2446    2.9264 C.2     1  LIG1        0.1652
     10 C           1.5433   -0.5541    3.2186 C.3     1  LIG1        0.0341
     11 C           0.9212    0.7398    3.8248 C.3     1  LIG1       -0.0524
     12 C           1.4490   -1.5672    4.3826 C.3     1  LIG1       -0.0524
     13 C           0.8198   -0.9396    1.8362 C.3     1  LIG1        0.0206
     14 H          -0.1971   -0.5200    1.9009 H       1  LIG1        0.0350
     15 C           0.5800   -2.4793    1.7092 C.3     1  LIG1        0.1561
     16 H          -0.0666   -2.7655    2.5523 H       1  LIG1        0.0714
     17 O          -0.2147   -2.7494    0.5554 O.3     1  LIG1       -0.3803
     18 C           1.8078   -3.4413    1.8115 C.2     1  LIG1        0.3361
     19 O           1.3452   -4.7124    1.6702 O.3     1  LIG1       -0.4661
     20 C           2.2428   -5.6677    2.2195 C.3     1  LIG1        0.0817
     21 O           2.9620   -3.1409    2.0942 O.2     1  LIG1       -0.2479
     22 O           3.9761   -0.7872    3.4716 O.2     1  LIG1       -0.2920
     23 C          -0.3309    1.7397   -0.2975 C.3     1  LIG1        0.0437
     24 C          -1.5522    1.6250   -1.2802 C.3     1  LIG1        0.0232
     25 C          -1.3824    2.4896   -2.5427 C.3     1  LIG1       -0.0551
     26 C          -2.8708    2.0321   -0.5382 C.3     1  LIG1        0.1370
     27 H          -3.0623    1.3460    0.2994 H       1  LIG1        0.0792
     28 C          -4.1304    2.0057   -1.3795 C.ar    1  LIG1        0.0310
     29 C          -4.9861    3.0652   -1.6298 C.ar    1  LIG1        0.0984
     30 O          -6.0335    2.6829   -2.4022 O.2     1  LIG1       -0.4706
     31 C          -5.8706    1.3641   -2.6625 C.ar    1  LIG1        0.0921
     32 C          -4.7257    0.8981   -2.0605 C.ar    1  LIG1       -0.0172
     33 O          -2.6859    3.3430    0.0358 O.3     1  LIG1       -0.4559
     34 C          -1.6722    3.5005    0.9218 C.2     1  LIG1        0.3084
     35 C          -0.7084    2.3404    1.0391 C.3     1  LIG1        0.0556
     36 O          -1.5807    4.5077    1.6154 O.2     1  LIG1       -0.2508
     37 C          -1.5931    0.1148   -1.6104 C.3     1  LIG1       -0.0052
     38 C          -0.1541   -0.4028   -1.5389 C.3     1  LIG1        0.1145
     39 H          -0.1780   -1.4439   -1.2359 H       1  LIG1        0.0741
     40 O           0.4549   -0.2976   -2.8341 O.3     1  LIG1       -0.4608
     41 C           0.1861   -1.3521   -3.6602 C.2     1  LIG1        0.3042
     42 C           0.5351   -1.0405   -5.0826 C.3     1  LIG1        0.0332
     43 O          -0.3081   -2.4173   -3.3128 O.2     1  LIG1       -0.2512
     44 H           2.6901    2.5365   -2.0098 H       1  LIG1        0.0268
     45 H           1.2085    3.4610   -2.0906 H       1  LIG1        0.0268
     46 H           1.3490    1.8801   -2.9053 H       1  LIG1        0.0268
     47 H           2.9028   -0.6575   -1.0764 H       1  LIG1        0.0239
     48 H           1.8821   -2.0274   -0.6856 H       1  LIG1        0.0239
     49 H           3.2199   -1.5755    0.3755 H       1  LIG1        0.0239
     50 H           3.9219    1.6645    2.2839 H       1  LIG1        0.0686
     51 H           1.4619    1.0424    4.7315 H       1  LIG1        0.0239
     52 H          -0.1296    0.5906    4.0954 H       1  LIG1        0.0239
     53 H           0.9671    1.5982    3.1565 H       1  LIG1        0.0239
     54 H           2.0560   -1.2245    5.2324 H       1  LIG1        0.0239
     55 H           1.8315   -2.5587    4.1476 H       1  LIG1        0.0239
     56 H           0.4212   -1.6768    4.7446 H       1  LIG1        0.0239
     57 H          -0.1484   -3.7108    0.3826 H       1  LIG1        0.2105
     58 H           3.1662   -5.7302    1.6352 H       1  LIG1        0.0661
     59 H           1.7452   -6.6383    2.2123 H       1  LIG1        0.0661
     60 H           2.4632   -5.4066    3.2606 H       1  LIG1        0.0661
     61 H          -1.0833    3.5120   -2.2893 H       1  LIG1        0.0237
     62 H          -2.2994    2.5544   -3.1353 H       1  LIG1        0.0237
     63 H          -0.6475    2.0729   -3.2318 H       1  LIG1        0.0237
     64 H          -4.9875    4.1061   -1.3342 H       1  LIG1        0.1033
     65 H          -6.6378    0.9072   -3.2730 H       1  LIG1        0.1029
     66 H          -4.3746   -0.1225   -2.1162 H       1  LIG1        0.0653
     67 H          -1.1711    1.5885    1.6862 H       1  LIG1        0.0385
     68 H           0.1661    2.7375    1.5567 H       1  LIG1        0.0385
     69 H          -2.0587   -0.0803   -2.5814 H       1  LIG1        0.0308
     70 H          -2.1694   -0.4147   -0.8408 H       1  LIG1        0.0308
     71 H           0.4472    0.0318   -5.2752 H       1  LIG1        0.0342
     72 H          -0.1871   -1.5462   -5.7332 H       1  LIG1        0.0342
     73 H           1.5436   -1.3888   -5.3106 H       1  LIG1        0.0342
@<TRIPOS>BOND
     1     1     2    1
     2     2     3    1
     3     3     4    1
     4     4     5    1
     5     4     6    1
     6     6     7    1
     7     2     7    1
     8     6     8    2
     9     8     9    1
    10     9    10    1
    11    10    11    1
    12    10    12    1
    13    10    13    1
    14    13    14    1
    15     4    13    1
    16    13    15    1
    17    15    16    1
    18    15    17    1
    19    15    18    1
    20    18    19    1
    21    19    20    1
    22    18    21    2
    23     9    22    2
    24     3    23    1
    25     2    23    1
    26    23    24    1
    27    24    25    1
    28    24    26    1
    29    28    29   ar
    30    29    30   ar
    31    30    31   ar
    32    31    32   ar
    33    28    32   ar
    34    26    33    1
    35    33    34    1
    36    34    35    1
    37    23    35    1
    38    34    36    2
    39    24    37    1
    40    37    38    1
    41     3    38    1
    42    40    41    1
    43    41    42    1
    44    41    43    2
    45    26    28    1
    46    26    27    1
    47    38    40    1
    48    38    39    1
    49     1    44    1
    50     1    45    1
    51     1    46    1
    52     5    47    1
    53     5    48    1
    54     5    49    1
    55     8    50    1
    56    11    51    1
    57    11    52    1
    58    11    53    1
    59    12    54    1
    60    12    55    1
    61    12    56    1
    62    17    57    1
    63    20    58    1
    64    20    59    1
    65    20    60    1
    66    25    61    1
    67    25    62    1
    68    25    63    1
    69    29    64    1
    70    31    65    1
    71    32    66    1
    72    35    67    1
    73    35    68    1
    74    37    69    1
    75    37    70    1
    76    42    71    1
    77    42    72    1
    78    42    73    1
