@<TRIPOS>MOLECULE
NuBBE_318
 79 83 0 0 0
SMALL
GASTEIGER

@<TRIPOS>ATOM
      1 C           0.7753   -4.7385   -7.5301 C.3     1  LIG1        0.0790
      2 O          -0.3471   -3.8601   -7.5141 O.3     1  LIG1       -0.4914
      3 C          -0.6725   -3.3486   -6.2828 C.ar    1  LIG1        0.1619
      4 C          -2.0226   -3.0542   -6.0884 C.ar    1  LIG1        0.1585
      5 C          -2.4794   -2.5444   -4.8834 C.ar    1  LIG1       -0.0159
      6 C          -1.5672   -2.2826   -3.8582 C.ar    1  LIG1       -0.0473
      7 C          -0.1912   -2.5027   -4.0354 C.ar    1  LIG1        0.0247
      8 C           0.8150   -2.1812   -2.9781 C.ar    1  LIG1        0.1810
      9 O           1.9043   -3.0560   -3.0092 O.2     1  LIG1       -0.4507
     10 C           2.7528   -3.0750   -1.9287 C.ar    1  LIG1        0.1465
     11 C           3.6508   -4.1395   -1.8142 C.ar    1  LIG1        0.0233
     12 C           4.5001   -4.2013   -0.7027 C.ar    1  LIG1        0.1271
     13 C           4.4483   -3.1962    0.2647 C.ar    1  LIG1        0.0225
     14 C           3.5606   -2.1395    0.1406 C.ar    1  LIG1        0.1348
     15 O           3.4949   -1.2183    1.1416 O.3     1  LIG1       -0.5058
     16 O           5.3699   -5.2588   -0.6225 O.3     1  LIG1       -0.4949
     17 C           5.7540   -5.5975    0.7141 C.3     1  LIG1        0.0788
     18 C           2.7373   -2.0693   -0.9763 C.ar    1  LIG1        0.1092
     19 C           1.8960   -0.9218   -1.2518 C.ar    1  LIG1        0.2382
     20 O           2.2310    0.1921   -0.8127 O.2     1  LIG1       -0.2830
     21 C           0.7227   -1.1267   -2.1338 C.ar    1  LIG1        0.2138
     22 O          -0.3620   -0.2692   -2.1307 O.3     1  LIG1       -0.4532
     23 C          -0.2200    1.0561   -1.5865 C.3     1  LIG1        0.2311
     24 H           0.7783    1.4522   -1.7894 H       1  LIG1        0.1084
     25 O          -0.5076    1.0256   -0.1841 O.3     1  LIG1       -0.3313
     26 C          -0.5439    2.3157    0.4483 C.3     1  LIG1        0.1144
     27 H           0.4087    2.8446    0.3073 H       1  LIG1        0.0647
     28 C          -1.6897    3.1345   -0.1643 C.3     1  LIG1        0.1120
     29 H          -2.6533    2.6373    0.0021 H       1  LIG1        0.0647
     30 C          -1.4502    3.2776   -1.6710 C.3     1  LIG1        0.1152
     31 H          -0.6066    3.9555   -1.8530 H       1  LIG1        0.0648
     32 C          -1.2092    1.9410   -2.3664 C.3     1  LIG1        0.1454
     33 H          -2.1565    1.4104   -2.5188 H       1  LIG1        0.0683
     34 O          -0.6910    2.2078   -3.6880 O.3     1  LIG1       -0.3829
     35 O          -2.5839    3.9099   -2.2949 O.3     1  LIG1       -0.3864
     36 O          -1.7933    4.4558    0.3786 O.3     1  LIG1       -0.3865
     37 C          -0.7361    2.0680    1.9617 C.3     1  LIG1        0.0796
     38 O          -0.8455    3.2716    2.7456 O.3     1  LIG1       -0.3461
     39 C          -1.0618    2.9490    4.1521 C.3     1  LIG1        0.1879
     40 H          -0.2060    2.3435    4.4740 H       1  LIG1        0.0937
     41 O          -2.2691    2.1983    4.2647 O.3     1  LIG1       -0.3431
     42 C          -2.6982    1.9273    5.6030 C.3     1  LIG1        0.0873
     43 H          -3.6582    1.4087    5.4903 H       1  LIG1        0.0621
     44 C          -2.9648    3.2458    6.3476 C.3     1  LIG1        0.1095
     45 H          -3.2970    3.0345    7.3706 H       1  LIG1        0.0646
     46 C          -1.7228    4.1326    6.3594 C.3     1  LIG1        0.1140
     47 H          -1.9887    5.1340    6.7211 H       1  LIG1        0.0648
     48 C          -1.0969    4.2766    4.9610 C.3     1  LIG1        0.1341
     49 H          -1.6651    5.0245    4.3959 H       1  LIG1        0.0671
     50 O           0.2340    4.8113    5.1494 O.3     1  LIG1       -0.3841
     51 O          -0.7551    3.6244    7.2884 O.3     1  LIG1       -0.3864
     52 O          -4.0184    3.9682    5.6905 O.3     1  LIG1       -0.3866
     53 C          -1.7611    0.9616    6.3273 C.3     1  LIG1       -0.0361
     54 C           0.2374   -3.0606   -5.2603 C.ar    1  LIG1       -0.0055
     55 O          -2.9310   -3.2696   -7.0876 O.3     1  LIG1       -0.5033
     56 H           0.8686   -5.1422   -8.5434 H       1  LIG1        0.0660
     57 H           0.6227   -5.5802   -6.8458 H       1  LIG1        0.0660
     58 H           1.7069   -4.2113   -7.3052 H       1  LIG1        0.0660
     59 H          -3.5362   -2.3410   -4.7408 H       1  LIG1        0.0655
     60 H          -1.9545   -1.8870   -2.9232 H       1  LIG1        0.0626
     61 H           3.6718   -4.9160   -2.5750 H       1  LIG1        0.0691
     62 H           5.0994   -3.2064    1.1262 H       1  LIG1        0.0691
     63 H           4.2207   -1.3564    1.7703 H       1  LIG1        0.2922
     64 H           6.4597   -6.4297    0.6808 H       1  LIG1        0.0660
     65 H           4.8720   -5.9034    1.2881 H       1  LIG1        0.0660
     66 H           6.2793   -4.7812    1.2222 H       1  LIG1        0.0660
     67 H          -1.2842    2.8825   -4.0704 H       1  LIG1        0.2102
     68 H          -2.8464    4.6256   -1.6820 H       1  LIG1        0.2100
     69 H          -1.7081    4.3700    1.3508 H       1  LIG1        0.2100
     70 H           0.1107    1.4786    2.3330 H       1  LIG1        0.0587
     71 H          -1.6380    1.4580    2.0907 H       1  LIG1        0.0587
     72 H           0.5613    5.0565    4.2646 H       1  LIG1        0.2101
     73 H           0.0622    4.1272    7.0875 H       1  LIG1        0.2100
     74 H          -4.7577    3.3514    5.5458 H       1  LIG1        0.2100
     75 H          -0.7322    1.3251    6.3865 H       1  LIG1        0.0255
     76 H          -1.7127    0.0102    5.7870 H       1  LIG1        0.0255
     77 H          -2.1135    0.7631    7.3447 H       1  LIG1        0.0255
     78 H           1.2978   -3.2317   -5.4175 H       1  LIG1        0.0662
     79 H          -2.3980   -3.5464   -7.8576 H       1  LIG1        0.2923
@<TRIPOS>BOND
     1     1     2    1
     2     2     3    1
     3     3     4   ar
     4     4     5   ar
     5     5     6   ar
     6     6     7   ar
     7     7     8    1
     8     8     9   ar
     9     9    10   ar
    10    10    11   ar
    11    11    12   ar
    12    12    13   ar
    13    13    14   ar
    14    14    15    1
    15    12    16    1
    16    16    17    1
    17    10    18   ar
    18    14    18   ar
    19    18    19   ar
    20    19    20    2
    21     8    21   ar
    22    19    21   ar
    23    21    22    1
    24    23    25    1
    25    25    26    1
    26    26    27    1
    27    26    28    1
    28    28    30    1
    29    30    31    1
    30    30    32    1
    31    23    32    1
    32    30    35    1
    33    26    37    1
    34    37    38    1
    35    39    41    1
    36    41    42    1
    37    42    44    1
    38    44    45    1
    39    44    46    1
    40    46    48    1
    41    39    48    1
    42    44    52    1
    43     7    54   ar
    44     3    54   ar
    45     4    55    1
    46    23    24    1
    47    23    22    1
    48    28    36    1
    49    28    29    1
    50    32    34    1
    51    32    33    1
    52    39    40    1
    53    39    38    1
    54    42    53    1
    55    42    43    1
    56    46    51    1
    57    46    47    1
    58    48    50    1
    59    48    49    1
    60     1    56    1
    61     1    57    1
    62     1    58    1
    63     5    59    1
    64     6    60    1
    65    11    61    1
    66    13    62    1
    67    15    63    1
    68    17    64    1
    69    17    65    1
    70    17    66    1
    71    34    67    1
    72    35    68    1
    73    36    69    1
    74    37    70    1
    75    37    71    1
    76    50    72    1
    77    51    73    1
    78    52    74    1
    79    53    75    1
    80    53    76    1
    81    53    77    1
    82    54    78    1
    83    55    79    1
