REMARK  Name = NuBBE_2223
REMARK  6 active torsions:
REMARK  status: ('A' for Active; 'I' for Inactive)
REMARK    1  A    between atoms: O_1  and  C_2
REMARK    2  A    between atoms: O_1  and  C_3
REMARK    3  A    between atoms: C_8  and  O_9
REMARK    4  A    between atoms: O_9  and  C_10
REMARK    5  A    between atoms: C_11  and  O_15
REMARK    6  A    between atoms: C_12  and  O_14
REMARK                            x       y       z     vdW  Elec       q    Type
REMARK                         _______ _______ _______ _____ _____    ______ ____
ROOT
ATOM      1  C   LIG A   1      -1.114   2.939   0.400  0.00  0.00    +0.164 C 
ATOM      2  C   LIG A   1      -0.667   1.891  -0.308  0.00  0.00    +0.038 C 
ATOM      3  C   LIG A   1       0.679   1.196  -0.146  0.00  0.00    +0.036 C 
ATOM      4  C   LIG A   1       0.430  -0.290   0.176  0.00  0.00    -0.023 A 
ATOM      5  C   LIG A   1       0.495  -1.302  -0.821  0.00  0.00    +0.003 A 
ATOM      6  C   LIG A   1       0.160  -2.641  -0.492  0.00  0.00    +0.168 A 
ATOM      7  C   LIG A   1      -0.261  -2.943   0.805  0.00  0.00    +0.201 A 
ATOM      8  C   LIG A   1      -0.281  -1.960   1.786  0.00  0.00    +0.162 A 
ATOM      9  C   LIG A   1       0.038  -0.649   1.483  0.00  0.00    +0.054 A 
ATOM     10  C   LIG A   1       0.982  -0.986  -2.221  0.00  0.00    +0.039 C 
ATOM     11  C   LIG A   1       0.943   0.494  -2.588  0.00  0.00    +0.006 C 
ATOM     12  C   LIG A   1       1.494   1.351  -1.455  0.00  0.00    +0.020 C 
ATOM     13  C   LIG A   1       1.502   1.863   0.946  0.00  0.00    -0.007 C 
ATOM     14  C   LIG A   1       1.095   2.914   1.670  0.00  0.00    +0.051 C 
ATOM     15  C   LIG A   1      -0.232   3.542   1.458  0.00  0.00    +0.220 C 
ATOM     16  O   LIG A   1      -0.546   4.510   2.136  0.00  0.00    -0.284 OA
ENDROOT
BRANCH   1  17
ATOM     17  O   LIG A   1      -2.365   3.452   0.083  0.00  0.00    -0.492 OA
ATOM     18  C   LIG A   1      -3.123   3.949   1.181  0.00  0.00    +0.277 C 
ENDBRANCH   1  17
BRANCH   6  19
ATOM     19  O   LIG A   1       0.162  -3.560  -1.514  0.00  0.00    -0.491 OA
ATOM     20  C   LIG A   1       0.766  -4.820  -1.217  0.00  0.00    +0.277 C 
ENDBRANCH   6  19
BRANCH   8  21
ATOM     21  O   LIG A   1      -0.678  -2.269   3.056  0.00  0.00    -0.503 OA
ATOM     22  H   LIG A   1      -0.836  -3.234   3.037  0.00  0.00    +0.292 HD
ENDBRANCH   8  21
BRANCH   7  23
ATOM     23  O   LIG A   1      -0.771  -4.161   1.169  0.00  0.00    -0.501 OA
ATOM     24  H   LIG A   1      -1.297  -4.451   0.400  0.00  0.00    +0.292 HD
ENDBRANCH   7  23
TORSDOF 4
