@<TRIPOS>MOLECULE
NuBBE_263
 52 54 0 0 0
SMALL
GASTEIGER

@<TRIPOS>ATOM
      1 C          -0.9940    3.2887    4.6137 C.3     1  LIG1        0.0789
      2 O           0.0979    2.3961    4.4136 O.2     1  LIG1       -0.4919
      3 C           0.0140    1.6069    3.2753 C.2     1  LIG1        0.1594
      4 C           0.5870    0.3953    3.2634 C.2     1  LIG1       -0.0296
      5 C           0.5508   -0.5097    2.0386 C.3     1  LIG1        0.0257
      6 C           0.8395   -1.9987    2.3856 C.3     1  LIG1       -0.0231
      7 C          -0.1221   -2.6545    3.3499 C.2     1  LIG1       -0.0902
      8 C          -0.8530   -3.7472    3.0869 C.2     1  LIG1       -0.1026
      9 C          -0.8332   -0.3261    1.3710 C.3     1  LIG1        0.0754
     10 H          -0.9831   -1.0514    0.5641 H       1  LIG1        0.0609
     11 O          -1.9321   -0.4574    2.2610 O.3     1  LIG1       -0.3902
     12 C           1.5233    0.0467    0.9156 C.3     1  LIG1       -0.0244
     13 C           2.8175    0.6993    1.4243 C.3     1  LIG1       -0.0610
     14 H           1.8603   -0.7822    0.2857 H       1  LIG1        0.0313
     15 C           0.6580    1.0609    0.0796 C.3     1  LIG1        0.0001
     16 H           1.1304    2.0538    0.1026 H       1  LIG1        0.0359
     17 C           0.4341    0.6966   -1.3874 C.ar    1  LIG1       -0.0395
     18 C           0.3577   -0.6296   -1.8389 C.ar    1  LIG1       -0.0128
     19 C           0.0073   -0.9532   -3.1584 C.ar    1  LIG1        0.1617
     20 O           0.0241   -2.3040   -3.4006 O.3     1  LIG1       -0.4914
     21 C          -0.8799   -2.8080   -4.3749 C.3     1  LIG1        0.0790
     22 C          -0.2491    0.0725   -4.0752 C.ar    1  LIG1        0.1615
     23 O          -0.6609   -0.2695   -5.3308 O.3     1  LIG1       -0.4915
     24 C          -0.3021    0.5966   -6.3953 C.3     1  LIG1        0.0790
     25 C          -0.1364    1.4026   -3.6531 C.ar    1  LIG1       -0.0160
     26 C           0.1982    1.7114   -2.3258 C.ar    1  LIG1       -0.0546
     27 C          -0.6948    1.0888    0.8266 C.3     1  LIG1        0.0589
     28 H          -1.5612    1.3680    0.2161 H       1  LIG1        0.0414
     29 C          -0.5902    2.0821    1.9713 C.2     1  LIG1        0.2031
     30 O          -0.8997    3.2672    1.7764 O.2     1  LIG1       -0.2884
     31 H          -0.8573    3.7738    5.5847 H       1  LIG1        0.0660
     32 H          -1.9481    2.7513    4.6301 H       1  LIG1        0.0660
     33 H          -1.0035    4.0892    3.8721 H       1  LIG1        0.0660
     34 H           1.0844    0.0341    4.1574 H       1  LIG1        0.0616
     35 H           1.8447   -2.0786    2.8191 H       1  LIG1        0.0317
     36 H           0.8643   -2.5844    1.4564 H       1  LIG1        0.0317
     37 H          -0.2295   -2.1970    4.3317 H       1  LIG1        0.0567
     38 H          -0.8103   -4.2617    2.1329 H       1  LIG1        0.0532
     39 H          -1.5316   -4.1474    3.8363 H       1  LIG1        0.0532
     40 H          -2.7516   -0.2930    1.7648 H       1  LIG1        0.2098
     41 H           3.3834    0.0029    2.0506 H       1  LIG1        0.0233
     42 H           2.6327    1.6100    2.0038 H       1  LIG1        0.0233
     43 H           3.4560    0.9880    0.5816 H       1  LIG1        0.0233
     44 H           0.5335   -1.4627   -1.1642 H       1  LIG1        0.0658
     45 H          -0.6327   -2.4829   -5.3872 H       1  LIG1        0.0660
     46 H          -1.9142   -2.5674   -4.1091 H       1  LIG1        0.0660
     47 H          -0.7779   -3.8976   -4.3857 H       1  LIG1        0.0660
     48 H          -0.4366    0.0359   -7.3261 H       1  LIG1        0.0660
     49 H           0.7477    0.8998   -6.3359 H       1  LIG1        0.0660
     50 H          -0.9687    1.4625   -6.4284 H       1  LIG1        0.0660
     51 H          -0.3379    2.2236   -4.3349 H       1  LIG1        0.0655
     52 H           0.2450    2.7596   -2.0312 H       1  LIG1        0.0622
@<TRIPOS>BOND
     1     1     2    1
     2     2     3    1
     3     3     4    2
     4     4     5    1
     5     5     6    1
     6     6     7    1
     7     7     8    2
     8     5     9    1
     9     9    10    1
    10     9    11    1
    11     5    12    1
    12    12    13    1
    13    12    14    1
    14    12    15    1
    15    15    16    1
    16    15    17    1
    17    17    18   ar
    18    18    19   ar
    19    19    20    1
    20    20    21    1
    21    19    22   ar
    22    22    23    1
    23    23    24    1
    24    22    25   ar
    25    25    26   ar
    26    17    26   ar
    27    15    27    1
    28    27    28    1
    29     9    27    1
    30    27    29    1
    31     3    29    1
    32    29    30    2
    33     1    31    1
    34     1    32    1
    35     1    33    1
    36     4    34    1
    37     6    35    1
    38     6    36    1
    39     7    37    1
    40     8    38    1
    41     8    39    1
    42    11    40    1
    43    13    41    1
    44    13    42    1
    45    13    43    1
    46    18    44    1
    47    21    45    1
    48    21    46    1
    49    21    47    1
    50    24    48    1
    51    24    49    1
    52    24    50    1
    53    25    51    1
    54    26    52    1
