REMARK  Name = NuBBE_277
REMARK  4 active torsions:
REMARK  status: ('A' for Active; 'I' for Inactive)
REMARK    1  A    between atoms: C_2  and  O_3
REMARK    2  A    between atoms: C_2  and  C_4
REMARK    3  A    between atoms: C_4  and  C_5
REMARK    4  A    between atoms: C_10  and  O_11
REMARK                            x       y       z     vdW  Elec       q    Type
REMARK                         _______ _______ _______ _____ _____    ______ ____
ROOT
ATOM      1  C   LIG A   1      -0.321   0.264   0.288  0.00  0.00    +0.005 A 
ATOM      2  C   LIG A   1       0.334   1.500   0.376  0.00  0.00    +0.008 A 
ATOM      3  C   LIG A   1       1.721   1.557   0.520  0.00  0.00    +0.001 A 
ATOM      4  C   LIG A   1       2.467   0.381   0.581  0.00  0.00    +0.004 A 
ATOM      5  C   LIG A   1       1.833  -0.856   0.475  0.00  0.00    +0.045 A 
ATOM      6  C   LIG A   1       0.450  -0.903   0.312  0.00  0.00    +0.120 A 
ENDROOT
BRANCH   6   7
ATOM      7  O   LIG A   1      -0.185  -2.100   0.116  0.00  0.00    -0.506 OA
ATOM      8  H   LIG A   1       0.451  -2.811   0.322  0.00  0.00    +0.292 HD
ENDBRANCH   6   7
BRANCH   1   9
ATOM      9  C   LIG A   1      -1.821   0.214   0.134  0.00  0.00    +0.159 C 
BRANCH   9  11
ATOM     10  O   LIG A   1      -2.989   0.992  -1.829  0.00  0.00    -0.251 OA
ATOM     11  C   LIG A   1      -2.272   0.153  -1.306  0.00  0.00    +0.309 C 
BRANCH  11  12
ATOM     12  O   LIG A   1      -1.845  -0.951  -1.966  0.00  0.00    -0.480 OA
ATOM     13  H   LIG A   1      -1.272  -1.514  -1.399  0.00  0.00    +0.295 HD
ENDBRANCH  11  12
ENDBRANCH   9  11
ENDBRANCH   1   9
TORSDOF 4
