REMARK  Name = NuBBE_255
REMARK  9 active torsions:
REMARK  status: ('A' for Active; 'I' for Inactive)
REMARK    1  A    between atoms: C_3  and  O_4
REMARK    2  A    between atoms: C_5  and  C_6
REMARK    3  A    between atoms: C_11  and  C_28
REMARK    4  A    between atoms: C_14  and  C_15
REMARK    5  A    between atoms: C_19  and  C_21
REMARK    6  A    between atoms: C_22  and  O_24
REMARK    7  A    between atoms: C_25  and  O_27
REMARK    8  A    between atoms: C_29  and  C_30
REMARK    9  A    between atoms: C_33  and  C_34
REMARK                            x       y       z     vdW  Elec       q    Type
REMARK                         _______ _______ _______ _____ _____    ______ ____
ROOT
ATOM      1  O   LIG A   1      -5.405  -1.855  -0.690  0.00  0.00    -0.284 OA
ATOM      2  C   LIG A   1      -4.656  -1.732   0.246  0.00  0.00    +0.221 C 
ATOM      3  C   LIG A   1      -3.865  -2.888   0.753  0.00  0.00    +0.167 C 
ATOM      4  C   LIG A   1      -2.918  -2.739   1.707  0.00  0.00    +0.002 C 
ATOM      5  C   LIG A   1      -2.238  -3.961   2.237  0.00  0.00    +0.048 C 
ATOM      6  C   LIG A   1      -2.476  -1.353   2.116  0.00  0.00    -0.014 C 
ATOM      7  C   LIG A   1      -1.350  -1.040   2.818  0.00  0.00    +0.008 C 
ATOM      8  C   LIG A   1      -0.571   0.265   2.706  0.00  0.00    +0.001 C 
ATOM      9  C   LIG A   1      -0.947   1.211   1.807  0.00  0.00    -0.053 C 
ATOM     10  C   LIG A   1       0.005   2.093   0.614  0.00  0.00    -0.004 C 
ATOM     11  C   LIG A   1       1.487   2.768   0.210  0.00  0.00    +0.012 C 
ATOM     12  C   LIG A   1       2.675   2.172  -0.655  0.00  0.00    +0.010 C 
ATOM     13  C   LIG A   1       2.479   0.836  -1.427  0.00  0.00    -0.000 C 
ATOM     14  C   LIG A   1       1.955   0.926  -2.882  0.00  0.00    +0.014 C 
ATOM     15  C   LIG A   1       1.418   0.166  -0.521  0.00  0.00    +0.004 C 
ATOM     16  C   LIG A   1       1.515  -1.382  -0.480  0.00  0.00    +0.010 C 
ATOM     17  C   LIG A   1       2.935  -2.046  -0.653  0.00  0.00    +0.017 C 
ATOM     18  C   LIG A   1       3.786  -2.284   0.616  0.00  0.00    +0.010 C 
ATOM     19  C   LIG A   1       3.778  -1.382  -1.743  0.00  0.00    +0.146 C 
ATOM     20  C   LIG A   1       3.871   0.135  -1.558  0.00  0.00    +0.149 C 
ATOM     21  C   LIG A   1      -0.714   3.501   0.676  0.00  0.00    +0.016 C 
ATOM     22  C   LIG A   1      -0.065   1.031  -0.628  0.00  0.00    -0.019 C 
ATOM     23  C   LIG A   1      -0.475   1.707  -1.987  0.00  0.00    +0.012 C 
ATOM     24  C   LIG A   1      -1.288   0.148  -0.492  0.00  0.00    +0.009 C 
ATOM     25  C   LIG A   1      -2.442   1.139  -0.093  0.00  0.00    +0.016 C 
ATOM     26  C   LIG A   1      -2.526   1.106   1.426  0.00  0.00    +0.015 C 
ATOM     27  C   LIG A   1      -3.447   2.112   2.154  0.00  0.00    +0.021 C 
ATOM     28  C   LIG A   1      -3.236  -0.249   1.567  0.00  0.00    -0.026 C 
ATOM     29  C   LIG A   1      -4.397  -0.432   0.890  0.00  0.00    +0.059 C 
ENDROOT
BRANCH   3  30
ATOM     30  O   LIG A   1      -4.144  -4.092   0.126  0.00  0.00    -0.503 OA
ATOM     31  H   LIG A   1      -4.746  -3.857  -0.620  0.00  0.00    +0.292 HD
ENDBRANCH   3  30
BRANCH  19  32
ATOM     32  O   LIG A   1       5.103  -1.940  -1.781  0.00  0.00    -0.389 OA
ATOM     33  H   LIG A   1       5.743  -1.216  -1.633  0.00  0.00    +0.210 HD
ENDBRANCH  19  32
BRANCH  20  34
ATOM     34  O   LIG A   1       4.634   0.661  -2.672  0.00  0.00    -0.389 OA
ATOM     35  H   LIG A   1       4.445   0.111  -3.460  0.00  0.00    +0.210 HD
ENDBRANCH  20  34
TORSDOF 3
