@<TRIPOS>MOLECULE
NuBBE_172
 89 90 0 0 0
SMALL
GASTEIGER

@<TRIPOS>ATOM
      1 C          -2.9416   -4.2048   -3.4264 C.3     1  LIG1       -0.0429
      2 C          -2.2006   -3.0082   -2.8077 C.3     1  LIG1        0.0608
      3 H          -1.3865   -3.0801   -3.5356 H       1  LIG1        0.0534
      4 C          -1.5656   -3.2987   -1.4253 C.3     1  LIG1        0.1247
      5 H          -1.2334   -4.3412   -1.3426 H       1  LIG1        0.0754
      6 O          -2.4853   -3.0905   -0.2747 O.3     1  LIG1       -0.4286
      7 C          -3.4323   -4.1287   -0.0853 C.2     1  LIG1        0.5110
      8 O          -4.0303   -4.0782    1.1792 O.3     1  LIG1       -0.4281
      9 C          -3.8919   -5.3036    1.9953 C.3     1  LIG1        0.1086
     10 C          -2.4969   -5.1173    2.5883 C.3     1  LIG1       -0.0253
     11 C          -4.9283   -5.3912    3.1517 C.3     1  LIG1       -0.0253
     12 C          -3.9869   -6.6812    1.2925 C.3     1  LIG1       -0.0253
     13 O          -3.5927   -5.0383   -0.8044 O.2     1  LIG1       -0.2028
     14 C          -0.2190   -2.4726   -1.3915 C.3     1  LIG1       -0.0121
     15 C          -0.0061   -1.5512   -2.6361 C.3     1  LIG1       -0.0309
     16 C          -1.2440   -0.6255   -2.8819 C.3     1  LIG1        0.0268
     17 H          -1.1769   -0.1694   -3.8766 H       1  LIG1        0.0501
     18 C          -1.0237    0.5223   -1.7692 C.3     1  LIG1       -0.0343
     19 C           0.2689    1.4413   -2.0086 C.3     1  LIG1       -0.0514
     20 C           0.6013    2.5630   -0.9576 C.3     1  LIG1       -0.0530
     21 C           1.8502    3.4191   -1.3533 C.3     1  LIG1       -0.0531
     22 C           2.3172    4.5969   -0.4138 C.3     1  LIG1       -0.0531
     23 C           2.6474    4.1957    1.0280 C.3     1  LIG1       -0.0531
     24 C           3.1555    5.2411    2.0682 C.3     1  LIG1       -0.0531
     25 C           3.5693    4.6522    3.4223 C.3     1  LIG1       -0.0531
     26 C           4.7799    3.7810    3.2624 C.3     1  LIG1       -0.0530
     27 C           4.7758    2.4959    2.4893 C.3     1  LIG1       -0.0527
     28 C           6.1594    1.8706    2.5358 C.3     1  LIG1       -0.0464
     29 C           6.7184    1.0867    3.7217 C.3     1  LIG1        0.0055
     30 C           7.1287    1.6840    5.0769 C.2     1  LIG1        0.1303
     31 C           6.6861    3.0278    5.5679 C.3     1  LIG1       -0.0061
     32 O           7.8464    1.0109    5.8278 O.2     1  LIG1       -0.2977
     33 N          -2.5481   -1.5329   -2.9628 N.am    1  LIG1       -0.2882
     34 C          -3.8985   -1.2606   -3.4469 C.2     1  LIG1        0.2472
     35 C          -4.4373    0.0676   -4.0006 C.ar    1  LIG1        0.0369
     36 C          -3.9601    1.2573   -3.4955 C.ar    1  LIG1       -0.0496
     37 C          -4.5261    2.5177   -3.7407 C.ar    1  LIG1       -0.0610
     38 C          -5.5969    2.6437   -4.6021 C.ar    1  LIG1       -0.0617
     39 C          -6.0555    1.4941   -5.2390 C.ar    1  LIG1       -0.0610
     40 C          -5.5191    0.2106   -4.9075 C.ar    1  LIG1       -0.0496
     41 O          -4.7574   -2.1505   -3.3968 O.2     1  LIG1       -0.2700
     42 H          -3.6629   -4.7052   -2.8000 H       1  LIG1        0.0249
     43 H          -2.1868   -4.9798   -3.6543 H       1  LIG1        0.0249
     44 H          -3.4564   -3.9715   -4.3550 H       1  LIG1        0.0249
     45 H          -2.4739   -4.1902    3.1731 H       1  LIG1        0.0268
     46 H          -1.7640   -4.9876    1.7833 H       1  LIG1        0.0268
     47 H          -2.1825   -5.9521    3.2145 H       1  LIG1        0.0268
     48 H          -4.8846   -4.5461    3.8431 H       1  LIG1        0.0268
     49 H          -4.7529   -6.2996    3.7532 H       1  LIG1        0.0268
     50 H          -5.9597   -5.4658    2.7843 H       1  LIG1        0.0268
     51 H          -3.2236   -6.8314    0.5262 H       1  LIG1        0.0268
     52 H          -4.9711   -6.8384    0.8349 H       1  LIG1        0.0268
     53 H          -3.8370   -7.4948    2.0174 H       1  LIG1        0.0268
     54 H           0.6218   -3.1820   -1.4391 H       1  LIG1        0.0302
     55 H          -0.0821   -1.9157   -0.4596 H       1  LIG1        0.0302
     56 H           0.2298   -2.1325   -3.5390 H       1  LIG1        0.0284
     57 H           0.9211   -0.9921   -2.5057 H       1  LIG1        0.0284
     58 H          -0.9595    0.0729   -0.7730 H       1  LIG1        0.0283
     59 H          -1.8740    1.1800   -1.6934 H       1  LIG1        0.0283
     60 H           0.1730    1.9044   -2.9982 H       1  LIG1        0.0266
     61 H           1.1736    0.8283   -2.0496 H       1  LIG1        0.0266
     62 H           0.7758    2.0938    0.0170 H       1  LIG1        0.0265
     63 H          -0.2525    3.2382   -0.8707 H       1  LIG1        0.0265
     64 H           1.6288    3.8798   -2.3242 H       1  LIG1        0.0265
     65 H           2.7082    2.7535   -1.5374 H       1  LIG1        0.0265
     66 H           1.6137    5.4280   -0.4487 H       1  LIG1        0.0265
     67 H           3.2582    4.9641   -0.8612 H       1  LIG1        0.0265
     68 H           3.4632    3.5476    0.7910 H       1  LIG1        0.0265
     69 H           1.8760    3.5719    1.4821 H       1  LIG1        0.0265
     70 H           2.4051    6.0087    2.2699 H       1  LIG1        0.0265
     71 H           4.0534    5.7478    1.6896 H       1  LIG1        0.0265
     72 H           2.7864    4.1096    3.9707 H       1  LIG1        0.0265
     73 H           3.8850    5.4519    4.1231 H       1  LIG1        0.0265
     74 H           4.8589    3.3984    4.2383 H       1  LIG1        0.0265
     75 H           5.6436    4.4048    3.0025 H       1  LIG1        0.0265
     76 H           4.7270    2.7200    1.4351 H       1  LIG1        0.0265
     77 H           3.9109    1.8655    2.7369 H       1  LIG1        0.0265
     78 H           6.8550    2.6890    2.3310 H       1  LIG1        0.0269
     79 H           6.1871    1.2329    1.6379 H       1  LIG1        0.0269
     80 H           7.6802    0.7130    3.3289 H       1  LIG1        0.0341
     81 H           6.1236    0.1923    3.9356 H       1  LIG1        0.0341
     82 H           6.8718    3.1326    6.6379 H       1  LIG1        0.0306
     83 H           5.6137    3.0856    5.6128 H       1  LIG1        0.0306
     84 H           7.1714    3.8349    5.0108 H       1  LIG1        0.0306
     85 H          -3.1195    1.2023   -2.8632 H       1  LIG1        0.0625
     86 H          -4.1112    3.3977   -3.2584 H       1  LIG1        0.0618
     87 H          -6.0313    3.6272   -4.7826 H       1  LIG1        0.0618
     88 H          -6.8274    1.6097   -6.0010 H       1  LIG1        0.0618
     89 H          -5.9670   -0.6568   -5.3916 H       1  LIG1        0.0625
@<TRIPOS>BOND
     1     2     4    1
     2     6     7    1
     3     7     8    1
     4     8     9    1
     5     9    10    1
     6     9    11    1
     7     9    12    1
     8     7    13    2
     9     4    14    1
    10    14    15    1
    11    15    16    1
    12    16    17    1
    13    16    18    1
    14    18    19    1
    15    19    20    1
    16    20    21    1
    17    21    22    1
    18    22    23    1
    19    23    24    1
    20    24    25    1
    21    25    26    1
    22    26    27    1
    23    27    28    1
    24    28    29    1
    25    29    30    1
    26    30    31    1
    27    30    32    2
    28    16    33    1
    29     2    33    1
    30    33    34   am
    31    34    35    1
    32    35    36   ar
    33    36    37   ar
    34    37    38   ar
    35    38    39   ar
    36    39    40   ar
    37    35    40   ar
    38    34    41    2
    39     2     3    1
    40     2     1    1
    41     4     6    1
    42     4     5    1
    43     1    42    1
    44     1    43    1
    45     1    44    1
    46    10    45    1
    47    10    46    1
    48    10    47    1
    49    11    48    1
    50    11    49    1
    51    11    50    1
    52    12    51    1
    53    12    52    1
    54    12    53    1
    55    14    54    1
    56    14    55    1
    57    15    56    1
    58    15    57    1
    59    18    58    1
    60    18    59    1
    61    19    60    1
    62    19    61    1
    63    20    62    1
    64    20    63    1
    65    21    64    1
    66    21    65    1
    67    22    66    1
    68    22    67    1
    69    23    68    1
    70    23    69    1
    71    24    70    1
    72    24    71    1
    73    25    72    1
    74    25    73    1
    75    26    74    1
    76    26    75    1
    77    27    76    1
    78    27    77    1
    79    28    78    1
    80    28    79    1
    81    29    80    1
    82    29    81    1
    83    31    82    1
    84    31    83    1
    85    31    84    1
    86    36    85    1
    87    37    86    1
    88    38    87    1
    89    39    88    1
    90    40    89    1
