REMARK  Name = NuBBE_465
REMARK  9 active torsions:
REMARK  status: ('A' for Active; 'I' for Inactive)
REMARK    1  A    between atoms: C_3  and  O_4
REMARK    2  A    between atoms: C_3  and  C_8
REMARK    3  A    between atoms: O_4  and  C_5
REMARK    4  A    between atoms: C_5  and  C_6
REMARK    5  A    between atoms: C_9  and  O_11
REMARK    6  A    between atoms: O_11  and  C_12
REMARK    7  A    between atoms: C_12  and  C_13
REMARK    8  A    between atoms: C_18  and  C_19
REMARK    9  A    between atoms: C_22  and  C_23
REMARK                            x       y       z     vdW  Elec       q    Type
REMARK                         _______ _______ _______ _____ _____    ______ ____
ROOT
ATOM      1  O   LIG A   1       0.002   0.314  -2.881  0.00  0.00    -0.287 OA
ATOM      2  C   LIG A   1       0.129   0.213  -1.659  0.00  0.00    +0.214 C 
ATOM      3  C   LIG A   1      -0.548   1.194  -0.669  0.00  0.00    +0.213 C 
ATOM      4  C   LIG A   1      -1.532   2.109  -1.414  0.00  0.00    +0.069 C 
ATOM      5  C   LIG A   1      -1.263   0.260   0.346  0.00  0.00    +0.261 C 
ATOM      6  C   LIG A   1      -0.181  -0.542   1.051  0.00  0.00    +0.040 C 
ATOM      7  C   LIG A   1      -0.063  -0.647   2.387  0.00  0.00    +0.203 C 
ATOM      8  O   LIG A   1       0.935  -1.359   3.028  0.00  0.00    -0.468 OA
ATOM      9  C   LIG A   1       1.809  -2.116   2.251  0.00  0.00    +0.102 C 
ATOM     10  C   LIG A   1       2.845  -2.872   3.021  0.00  0.00    +0.086 C 
ATOM     11  C   LIG A   1       1.752  -2.125   0.906  0.00  0.00    +0.050 C 
ATOM     12  C   LIG A   1       0.841  -1.208   0.218  0.00  0.00    +0.002 C 
ATOM     13  C   LIG A   1       0.928  -0.930  -1.104  0.00  0.00    +0.068 C 
ENDROOT
BRANCH  13  14
ATOM     14  C   LIG A   1       1.796  -1.662  -2.072  0.00  0.00    +0.263 C 
ATOM     15  O   LIG A   1       2.247  -2.788  -1.897  0.00  0.00    -0.296 OA
ENDBRANCH  13  14
BRANCH   3  16
ATOM     16  O   LIG A   1       0.284   2.074   0.119  0.00  0.00    -0.446 OA
BRANCH  16  17
ATOM     17  C   LIG A   1       1.247   2.802  -0.496  0.00  0.00    +0.305 C 
ATOM     18  C   LIG A   1       1.661   3.928   0.404  0.00  0.00    +0.136 C 
ATOM     19  O   LIG A   1       1.663   2.618  -1.631  0.00  0.00    -0.251 OA
ENDBRANCH  16  17
ENDBRANCH   3  16
BRANCH   5  20
ATOM     20  O   LIG A   1      -2.119  -0.707  -0.305  0.00  0.00    -0.452 OA
BRANCH  20  21
ATOM     21  C   LIG A   1      -3.349  -0.298  -0.717  0.00  0.00    +0.305 C 
ATOM     22  C   LIG A   1      -3.995  -1.393  -1.512  0.00  0.00    +0.136 C 
ATOM     23  O   LIG A   1      -3.853   0.778  -0.483  0.00  0.00    -0.251 OA
ENDBRANCH  20  21
ENDBRANCH   5  20
TORSDOF 5
