@<TRIPOS>MOLECULE
NuBBE_1707
 82 86 0 0 0
SMALL
GASTEIGER

@<TRIPOS>ATOM
      1 C          -4.7095    1.6072   -1.7763 C.3     1  LIG1        0.0501
      2 O          -5.7593    2.2514   -1.0642 O.3     1  LIG1       -0.3945
      3 C          -3.9612    0.5669   -0.9020 C.3     1  LIG1       -0.0024
      4 C          -2.8459   -0.1280   -1.7572 C.3     1  LIG1       -0.0235
      5 H          -2.5395    0.5335   -2.5757 H       1  LIG1        0.0315
      6 C          -1.5944   -0.3976   -0.8615 C.3     1  LIG1       -0.0312
      7 H          -1.9844   -0.9543   -0.0001 H       1  LIG1        0.0309
      8 C          -0.9508    0.9568   -0.3436 C.3     1  LIG1       -0.0233
      9 C          -2.0828    1.9205    0.1547 C.3     1  LIG1       -0.0463
     10 C          -3.4197    1.2235    0.3886 C.3     1  LIG1       -0.0445
     11 C          -0.2741    1.7243   -1.5272 C.3     1  LIG1       -0.0588
     12 C           0.1390    0.6068    0.8119 C.3     1  LIG1       -0.0231
     13 C          -0.6078    0.0287    2.0481 C.3     1  LIG1       -0.0588
     14 C           1.2149   -0.4061    0.2346 C.3     1  LIG1       -0.0294
     15 H           1.6840    0.1127   -0.6125 H       1  LIG1        0.0312
     16 C           0.5582   -1.6509   -0.4054 C.3     1  LIG1       -0.0489
     17 C          -0.5133   -1.3110   -1.4505 C.3     1  LIG1       -0.0491
     18 C           2.4573   -0.7214    1.1907 C.3     1  LIG1       -0.0252
     19 C           2.0402   -1.5695    2.4166 C.3     1  LIG1       -0.0590
     20 C           3.1140    0.6623    1.5685 C.3     1  LIG1       -0.0278
     21 H           3.3544    1.1342    0.6004 H       1  LIG1        0.0312
     22 C           2.0879    1.6118    2.2180 C.3     1  LIG1       -0.0486
     23 C           0.8974    1.8797    1.2894 C.3     1  LIG1       -0.0466
     24 C           4.5068    0.5956    2.3050 C.3     1  LIG1       -0.0056
     25 C           5.1335    2.0179    2.3598 C.3     1  LIG1       -0.0572
     26 C           4.4171    0.1165    3.7680 C.3     1  LIG1       -0.0572
     27 C           5.4652   -0.3060    1.4701 C.3     1  LIG1        0.0606
     28 H           5.7242    0.2074    0.5345 H       1  LIG1        0.0599
     29 C           4.8708   -1.6608    1.1037 C.3     1  LIG1       -0.0258
     30 C           3.5208   -1.5419    0.3993 C.3     1  LIG1       -0.0447
     31 O           6.6899   -0.5594    2.1585 O.3     1  LIG1       -0.3912
     32 C          -3.5327   -1.3942   -2.3719 C.3     1  LIG1       -0.0167
     33 H          -3.0183   -2.2998   -2.0299 H       1  LIG1        0.0348
     34 C          -4.9434   -1.4765   -1.7514 C.3     1  LIG1       -0.0457
     35 C          -4.8863   -0.6021   -0.5128 C.3     1  LIG1       -0.0445
     36 C          -3.4894   -1.3982   -3.9014 C.2     1  LIG1       -0.0763
     37 C          -4.4381   -0.8858   -4.7076 C.2     1  LIG1       -0.0994
     38 C          -2.2744   -2.0388   -4.5202 C.3     1  LIG1       -0.0438
     39 H          -4.0260    2.3767   -2.1523 H       1  LIG1        0.0563
     40 H          -5.1688    1.1411   -2.6493 H       1  LIG1        0.0563
     41 H          -5.3648    2.9911   -0.5703 H       1  LIG1        0.2094
     42 H          -2.2558    2.7214   -0.5754 H       1  LIG1        0.0271
     43 H          -1.7918    2.4449    1.0697 H       1  LIG1        0.0271
     44 H          -4.1348    1.9386    0.8047 H       1  LIG1        0.0272
     45 H          -3.2949    0.4720    1.1788 H       1  LIG1        0.0272
     46 H          -0.9692    1.8847   -2.3578 H       1  LIG1        0.0235
     47 H           0.5945    1.2135   -1.9461 H       1  LIG1        0.0235
     48 H           0.0511    2.7247   -1.2224 H       1  LIG1        0.0235
     49 H          -1.0278   -0.9630    1.8675 H       1  LIG1        0.0235
     50 H          -1.4228    0.6812    2.3713 H       1  LIG1        0.0235
     51 H           0.0224   -0.0527    2.9311 H       1  LIG1        0.0235
     52 H           0.1059   -2.2895    0.3603 H       1  LIG1        0.0268
     53 H           1.3125   -2.2632   -0.9095 H       1  LIG1        0.0268
     54 H          -0.9417   -2.2583   -1.7888 H       1  LIG1        0.0268
     55 H          -0.0489   -0.8564   -2.3318 H       1  LIG1        0.0268
     56 H           1.8040   -0.9638    3.2925 H       1  LIG1        0.0235
     57 H           2.8215   -2.2618    2.7397 H       1  LIG1        0.0235
     58 H           1.1760   -2.2042    2.2072 H       1  LIG1        0.0235
     59 H           2.5433    2.5857    2.4227 H       1  LIG1        0.0268
     60 H           1.7469    1.2367    3.1860 H       1  LIG1        0.0268
     61 H           1.2956    2.4285    0.4301 H       1  LIG1        0.0271
     62 H           0.2168    2.5680    1.8022 H       1  LIG1        0.0271
     63 H           4.5701    2.6893    3.0152 H       1  LIG1        0.0236
     64 H           5.1741    2.4715    1.3633 H       1  LIG1        0.0236
     65 H           6.1553    1.9980    2.7537 H       1  LIG1        0.0236
     66 H           5.3739    0.2527    4.2868 H       1  LIG1        0.0236
     67 H           4.1729   -0.9429    3.8531 H       1  LIG1        0.0236
     68 H           3.6715    0.6842    4.3336 H       1  LIG1        0.0236
     69 H           4.8036   -2.2979    1.9925 H       1  LIG1        0.0290
     70 H           5.5714   -2.1903    0.4444 H       1  LIG1        0.0290
     71 H           3.1546   -2.5573    0.2067 H       1  LIG1        0.0271
     72 H           3.6871   -1.0785   -0.5820 H       1  LIG1        0.0271
     73 H           7.1987    0.2676    2.1819 H       1  LIG1        0.2098
     74 H          -5.1934   -2.5106   -1.4875 H       1  LIG1        0.0271
     75 H          -5.7420   -1.1260   -2.4083 H       1  LIG1        0.0271
     76 H          -4.4592   -1.1893    0.3100 H       1  LIG1        0.0272
     77 H          -5.8825   -0.2773   -0.1972 H       1  LIG1        0.0272
     78 H          -5.3340   -0.4017   -4.3391 H       1  LIG1        0.0534
     79 H          -4.3426   -0.9233   -5.7897 H       1  LIG1        0.0534
     80 H          -2.1847   -3.0803   -4.1947 H       1  LIG1        0.0274
     81 H          -1.3684   -1.4973   -4.2359 H       1  LIG1        0.0274
     82 H          -2.3200   -2.0419   -5.6157 H       1  LIG1        0.0274
@<TRIPOS>BOND
     1     1     2    1
     2     1     3    1
     3     3     4    1
     4     4     5    1
     5     4     6    1
     6     6     7    1
     7     6     8    1
     8     8     9    1
     9     9    10    1
    10     3    10    1
    11     8    11    1
    12     8    12    1
    13    12    13    1
    14    12    14    1
    15    14    15    1
    16    14    16    1
    17    16    17    1
    18     6    17    1
    19    14    18    1
    20    18    19    1
    21    18    20    1
    22    20    21    1
    23    20    22    1
    24    22    23    1
    25    12    23    1
    26    20    24    1
    27    24    25    1
    28    24    26    1
    29    24    27    1
    30    27    28    1
    31    27    29    1
    32    29    30    1
    33    18    30    1
    34    27    31    1
    35     4    32    1
    36    32    33    1
    37    32    34    1
    38    34    35    1
    39     3    35    1
    40    32    36    1
    41    36    37    2
    42    36    38    1
    43     1    39    1
    44     1    40    1
    45     2    41    1
    46     9    42    1
    47     9    43    1
    48    10    44    1
    49    10    45    1
    50    11    46    1
    51    11    47    1
    52    11    48    1
    53    13    49    1
    54    13    50    1
    55    13    51    1
    56    16    52    1
    57    16    53    1
    58    17    54    1
    59    17    55    1
    60    19    56    1
    61    19    57    1
    62    19    58    1
    63    22    59    1
    64    22    60    1
    65    23    61    1
    66    23    62    1
    67    25    63    1
    68    25    64    1
    69    25    65    1
    70    26    66    1
    71    26    67    1
    72    26    68    1
    73    29    69    1
    74    29    70    1
    75    30    71    1
    76    30    72    1
    77    31    73    1
    78    34    74    1
    79    34    75    1
    80    35    76    1
    81    35    77    1
    82    37    78    1
    83    37    79    1
    84    38    80    1
    85    38    81    1
    86    38    82    1
