@<TRIPOS>MOLECULE
NuBBE_941
 38 40 0 0 0
SMALL
GASTEIGER

@<TRIPOS>ATOM
      1 C           0.4461    5.6822   -0.0066 C.3     1  LIG1        0.0789
      2 O          -0.1090    4.3909   -0.2252 O.3     1  LIG1       -0.4930
      3 C           0.5687    3.3229    0.3073 C.ar    1  LIG1        0.1441
      4 C           0.0243    2.0564    0.0329 C.ar    1  LIG1        0.0949
      5 N          -1.1426    1.9616   -0.7396 N.ar    1  LIG1       -0.3187
      6 C          -1.7563    0.7866   -1.0540 C.ar    1  LIG1        0.2585
      7 C          -1.1338   -0.4629   -0.5465 C.ar    1  LIG1        0.0899
      8 C           0.0020   -0.4132    0.1730 C.ar    1  LIG1        0.1415
      9 O           0.6839   -1.5251    0.6250 O.3     1  LIG1       -0.4824
     10 C           0.2772   -2.8108    0.1074 C.3     1  LIG1        0.1335
     11 C          -1.2568   -2.8984   -0.0242 C.3     1  LIG1        0.1243
     12 H          -1.7109   -2.8203    0.9739 H       1  LIG1        0.0663
     13 C          -1.7960   -1.7559   -0.8981 C.3     1  LIG1        0.1182
     14 H          -1.6391   -1.9822   -1.9595 H       1  LIG1        0.0674
     15 O          -3.2168   -1.7196   -0.7005 O.3     1  LIG1       -0.3842
     16 O          -1.6810   -4.1578   -0.5625 O.3     1  LIG1       -0.3849
     17 C           1.0153   -3.0636   -1.2178 C.3     1  LIG1       -0.0226
     18 C           0.7652   -3.8487    1.1302 C.3     1  LIG1       -0.0226
     19 O          -2.7839    0.7458   -1.7269 O.2     1  LIG1       -0.2674
     20 H          -1.5607    2.8216   -1.0754 H       1  LIG1        0.1690
     21 C           0.6194    0.8811    0.5108 C.ar    1  LIG1        0.0442
     22 C           1.7806    0.9872    1.2837 C.ar    1  LIG1       -0.0489
     23 C           2.3288    2.2402    1.5679 C.ar    1  LIG1       -0.0575
     24 C           1.7267    3.4044    1.0817 C.ar    1  LIG1       -0.0179
     25 H          -0.1948    6.4109   -0.5121 H       1  LIG1        0.0660
     26 H           1.4475    5.7609   -0.4428 H       1  LIG1        0.0660
     27 H           0.4568    5.9311    1.0596 H       1  LIG1        0.0660
     28 H          -3.5405   -0.9386   -1.2001 H       1  LIG1        0.2104
     29 H          -2.6498   -4.0742   -0.6688 H       1  LIG1        0.2101
     30 H           0.7594   -2.3168   -1.9763 H       1  LIG1        0.0269
     31 H           0.7930   -4.0555   -1.6241 H       1  LIG1        0.0269
     32 H           2.0997   -2.9860   -1.0750 H       1  LIG1        0.0269
     33 H           0.3000   -3.6785    2.1080 H       1  LIG1        0.0269
     34 H           1.8469   -3.7631    1.2874 H       1  LIG1        0.0269
     35 H           0.5428   -4.8729    0.8137 H       1  LIG1        0.0269
     36 H           2.2692    0.0965    1.6730 H       1  LIG1        0.0625
     37 H           3.2310    2.3084    2.1718 H       1  LIG1        0.0619
     38 H           2.1875    4.3552    1.3284 H       1  LIG1        0.0655
@<TRIPOS>BOND
     1     1     2    1
     2     2     3    1
     3     3     4   ar
     4     4     5   ar
     5     5     6   ar
     6     6     7   ar
     7     7     8   ar
     8     8     9    1
     9     9    10    1
    10    10    11    1
    11    11    13    1
    12     7    13    1
    13    10    17    1
    14    10    18    1
    15     6    19    2
    16     5    20    1
    17     4    21   ar
    18     8    21   ar
    19    21    22   ar
    20    22    23   ar
    21    23    24   ar
    22     3    24   ar
    23    11    16    1
    24    11    12    1
    25    13    15    1
    26    13    14    1
    27     1    25    1
    28     1    26    1
    29     1    27    1
    30    15    28    1
    31    16    29    1
    32    17    30    1
    33    17    31    1
    34    17    32    1
    35    18    33    1
    36    18    34    1
    37    18    35    1
    38    22    36    1
    39    23    37    1
    40    24    38    1
