REMARK  Name = NuBBE_1476
REMARK  6 active torsions:
REMARK  status: ('A' for Active; 'I' for Inactive)
REMARK    1  A    between atoms: O_1  and  C_2
REMARK    2  A    between atoms: C_4  and  O_5
REMARK    3  A    between atoms: O_5  and  C_6
REMARK    4  A    between atoms: C_7  and  O_20
REMARK    5  A    between atoms: C_15  and  O_16
REMARK    6  A    between atoms: O_20  and  C_21
REMARK                            x       y       z     vdW  Elec       q    Type
REMARK                         _______ _______ _______ _____ _____    ______ ____
ROOT
ATOM      1  C   LIG A   1      -1.939   1.356  -0.037  0.00  0.00    +0.133 A 
ATOM      2  C   LIG A   1      -1.209   2.540   0.063  0.00  0.00    +0.095 A 
ATOM      3  C   LIG A   1       0.191   2.530   0.034  0.00  0.00    +0.167 A 
ATOM      4  C   LIG A   1       0.871   1.309  -0.157  0.00  0.00    +0.186 A 
ATOM      5  C   LIG A   1       0.123   0.100  -0.258  0.00  0.00    +0.100 A 
ATOM      6  C   LIG A   1      -1.284   0.129  -0.168  0.00  0.00    +0.091 A 
ATOM      7  C   LIG A   1      -2.036  -1.168  -0.217  0.00  0.00    +0.201 A 
ATOM      8  C   LIG A   1      -1.272  -2.440  -0.230  0.00  0.00    +0.049 A 
ATOM      9  C   LIG A   1      -1.948  -3.667  -0.142  0.00  0.00    +0.014 A 
ATOM     10  C   LIG A   1      -1.226  -4.859  -0.131  0.00  0.00    +0.004 A 
ATOM     11  C   LIG A   1       0.166  -4.827  -0.207  0.00  0.00    +0.047 A 
ATOM     12  C   LIG A   1       0.828  -3.597  -0.301  0.00  0.00    +0.141 A 
ATOM     13  C   LIG A   1       0.120  -2.388  -0.329  0.00  0.00    +0.093 A 
ATOM     14  N   LIG A   1       0.777  -1.149  -0.338  0.00  0.00    -0.348 N 
ATOM     15  O   LIG A   1      -3.255  -1.228  -0.239  0.00  0.00    -0.286 OA
ATOM     16  H   LIG A   1       1.756  -1.150  -0.611  0.00  0.00    +0.166 HD
ENDROOT
BRANCH   1  17
ATOM     17  O   LIG A   1      -3.301   1.434   0.008  0.00  0.00    -0.506 OA
ATOM     18  H   LIG A   1      -3.594   2.357   0.006  0.00  0.00    +0.292 HD
ENDBRANCH   1  17
BRANCH   3  19
ATOM     19  O   LIG A   1       0.896   3.704   0.121  0.00  0.00    -0.491 OA
ATOM     20  C   LIG A   1       0.357   4.721   0.963  0.00  0.00    +0.277 C 
ENDBRANCH   3  19
BRANCH  12  21
ATOM     21  O   LIG A   1       2.196  -3.555  -0.358  0.00  0.00    -0.505 OA
ATOM     22  H   LIG A   1       2.537  -4.450  -0.198  0.00  0.00    +0.292 HD
ENDBRANCH  12  21
BRANCH   4  23
ATOM     23  O   LIG A   1       2.237   1.133  -0.251  0.00  0.00    -0.489 OA
ATOM     24  C   LIG A   1       3.084   2.270  -0.121  0.00  0.00    +0.277 C 
ENDBRANCH   4  23
TORSDOF 4
