@<TRIPOS>MOLECULE
NuBBE_2025
 38 40 0 0 0
SMALL
GASTEIGER

@<TRIPOS>ATOM
      1 O          -1.0292   -0.6656   -0.0076 O.2     1  LIG1       -0.2863
      2 C           0.1856   -0.5629    0.0620 C.ar    1  LIG1        0.2038
      3 C           1.0034   -1.7932    0.0819 C.ar    1  LIG1        0.1097
      4 C           0.3989   -3.0640   -0.0103 C.ar    1  LIG1        0.1768
      5 O          -0.9672   -3.1850   -0.0500 O.3     1  LIG1       -0.5027
      6 C           1.2034   -4.2090   -0.0689 C.ar    1  LIG1        0.2040
      7 O           0.8152   -5.5194   -0.1962 O.3     1  LIG1       -0.4885
      8 C          -0.5727   -5.7901   -0.3551 C.3     1  LIG1        0.0791
      9 C           2.5968   -4.0436   -0.0039 C.ar    1  LIG1        0.1657
     10 O           3.4219   -5.1353   -0.0773 O.3     1  LIG1       -0.5031
     11 C           3.1938   -2.7940    0.1180 C.ar    1  LIG1        0.0267
     12 C           2.3857   -1.6639    0.1565 C.ar    1  LIG1        0.1456
     13 O           3.0198   -0.4528    0.2511 O.2     1  LIG1       -0.4618
     14 C           2.2402    0.6817    0.2132 C.ar    1  LIG1        0.1038
     15 C           0.9018    0.7493    0.1099 C.ar    1  LIG1        0.0645
     16 C           0.1921    2.0514    0.0695 C.ar    1  LIG1       -0.0076
     17 C          -1.1082    2.1591    0.5793 C.ar    1  LIG1       -0.0086
     18 C          -1.8222    3.3600    0.5318 C.ar    1  LIG1        0.1590
     19 O          -3.0829    3.3705    1.0587 O.3     1  LIG1       -0.5033
     20 C          -1.2425    4.5069   -0.0101 C.ar    1  LIG1        0.1613
     21 O          -1.7983    5.7555   -0.0852 O.3     1  LIG1       -0.4915
     22 C          -3.2155    5.8079   -0.2124 C.3     1  LIG1        0.0790
     23 C           0.0658    4.4234   -0.4957 C.ar    1  LIG1       -0.0157
     24 C           0.7685    3.2094   -0.4780 C.ar    1  LIG1       -0.0501
     25 H          -1.3688   -2.2861   -0.0310 H       1  LIG1        0.2923
     26 H          -0.6925   -6.8744   -0.4395 H       1  LIG1        0.0660
     27 H          -0.9599   -5.3470   -1.2792 H       1  LIG1        0.0660
     28 H          -1.1426   -5.4775    0.5253 H       1  LIG1        0.0660
     29 H           2.8227   -5.9003   -0.1889 H       1  LIG1        0.2923
     30 H           4.2752   -2.7073    0.1615 H       1  LIG1        0.0692
     31 H           2.8961    1.5442    0.2870 H       1  LIG1        0.1037
     32 H          -1.5840    1.2969    1.0376 H       1  LIG1        0.0661
     33 H          -3.3337    2.4655    1.3074 H       1  LIG1        0.2923
     34 H          -3.4986    6.8549   -0.3567 H       1  LIG1        0.0660
     35 H          -3.7276    5.4849    0.6968 H       1  LIG1        0.0660
     36 H          -3.5515    5.2437   -1.0894 H       1  LIG1        0.0660
     37 H           0.5430    5.3108   -0.9074 H       1  LIG1        0.0655
     38 H           1.7681    3.1955   -0.9047 H       1  LIG1        0.0625
@<TRIPOS>BOND
     1     1     2    2
     2     2     3   ar
     3     3     4   ar
     4     4     5    1
     5     4     6   ar
     6     6     7    1
     7     7     8    1
     8     6     9   ar
     9     9    10    1
    10     9    11   ar
    11    11    12   ar
    12     3    12   ar
    13    12    13   ar
    14    13    14   ar
    15    14    15   ar
    16     2    15   ar
    17    15    16    1
    18    16    17   ar
    19    17    18   ar
    20    18    19    1
    21    18    20   ar
    22    20    21    1
    23    21    22    1
    24    20    23   ar
    25    23    24   ar
    26    16    24   ar
    27     5    25    1
    28     8    26    1
    29     8    27    1
    30     8    28    1
    31    10    29    1
    32    11    30    1
    33    14    31    1
    34    17    32    1
    35    19    33    1
    36    22    34    1
    37    22    35    1
    38    22    36    1
    39    23    37    1
    40    24    38    1
