REMARK  Name = NuBBE_2091
REMARK  10 active torsions:
REMARK  status: ('A' for Active; 'I' for Inactive)
REMARK    1  A    between atoms: C_2  and  C_12
REMARK    2  A    between atoms: N_3  and  C_4
REMARK    3  A    between atoms: C_4  and  C_5
REMARK    4  A    between atoms: C_5  and  O_6
REMARK    5  A    between atoms: C_5  and  C_10
REMARK    6  A    between atoms: C_5  and  C_11
REMARK    7  A    between atoms: O_6  and  C_7
REMARK    8  A    between atoms: C_7  and  C_8
REMARK    9  A    between atoms: C_13  and  C_14
REMARK   10  A    between atoms: C_15  and  C_16
REMARK                            x       y       z     vdW  Elec       q    Type
REMARK                         _______ _______ _______ _____ _____    ______ ____
ROOT
ATOM      1  C   LIG A   1       0.279   0.646  -0.279  0.00  0.00    +0.067 C 
ATOM      2  C   LIG A   1      -0.057   1.469   0.723  0.00  0.00    +0.005 C 
ENDROOT
BRANCH   1   4
ATOM      3  O   LIG A   1      -0.880  -1.403   0.069  0.00  0.00    -0.271 OA
ATOM      4  C   LIG A   1       0.167  -0.831  -0.223  0.00  0.00    +0.237 C 
ATOM      5  N   LIG A   1       1.328  -1.467  -0.562  0.00  0.00    -0.308 N 
ATOM      6  H   LIG A   1       2.155  -0.905  -0.765  0.00  0.00    +0.149 HD
BRANCH   5   7
ATOM      7  C   LIG A   1       1.437  -2.916  -0.634  0.00  0.00    +0.151 C 
BRANCH   7   8
ATOM      8  C   LIG A   1       2.840  -3.444  -1.042  0.00  0.00    +0.123 C 
ATOM      9  C   LIG A   1       3.929  -3.122  -0.006  0.00  0.00    +0.057 C 
ATOM     10  C   LIG A   1       2.777  -4.983  -1.167  0.00  0.00    +0.057 C 
BRANCH   8  11
ATOM     11  O   LIG A   1       3.212  -2.969  -2.373  0.00  0.00    -0.457 OA
BRANCH  11  12
ATOM     12  C   LIG A   1       3.606  -1.678  -2.550  0.00  0.00    +0.304 C 
ATOM     13  C   LIG A   1       3.938  -1.405  -3.982  0.00  0.00    +0.136 C 
ATOM     14  O   LIG A   1       3.685  -0.826  -1.680  0.00  0.00    -0.251 OA
ENDBRANCH  11  12
ENDBRANCH   8  11
ENDBRANCH   7   8
ENDBRANCH   5   7
ENDBRANCH   1   4
BRANCH   2  15
ATOM     15  C   LIG A   1      -0.446   1.060   2.051  0.00  0.00    +0.001 C 
ATOM     16  C   LIG A   1      -1.571   1.408   2.693  0.00  0.00    +0.008 C 
BRANCH  16  17
ATOM     17  C   LIG A   1      -2.681   2.197   2.150  0.00  0.00    -0.021 A 
ATOM     18  C   LIG A   1      -2.686   3.594   2.250  0.00  0.00    +0.057 A 
ATOM     19  C   LIG A   1      -3.796   4.268   1.779  0.00  0.00    +0.167 A 
ATOM     20  O   LIG A   1      -3.977   5.616   1.805  0.00  0.00    -0.453 OA
ATOM     21  C   LIG A   1      -5.279   5.728   1.192  0.00  0.00    +0.466 C 
ATOM     22  O   LIG A   1      -5.861   4.455   0.843  0.00  0.00    -0.453 OA
ATOM     23  C   LIG A   1      -4.871   3.607   1.230  0.00  0.00    +0.166 A 
ATOM     24  C   LIG A   1      -4.895   2.235   1.112  0.00  0.00    +0.050 A 
ATOM     25  C   LIG A   1      -3.782   1.525   1.575  0.00  0.00    +0.012 A 
ENDBRANCH  16  17
ENDBRANCH   2  15
TORSDOF 7
