@<TRIPOS>MOLECULE
NuBBE_834
 52 54 0 0 0
SMALL
GASTEIGER

@<TRIPOS>ATOM
      1 O          -4.9451   -1.3334    2.1646 O.2     1  LIG1       -0.2448
      2 C          -3.7478   -1.1725    2.1726 C.2     1  LIG1        0.3446
      3 O          -3.0107   -1.1892    3.3147 O.3     1  LIG1       -0.4418
      4 C          -1.7279   -0.6715    3.0361 C.3     1  LIG1        0.2000
      5 C          -1.7001   -0.5485    1.5531 C.2     1  LIG1        0.0315
      6 C          -0.4795    0.0746    1.0704 C.2     1  LIG1        0.0269
      7 C           0.2694   -0.4109    0.0631 C.2     1  LIG1        0.1006
      8 O           1.4917    0.1176   -0.3314 O.2     1  LIG1       -0.4629
      9 C           1.9260    1.3100    0.2498 C.2     1  LIG1        0.1279
     10 C           3.1040    1.9070   -0.3428 C.2     1  LIG1       -0.0230
     11 C           4.1071    1.2234   -0.9183 C.2     1  LIG1       -0.0777
     12 C           5.2864    1.8827   -1.6002 C.3     1  LIG1       -0.0256
     13 H           5.2100    2.9731   -1.4967 H       1  LIG1        0.0340
     14 C           6.5969    1.4549   -0.9309 C.3     1  LIG1       -0.0590
     15 C           5.2966    1.5429   -3.1039 C.3     1  LIG1       -0.0499
     16 C           4.0586    2.0536   -3.8373 C.3     1  LIG1       -0.0648
     17 C           1.2630    1.8955    1.2617 C.2     1  LIG1       -0.0100
     18 C           0.1081    1.2113    1.8331 C.2     1  LIG1        0.0108
     19 C          -0.4300    1.5674    3.0218 C.2     1  LIG1        0.0956
     20 CL          0.1137    2.8951    3.9873 Cl      1  LIG1       -0.0791
     21 C          -2.8689   -0.9123    1.0043 C.2     1  LIG1        0.1138
     22 C          -3.3042   -0.8714   -0.4188 C.2     1  LIG1        0.1959
     23 C          -4.4904   -1.6913   -0.8904 C.2     1  LIG1       -0.0071
     24 C          -5.1619   -1.2323   -2.1606 C.3     1  LIG1       -0.0364
     25 C          -4.9224   -2.7771   -0.2182 C.2     1  LIG1       -0.0805
     26 C          -6.1684   -3.5591   -0.4896 C.3     1  LIG1       -0.0462
     27 O          -2.7027   -0.1567   -1.2213 O.2     1  LIG1       -0.2868
     28 C          -0.6919   -1.6539    3.5911 C.3     1  LIG1       -0.0130
     29 C          -1.5335    0.7393    3.6195 C.2     1  LIG1        0.2224
     30 O          -2.2325    1.1699    4.5355 O.2     1  LIG1       -0.2864
     31 H           0.0370   -1.2814   -0.5356 H       1  LIG1        0.1036
     32 H           3.1505    2.9945   -0.3119 H       1  LIG1        0.0651
     33 H           4.0780    0.1352   -0.9410 H       1  LIG1        0.0576
     34 H           6.5845    1.6906    0.1396 H       1  LIG1        0.0235
     35 H           7.4504    1.9826   -1.3719 H       1  LIG1        0.0235
     36 H           6.7792    0.3794   -1.0356 H       1  LIG1        0.0235
     37 H           5.3685    0.4570   -3.2456 H       1  LIG1        0.0268
     38 H           6.1844    1.9811   -3.5767 H       1  LIG1        0.0268
     39 H           3.1330    1.6963   -3.3760 H       1  LIG1        0.0230
     40 H           4.0611    1.7048   -4.8745 H       1  LIG1        0.0230
     41 H           4.0353    3.1480   -3.8462 H       1  LIG1        0.0230
     42 H           1.6099    2.8326    1.6847 H       1  LIG1        0.0661
     43 H          -5.0155   -0.1668   -2.3581 H       1  LIG1        0.0279
     44 H          -6.2461   -1.3910   -2.1270 H       1  LIG1        0.0279
     45 H          -4.7677   -1.7981   -3.0129 H       1  LIG1        0.0279
     46 H          -4.3941   -3.1396    0.6571 H       1  LIG1        0.0573
     47 H          -6.4436   -3.5773   -1.5459 H       1  LIG1        0.0272
     48 H          -6.9966   -3.1369    0.0909 H       1  LIG1        0.0272
     49 H          -6.0272   -4.5937   -0.1632 H       1  LIG1        0.0272
     50 H          -0.7905   -2.6391    3.1186 H       1  LIG1        0.0276
     51 H          -0.8430   -1.8040    4.6656 H       1  LIG1        0.0276
     52 H           0.3392   -1.3125    3.4475 H       1  LIG1        0.0276
@<TRIPOS>BOND
     1     1     2    2
     2     2     3    1
     3     3     4    1
     4     4     5    1
     5     5     6    1
     6     6     7    2
     7     7     8    1
     8     8     9    1
     9     9    10    1
    10    10    11    2
    11    11    12    1
    12    12    13    1
    13    12    14    1
    14    12    15    1
    15    15    16    1
    16     9    17    2
    17    17    18    1
    18     6    18    1
    19    18    19    2
    20    19    20    1
    21     5    21    2
    22     2    21    1
    23    21    22    1
    24    22    23    1
    25    23    24    1
    26    23    25    2
    27    25    26    1
    28    22    27    2
    29     4    28    1
    30     4    29    1
    31    19    29    1
    32    29    30    2
    33     7    31    1
    34    10    32    1
    35    11    33    1
    36    14    34    1
    37    14    35    1
    38    14    36    1
    39    15    37    1
    40    15    38    1
    41    16    39    1
    42    16    40    1
    43    16    41    1
    44    17    42    1
    45    24    43    1
    46    24    44    1
    47    24    45    1
    48    25    46    1
    49    26    47    1
    50    26    48    1
    51    26    49    1
    52    28    50    1
    53    28    51    1
    54    28    52    1
