@<TRIPOS>MOLECULE
NuBBE_98
 50 53 0 0 0
SMALL
GASTEIGER

@<TRIPOS>ATOM
      1 H          -3.0299    0.2572   -0.0753 H       1  LIG1        0.0564
      2 C          -1.9627   -0.0032   -0.0437 C.3     1  LIG1        0.0642
      3 C          -1.2482    1.1109    0.7286 C.3     1  LIG1       -0.0180
      4 C           0.2017    0.7686    1.1391 C.3     1  LIG1        0.0173
      5 H           0.8408    0.9564    0.2646 H       1  LIG1        0.0398
      6 C           0.6341    1.7201    2.2810 C.2     1  LIG1       -0.0409
      7 C           1.3292    2.9728    1.8156 C.3     1  LIG1        0.0659
      8 O           0.3531    3.9820    1.6073 O.3     1  LIG1       -0.3907
      9 C           0.4239    1.4211    3.5842 C.2     1  LIG1       -0.0851
     10 C           0.7885    2.2173    4.7979 C.3     1  LIG1       -0.0465
     11 C          -1.5226   -0.2065   -1.4679 C.ar    1  LIG1        0.0409
     12 C          -1.4586   -1.4405   -2.0943 C.ar    1  LIG1       -0.0158
     13 C          -0.9622   -1.2329   -3.4067 C.ar    1  LIG1        0.0032
     14 C          -0.6291   -2.0846   -4.4778 C.ar    1  LIG1       -0.0523
     15 C          -0.1398   -1.5326   -5.6665 C.ar    1  LIG1       -0.0611
     16 C           0.0083   -0.1539   -5.7998 C.ar    1  LIG1       -0.0598
     17 C          -0.3192    0.7130   -4.7518 C.ar    1  LIG1       -0.0378
     18 C          -0.7936    0.1461   -3.5625 C.ar    1  LIG1        0.0470
     19 N          -1.1642    0.7489   -2.3762 N.ar    1  LIG1       -0.3562
     20 C          -1.8141   -2.7094   -1.3787 C.3     1  LIG1       -0.0096
     21 C          -2.5270   -2.4050   -0.0339 C.3     1  LIG1        0.0164
     22 N          -1.8336   -1.2996    0.6952 N.pl3   1  LIG1       -0.3264
     23 C          -0.6026   -1.5875    1.2866 C.2     1  LIG1        0.0031
     24 C           0.3847   -0.6972    1.4656 C.2     1  LIG1        0.0573
     25 C           1.7007   -1.2369    1.8948 C.2     1  LIG1        0.3367
     26 O           2.6745   -0.3240    1.6446 O.3     1  LIG1       -0.4646
     27 C           3.9859   -0.6751    2.0860 C.3     1  LIG1        0.0820
     28 O           1.8670   -2.3416    2.3817 O.2     1  LIG1       -0.2453
     29 H          -1.8392    1.3102    1.6345 H       1  LIG1        0.0296
     30 H          -1.2572    2.0466    0.1549 H       1  LIG1        0.0296
     31 H           1.8594    2.8111    0.8718 H       1  LIG1        0.0604
     32 H           2.0748    3.3377    2.5279 H       1  LIG1        0.0604
     33 H          -0.0573    4.1411    2.4753 H       1  LIG1        0.2098
     34 H          -0.0918    0.4914    3.8278 H       1  LIG1        0.0570
     35 H           1.3165    3.1463    4.5741 H       1  LIG1        0.0272
     36 H           1.4254    1.6156    5.4546 H       1  LIG1        0.0272
     37 H          -0.1196    2.4725    5.3540 H       1  LIG1        0.0272
     38 H          -0.7379   -3.1605   -4.3802 H       1  LIG1        0.0624
     39 H           0.1289   -2.1883   -6.4909 H       1  LIG1        0.0618
     40 H           0.3893    0.2556   -6.7326 H       1  LIG1        0.0618
     41 H          -0.1979    1.7855   -4.8607 H       1  LIG1        0.0638
     42 H          -1.1415    1.7463   -2.2138 H       1  LIG1        0.1657
     43 H          -0.8921   -3.2712   -1.1848 H       1  LIG1        0.0329
     44 H          -2.4601   -3.3368   -2.0023 H       1  LIG1        0.0329
     45 H          -2.5705   -3.3080    0.5867 H       1  LIG1        0.0467
     46 H          -3.5655   -2.1036   -0.2231 H       1  LIG1        0.0467
     47 H          -0.4611   -2.6448    1.5078 H       1  LIG1        0.0785
     48 H           4.6999   -0.3158    1.3401 H       1  LIG1        0.0661
     49 H           4.1309   -1.7520    2.2090 H       1  LIG1        0.0661
     50 H           4.1818   -0.1628    3.0321 H       1  LIG1        0.0661
@<TRIPOS>BOND
     1     2     3    1
     2     3     4    1
     3     6     7    1
     4     7     8    1
     5     6     9    2
     6     9    10    1
     7     2    11    1
     8    11    12   ar
     9    12    13   ar
    10    13    14   ar
    11    14    15   ar
    12    15    16   ar
    13    16    17   ar
    14    17    18   ar
    15    13    18   ar
    16    18    19   ar
    17    11    19   ar
    18    12    20    1
    19    20    21    1
    20    21    22    1
    21     2    22    1
    22    22    23    1
    23    23    24    2
    24     4    24    1
    25    25    26    1
    26    26    27    1
    27    25    28    2
    28     1     2    1
    29    24    25    1
    30     4     6    1
    31     4     5    1
    32     3    29    1
    33     3    30    1
    34     7    31    1
    35     7    32    1
    36     8    33    1
    37     9    34    1
    38    10    35    1
    39    10    36    1
    40    10    37    1
    41    14    38    1
    42    15    39    1
    43    16    40    1
    44    17    41    1
    45    19    42    1
    46    20    43    1
    47    20    44    1
    48    21    45    1
    49    21    46    1
    50    23    47    1
    51    27    48    1
    52    27    49    1
    53    27    50    1
