@<TRIPOS>MOLECULE
NuBBE_2179
 52 53 0 0 0
SMALL
GASTEIGER

@<TRIPOS>ATOM
      1 C          -0.9379    0.5001   -0.6770 C.3     1  LIG1        0.0000
      2 H          -0.9928    1.3430   -1.3820 H       1  LIG1        0.0337
      3 C           0.5703    0.1912   -0.4225 C.3     1  LIG1       -0.0216
      4 C           1.4143    0.0239   -1.6742 C.ar    1  LIG1       -0.0433
      5 C           1.5665   -1.2579   -2.2298 C.ar    1  LIG1       -0.0131
      6 C           2.2378   -1.4508   -3.4372 C.ar    1  LIG1        0.1615
      7 O           2.3306   -2.6493   -4.0968 O.3     1  LIG1       -0.4915
      8 C           2.3504   -3.8159   -3.2756 C.3     1  LIG1        0.0790
      9 C           2.7832   -0.3384   -4.0827 C.ar    1  LIG1        0.1585
     10 C           2.7193    0.9296   -3.5122 C.ar    1  LIG1       -0.0163
     11 C           2.0247    1.1144   -2.3107 C.ar    1  LIG1       -0.0549
     12 O           3.3713   -0.4625   -5.3132 O.3     1  LIG1       -0.5033
     13 C          -1.6551   -0.6675   -1.3931 C.3     1  LIG1       -0.0588
     14 C          -1.7131    0.9234    0.6418 C.3     1  LIG1        0.1473
     15 O          -3.0687    1.2414    0.2493 O.3     1  LIG1       -0.3645
     16 C          -3.9481    1.6659    1.2870 C.3     1  LIG1        0.0382
     17 C          -1.0541    2.1734    1.2362 C.2     1  LIG1        0.1367
     18 C          -0.4792    2.1668    2.4603 C.2     1  LIG1        0.0260
     19 C          -0.4559    0.9614    3.3080 C.2     1  LIG1        0.1855
     20 O           0.1011    1.0041    4.3881 O.2     1  LIG1       -0.2875
     21 C          -1.1772   -0.2541    2.8044 C.2     1  LIG1        0.0023
     22 C          -1.7690   -0.2300    1.6155 C.2     1  LIG1       -0.0379
     23 C          -1.2351   -1.4486    3.7391 C.3     1  LIG1       -0.0063
     24 C          -0.0792   -2.3816    3.5018 C.2     1  LIG1       -0.0867
     25 C           1.0791   -2.3173    4.1705 C.2     1  LIG1       -0.1023
     26 O          -1.1736    3.2871    0.4274 O.2     1  LIG1       -0.4960
     27 C          -0.1646    4.2833    0.5094 C.3     1  LIG1        0.0785
     28 H           0.6636   -0.7189    0.1834 H       1  LIG1        0.0317
     29 H           1.0373    0.9856    0.1707 H       1  LIG1        0.0317
     30 H           1.0880   -2.0827   -1.7165 H       1  LIG1        0.0658
     31 H           2.2067   -4.6847   -3.9257 H       1  LIG1        0.0660
     32 H           1.5447   -3.8521   -2.5377 H       1  LIG1        0.0660
     33 H           3.3239   -3.9113   -2.7842 H       1  LIG1        0.0660
     34 H           3.1813    1.7697   -4.0236 H       1  LIG1        0.0655
     35 H           1.9502    2.1137   -1.8866 H       1  LIG1        0.0621
     36 H           3.1364   -1.3598   -5.6221 H       1  LIG1        0.2923
     37 H          -1.1212   -0.9929   -2.2896 H       1  LIG1        0.0234
     38 H          -2.6553   -0.3632   -1.7198 H       1  LIG1        0.0234
     39 H          -1.7683   -1.5446   -0.7498 H       1  LIG1        0.0234
     40 H          -4.7807    2.2038    0.8244 H       1  LIG1        0.0524
     41 H          -3.4751    2.3422    2.0044 H       1  LIG1        0.0524
     42 H          -4.3560    0.7978    1.8128 H       1  LIG1        0.0524
     43 H          -0.0475    3.0458    2.9146 H       1  LIG1        0.0690
     44 H          -2.3287   -1.1039    1.3003 H       1  LIG1        0.0609
     45 H          -2.1617   -2.0080    3.5751 H       1  LIG1        0.0357
     46 H          -1.2772   -1.1331    4.7911 H       1  LIG1        0.0357
     47 H          -0.2115   -3.1488    2.7420 H       1  LIG1        0.0570
     48 H           1.2506   -1.5533    4.9251 H       1  LIG1        0.0532
     49 H           1.8884   -3.0094    3.9629 H       1  LIG1        0.0532
     50 H          -0.4232    5.0739   -0.2014 H       1  LIG1        0.0660
     51 H           0.8020    3.8632    0.2152 H       1  LIG1        0.0660
     52 H          -0.1117    4.7358    1.5032 H       1  LIG1        0.0660
@<TRIPOS>BOND
     1     1     2    1
     2     1     3    1
     3     3     4    1
     4     4     5   ar
     5     5     6   ar
     6     6     7    1
     7     7     8    1
     8     6     9   ar
     9     9    10   ar
    10    10    11   ar
    11     4    11   ar
    12     9    12    1
    13     1    13    1
    14    15    16    1
    15    14    17    1
    16    17    18    2
    17    18    19    1
    18    19    20    2
    19    19    21    1
    20    21    22    2
    21    14    22    1
    22    21    23    1
    23    23    24    1
    24    24    25    2
    25    17    26    1
    26    26    27    1
    27    14    15    1
    28    14     1    1
    29     3    28    1
    30     3    29    1
    31     5    30    1
    32     8    31    1
    33     8    32    1
    34     8    33    1
    35    10    34    1
    36    11    35    1
    37    12    36    1
    38    13    37    1
    39    13    38    1
    40    13    39    1
    41    16    40    1
    42    16    41    1
    43    16    42    1
    44    18    43    1
    45    22    44    1
    46    23    45    1
    47    23    46    1
    48    24    47    1
    49    25    48    1
    50    25    49    1
    51    27    50    1
    52    27    51    1
    53    27    52    1
