@<TRIPOS>MOLECULE
NuBBE_647
 29 31 0 0 0
SMALL
GASTEIGER

@<TRIPOS>ATOM
      1 C          -3.0133    0.2207    2.1268 C.3     1  LIG1       -0.0215
      2 C          -1.4830    0.2555    2.0433 C.3     1  LIG1        0.1235
      3 C          -0.8796    0.1954    3.4511 C.3     1  LIG1       -0.0215
      4 O          -1.0921   -0.9630    1.3775 O.3     1  LIG1       -0.4815
      5 C          -0.2698   -0.8898    0.2894 C.ar    1  LIG1        0.1324
      6 C           0.1304   -2.1188   -0.2446 C.ar    1  LIG1       -0.0185
      7 C           0.9652   -2.1677   -1.3632 C.ar    1  LIG1       -0.0476
      8 C           1.4016   -0.9823   -1.9554 C.ar    1  LIG1        0.0184
      9 C           0.9925    0.2392   -1.4131 C.ar    1  LIG1        0.1496
     10 O           1.4257    1.4505   -2.0038 O.2     1  LIG1       -0.4214
     11 C           2.2503    1.4721   -3.1179 C.ar    1  LIG1        0.3372
     12 C           2.6606    0.1678   -3.6633 C.ar    1  LIG1        0.0236
     13 C           2.2676   -0.9894   -3.1236 C.ar    1  LIG1       -0.0443
     14 O           2.6285    2.5155   -3.6357 O.2     1  LIG1       -0.2452
     15 C           0.1560    0.3070   -0.2901 C.ar    1  LIG1        0.0594
     16 C          -0.2846    1.5726    0.2797 C.2     1  LIG1       -0.0478
     17 C          -1.0518    1.5382    1.3724 C.2     1  LIG1       -0.0408
     18 H          -3.3590   -0.7109    2.5900 H       1  LIG1        0.0271
     19 H          -3.4583    0.2493    1.1246 H       1  LIG1        0.0271
     20 H          -3.4133    1.0620    2.7032 H       1  LIG1        0.0271
     21 H          -1.1677   -0.7310    3.9613 H       1  LIG1        0.0271
     22 H          -1.1937    1.0433    4.0695 H       1  LIG1        0.0271
     23 H           0.2164    0.1927    3.4047 H       1  LIG1        0.0271
     24 H          -0.2127   -3.0420    0.2166 H       1  LIG1        0.0654
     25 H           1.2632   -3.1350   -1.7598 H       1  LIG1        0.0626
     26 H           3.3039    0.2036   -4.5338 H       1  LIG1        0.0689
     27 H           2.5826   -1.9385   -3.5434 H       1  LIG1        0.0627
     28 H           0.0158    2.5084   -0.1782 H       1  LIG1        0.0624
     29 H          -1.3816    2.4743    1.8159 H       1  LIG1        0.0611
@<TRIPOS>BOND
     1     1     2    1
     2     2     3    1
     3     2     4    1
     4     4     5    1
     5     5     6   ar
     6     6     7   ar
     7     7     8   ar
     8     8     9   ar
     9     9    10   ar
    10    10    11   ar
    11    11    12   ar
    12    12    13   ar
    13     8    13   ar
    14    11    14    2
    15     9    15   ar
    16     5    15   ar
    17    15    16    1
    18    16    17    2
    19     2    17    1
    20     1    18    1
    21     1    19    1
    22     1    20    1
    23     3    21    1
    24     3    22    1
    25     3    23    1
    26     6    24    1
    27     7    25    1
    28    12    26    1
    29    13    27    1
    30    16    28    1
    31    17    29    1
