@<TRIPOS>MOLECULE
NuBBE_856
 71 76 0 0 0
SMALL
GASTEIGER

@<TRIPOS>ATOM
      1 O           4.3093    2.2225   -1.8634 O.2     1  LIG1       -0.2478
      2 C           3.6118    1.7628   -0.9523 C.2     1  LIG1        0.3398
      3 C           2.3227    1.1035   -1.2476 C.3     1  LIG1        0.1858
      4 H           1.9191    1.4238   -2.1931 H       1  LIG1        0.0743
      5 C           1.3365    0.6860   -0.1877 C.3     1  LIG1        0.1250
      6 C          -0.1727    0.3210   -0.5072 C.3     1  LIG1        0.0412
      7 C          -0.3579   -0.3639   -1.9202 C.3     1  LIG1        0.1117
      8 H           0.3579   -1.1889   -2.0169 H       1  LIG1        0.0740
      9 C          -1.7690   -0.9603   -2.1306 C.3     1  LIG1       -0.0105
     10 C          -2.1543   -1.9661   -1.0375 C.3     1  LIG1       -0.0164
     11 C          -3.4551   -2.8036   -1.3271 C.3     1  LIG1        0.0311
     12 C          -3.3568   -3.5100   -2.6983 C.3     1  LIG1       -0.0525
     13 C          -3.5609   -3.8889   -0.2455 C.2     1  LIG1        0.1617
     14 C          -2.9929   -3.6135    1.0975 C.2     1  LIG1       -0.0221
     15 C          -2.3523   -2.4717    1.3866 C.2     1  LIG1       -0.0742
     16 C          -2.0841   -1.3330    0.4018 C.3     1  LIG1       -0.0063
     17 C          -0.6260   -0.7296    0.5957 C.3     1  LIG1       -0.0204
     18 C          -0.3423   -0.1913    2.0234 C.3     1  LIG1       -0.0480
     19 C           1.1387    0.1093    2.2438 C.3     1  LIG1       -0.0409
     20 C           1.7363    1.1087    1.2366 C.3     1  LIG1        0.0420
     21 C           3.3124    1.0916    1.3650 C.3     1  LIG1        0.1427
     22 H           3.7047    0.0774    1.2228 H       1  LIG1        0.0794
     23 O           3.9364    1.9210    0.3442 O.3     1  LIG1       -0.4538
     24 C           3.8421    1.6303    2.6586 C.2     1  LIG1        0.0792
     25 C           4.2219    2.8658    2.9927 C.2     1  LIG1       -0.0030
     26 C           4.6897    2.9153    4.3823 C.3     1  LIG1        0.2233
     27 O           5.9926    3.4473    4.4485 O.3     1  LIG1       -0.3545
     28 O           4.6530    1.5655    4.8171 O.3     1  LIG1       -0.4282
     29 C           4.1126    0.7998    3.8316 C.2     1  LIG1        0.3410
     30 O           3.8795   -0.3934    3.9087 O.2     1  LIG1       -0.2451
     31 C           1.2380    2.5478    1.5187 C.3     1  LIG1       -0.0531
     32 C          -3.1729   -0.2725    0.6812 C.3     1  LIG1       -0.0555
     33 O          -4.1548   -4.9526   -0.4148 O.2     1  LIG1       -0.2921
     34 C          -4.7757   -2.0159   -1.3206 C.3     1  LIG1       -0.0525
     35 O          -0.1911    0.5970   -2.9986 O.3     1  LIG1       -0.4609
     36 C           0.7067    0.2956   -3.9807 C.2     1  LIG1        0.3042
     37 C           0.6799    1.3305   -5.0661 C.3     1  LIG1        0.0332
     38 O           1.4578   -0.6685   -3.9847 O.2     1  LIG1       -0.2512
     39 C          -1.0006    1.6291   -0.5125 C.3     1  LIG1       -0.0531
     40 O           2.2404   -0.2514   -0.8042 O.3     1  LIG1       -0.3515
     41 H          -1.7577   -1.4487   -3.1121 H       1  LIG1        0.0304
     42 H          -2.5207   -0.1709   -2.2295 H       1  LIG1        0.0304
     43 H          -1.3416   -2.7141   -1.0676 H       1  LIG1        0.0320
     44 H          -2.4174   -4.0639   -2.7966 H       1  LIG1        0.0239
     45 H          -3.4303   -2.7961   -3.5256 H       1  LIG1        0.0239
     46 H          -4.1710   -4.2319   -2.8388 H       1  LIG1        0.0239
     47 H          -3.1658   -4.3793    1.8465 H       1  LIG1        0.0649
     48 H          -2.0474   -2.3460    2.4219 H       1  LIG1        0.0579
     49 H           0.0559   -1.5897    0.4812 H       1  LIG1        0.0316
     50 H          -0.6183   -0.9308    2.7797 H       1  LIG1        0.0269
     51 H          -0.9308    0.7007    2.2487 H       1  LIG1        0.0269
     52 H           1.6842   -0.8422    2.1829 H       1  LIG1        0.0273
     53 H           1.2659    0.4769    3.2691 H       1  LIG1        0.0273
     54 H           4.1670    3.7304    2.3461 H       1  LIG1        0.0640
     55 H           4.0252    3.5154    5.0119 H       1  LIG1        0.1105
     56 H           6.4682    3.1642    3.6510 H       1  LIG1        0.2139
     57 H           1.5610    2.9125    2.4973 H       1  LIG1        0.0237
     58 H           0.1551    2.6306    1.5483 H       1  LIG1        0.0237
     59 H           1.5983    3.2487    0.7573 H       1  LIG1        0.0237
     60 H          -4.0910   -0.7105    1.0867 H       1  LIG1        0.0238
     61 H          -3.4545    0.2863   -0.2133 H       1  LIG1        0.0238
     62 H          -2.8675    0.4545    1.4372 H       1  LIG1        0.0238
     63 H          -4.6929   -1.0731   -1.8683 H       1  LIG1        0.0239
     64 H          -5.1391   -1.8108   -0.3110 H       1  LIG1        0.0239
     65 H          -5.5795   -2.5955   -1.7923 H       1  LIG1        0.0239
     66 H           0.1243    2.2179   -4.7496 H       1  LIG1        0.0342
     67 H           0.2061    0.9053   -5.9534 H       1  LIG1        0.0342
     68 H           1.7031    1.6432   -5.2953 H       1  LIG1        0.0342
     69 H          -0.4199    2.4635   -0.9205 H       1  LIG1        0.0237
     70 H          -1.3438    1.9159    0.4811 H       1  LIG1        0.0237
     71 H          -1.9054    1.5613   -1.1198 H       1  LIG1        0.0237
@<TRIPOS>BOND
     1     1     2    2
     2     2     3    1
     3     3     4    1
     4     3     5    1
     5     5     6    1
     6     6     7    1
     7     7     8    1
     8     7     9    1
     9     9    10    1
    10    10    11    1
    11    11    12    1
    12    11    13    1
    13    13    14    1
    14    14    15    2
    15    15    16    1
    16    16    17    1
    17    17    18    1
    18    18    19    1
    19    19    20    1
    20    20    21    1
    21    21    22    1
    22    21    23    1
    23     2    23    1
    24    21    24    1
    25    24    25    2
    26    25    26    1
    27    26    27    1
    28    26    28    1
    29    28    29    1
    30    24    29    1
    31    29    30    2
    32    20    31    1
    33    10    16    1
    34    16    32    1
    35    13    33    2
    36    11    34    1
    37     7    35    1
    38    35    36    1
    39    36    37    1
    40    36    38    2
    41    17     6    1
    42     6    39    1
    43    20     5    1
    44     5    40    1
    45     3    40    1
    46     9    41    1
    47     9    42    1
    48    10    43    1
    49    12    44    1
    50    12    45    1
    51    12    46    1
    52    14    47    1
    53    15    48    1
    54    17    49    1
    55    18    50    1
    56    18    51    1
    57    19    52    1
    58    19    53    1
    59    25    54    1
    60    26    55    1
    61    27    56    1
    62    31    57    1
    63    31    58    1
    64    31    59    1
    65    32    60    1
    66    32    61    1
    67    32    62    1
    68    34    63    1
    69    34    64    1
    70    34    65    1
    71    37    66    1
    72    37    67    1
    73    37    68    1
    74    39    69    1
    75    39    70    1
    76    39    71    1
