REMARK  Name = NuBBE_1974
REMARK  6 active torsions:
REMARK  status: ('A' for Active; 'I' for Inactive)
REMARK    1  A    between atoms: S_1  and  S_2
REMARK    2  A    between atoms: S_1  and  C_6
REMARK    3  A    between atoms: S_2  and  C_3
REMARK    4  A    between atoms: C_3  and  C_4
REMARK    5  A    between atoms: C_6  and  C_7
REMARK    6  A    between atoms: C_7  and  C_8
REMARK                            x       y       z     vdW  Elec       q    Type
REMARK                         _______ _______ _______ _____ _____    ______ ____
ROOT
ATOM      1  S   LIG A   1      -1.390   0.083   1.161  0.00  0.00    -0.093 S 
ENDROOT
BRANCH   1   2
ATOM      2  S   LIG A   1      -1.776  -0.828  -0.656  0.00  0.00    -0.089 S 
BRANCH   2   3
ATOM      3  C   LIG A   1      -0.338  -1.933  -0.871  0.00  0.00    +0.107 C 
BRANCH   3   4
ATOM      4  C   LIG A   1      -0.461  -2.689  -2.171  0.00  0.00    -0.023 C 
ATOM      5  C   LIG A   1      -0.699  -3.998  -2.294  0.00  0.00    +0.005 C 
ENDBRANCH   3   4
ENDBRANCH   2   3
ENDBRANCH   1   2
BRANCH   1   6
ATOM      6  C   LIG A   1      -0.143   1.336   0.709  0.00  0.00    +0.080 C 
BRANCH   6   7
ATOM      7  C   LIG A   1       0.272   2.191   1.908  0.00  0.00    +0.008 C 
ATOM      8  C   LIG A   1       1.259   3.277   1.492  0.00  0.00    +0.004 C 
ENDBRANCH   6   7
ENDBRANCH   1   6
TORSDOF 5
