@<TRIPOS>MOLECULE
NuBBE_2003
 52 54 0 0 0
SMALL
GASTEIGER

@<TRIPOS>ATOM
      1 C          -2.6164   -0.6315   -2.1359 C.3     1  LIG1       -0.0327
      2 C          -1.1129   -0.7497   -2.1193 C.ar    1  LIG1        0.0347
      3 C          -0.3028    0.3997   -2.0831 C.ar    1  LIG1        0.1418
      4 C           1.0875    0.2821   -2.0789 C.ar    1  LIG1        0.1012
      5 C           1.8977    1.5142   -2.1514 C.2     1  LIG1        0.1740
      6 C           1.1621    2.8207   -2.1686 C.3     1  LIG1        0.0520
      7 C          -0.1373    2.6698   -1.3870 C.3     1  LIG1        0.1323
      8 H          -0.7221    3.5872   -1.5341 H       1  LIG1        0.0789
      9 C           0.0315    2.5303    0.1297 C.ar    1  LIG1       -0.0033
     10 C           0.6997    3.5098    0.8771 C.ar    1  LIG1       -0.0514
     11 C           0.8439    3.3777    2.2646 C.ar    1  LIG1       -0.0152
     12 C           0.3309    2.2551    2.9203 C.ar    1  LIG1        0.1730
     13 O           0.4569    2.0639    4.3162 O.3     1  LIG1       -0.4223
     14 C           0.4079    3.1269    5.2168 C.2     1  LIG1        0.3093
     15 C           0.4557    2.5901    6.6175 C.3     1  LIG1        0.0336
     16 O           0.2906    4.3156    4.9500 O.2     1  LIG1       -0.2507
     17 C          -0.3010    1.2420    2.1942 C.ar    1  LIG1        0.1626
     18 O          -0.7486    0.1305    2.8636 O.3     1  LIG1       -0.4914
     19 C          -0.8418   -1.0626    2.0776 C.3     1  LIG1        0.0790
     20 C          -0.4962    1.4298    0.8255 C.ar    1  LIG1       -0.0096
     21 O          -0.9316    1.6229   -1.9926 O.3     1  LIG1       -0.4826
     22 O           3.1193    1.4410   -2.2702 O.2     1  LIG1       -0.2917
     23 C           1.6890   -0.9805   -2.0136 C.ar    1  LIG1        0.1372
     24 O           3.0561   -1.1143   -2.0094 O.3     1  LIG1       -0.5056
     25 C           0.9181   -2.1539   -1.9714 C.ar    1  LIG1        0.0344
     26 C           1.6152   -3.4829   -1.8766 C.3     1  LIG1       -0.0327
     27 C          -0.4832   -2.0179   -2.0603 C.ar    1  LIG1        0.1444
     28 O          -1.3276   -3.1339   -2.3580 O.3     1  LIG1       -0.4252
     29 C          -1.3190   -4.4137   -1.7838 C.2     1  LIG1        0.3092
     30 C          -2.0365   -5.3461   -2.7231 C.3     1  LIG1        0.0336
     31 O          -0.8593   -4.7272   -0.7063 O.2     1  LIG1       -0.2507
     32 H          -2.9523    0.3839   -2.3728 H       1  LIG1        0.0280
     33 H          -3.0222   -0.8921   -1.1524 H       1  LIG1        0.0280
     34 H          -3.0548   -1.2867   -2.8943 H       1  LIG1        0.0280
     35 H           0.9540    3.0571   -3.2192 H       1  LIG1        0.0385
     36 H           1.8062    3.6010   -1.7531 H       1  LIG1        0.0385
     37 H           1.0987    4.4025    0.3991 H       1  LIG1        0.0623
     38 H           1.3531    4.1648    2.8135 H       1  LIG1        0.0656
     39 H          -0.5539    2.3273    6.9421 H       1  LIG1        0.0342
     40 H           0.8672    3.3550    7.2827 H       1  LIG1        0.0342
     41 H           1.1092    1.7156    6.6715 H       1  LIG1        0.0342
     42 H          -1.1118   -1.8886    2.7415 H       1  LIG1        0.0660
     43 H           0.1191   -1.3033    1.6078 H       1  LIG1        0.0660
     44 H          -1.6352   -0.9936    1.3257 H       1  LIG1        0.0660
     45 H          -1.0954    0.7093    0.2879 H       1  LIG1        0.0659
     46 H           3.4635   -0.2253   -2.1156 H       1  LIG1        0.2922
     47 H           2.7014   -3.3869   -1.7846 H       1  LIG1        0.0280
     48 H           1.4170   -4.0867   -2.7657 H       1  LIG1        0.0280
     49 H           1.3122   -4.0114   -0.9713 H       1  LIG1        0.0280
     50 H          -3.1032   -5.3468   -2.4952 H       1  LIG1        0.0342
     51 H          -1.6244   -6.3532   -2.6165 H       1  LIG1        0.0342
     52 H          -1.8741   -5.0371   -3.7605 H       1  LIG1        0.0342
@<TRIPOS>BOND
     1     1     2    1
     2     2     3   ar
     3     3     4   ar
     4     4     5    1
     5     5     6    1
     6     6     7    1
     7     9    10   ar
     8    10    11   ar
     9    11    12   ar
    10    12    13    1
    11    13    14    1
    12    14    15    1
    13    14    16    2
    14    12    17   ar
    15    17    18    1
    16    18    19    1
    17    17    20   ar
    18     9    20   ar
    19     7    21    1
    20     3    21    1
    21     5    22    2
    22     4    23   ar
    23    23    24    1
    24    23    25   ar
    25    25    26    1
    26    25    27   ar
    27     2    27   ar
    28    27    28    1
    29    28    29    1
    30    29    30    1
    31    29    31    2
    32     7     9    1
    33     7     8    1
    34     1    32    1
    35     1    33    1
    36     1    34    1
    37     6    35    1
    38     6    36    1
    39    10    37    1
    40    11    38    1
    41    15    39    1
    42    15    40    1
    43    15    41    1
    44    19    42    1
    45    19    43    1
    46    19    44    1
    47    20    45    1
    48    24    46    1
    49    26    47    1
    50    26    48    1
    51    26    49    1
    52    30    50    1
    53    30    51    1
    54    30    52    1
