REMARK  Name = NuBBE_1363
REMARK  6 active torsions:
REMARK  status: ('A' for Active; 'I' for Inactive)
REMARK    1  A    between atoms: C_2  and  C_3
REMARK    2  A    between atoms: C_3  and  C_4
REMARK    3  A    between atoms: C_7  and  C_8
REMARK    4  A    between atoms: C_8  and  C_9
REMARK    5  A    between atoms: C_19  and  N_20
REMARK    6  A    between atoms: C_21  and  C_22
REMARK                            x       y       z     vdW  Elec       q    Type
REMARK                         _______ _______ _______ _____ _____    ______ ____
ROOT
ATOM      1  C   LIG A   1       0.514   1.942   1.590  0.00  0.00    +0.067 C 
ATOM      2  C   LIG A   1       1.622   2.440   0.608  0.00  0.00    +0.022 C 
ATOM      3  C   LIG A   1       1.294   2.008  -0.804  0.00  0.00    +0.030 C 
ATOM      4  C   LIG A   1       1.346   0.465  -0.644  0.00  0.00    +0.046 C 
ATOM      5  C   LIG A   1       2.890   1.608   0.783  0.00  0.00    +0.091 C 
ATOM      6  N   LIG A   1       2.421   0.237   0.435  0.00  0.00    -0.279 NA
ATOM      7  C   LIG A   1       1.646  -0.185   1.632  0.00  0.00    +0.129 C 
ATOM      8  N   LIG A   1       0.325   0.452   1.475  0.00  0.00    -0.275 NA
ATOM      9  C   LIG A   1       0.027   0.036   0.074  0.00  0.00    +0.106 C 
ATOM     10  C   LIG A   1      -0.340  -1.450   0.104  0.00  0.00    -0.037 C 
ATOM     11  C   LIG A   1       0.735  -2.364   0.631  0.00  0.00    +0.036 C 
ATOM     12  C   LIG A   1       1.522  -1.710   1.757  0.00  0.00    +0.039 C 
ATOM     13  C   LIG A   1      -1.566  -1.851  -0.283  0.00  0.00    +0.075 C 
ENDROOT
BRANCH  13  14
ATOM     14  N   LIG A   1      -1.995  -3.154  -0.283  0.00  0.00    -0.292 N 
ATOM     15  C   LIG A   1      -3.261  -3.541  -0.695  0.00  0.00    +0.214 C 
ATOM     16  C   LIG A   1      -3.466  -5.031  -0.581  0.00  0.00    +0.109 C 
ATOM     17  O   LIG A   1      -4.127  -2.791  -1.115  0.00  0.00    -0.276 OA
ATOM     18  H   LIG A   1      -1.366  -3.874   0.047  0.00  0.00    +0.154 HD
ENDBRANCH  13  14
BRANCH   1  19
ATOM     19  C   LIG A   1      -0.849   2.687   1.466  0.00  0.00    +0.045 C 
BRANCH  19  21
ATOM     20  C   LIG A   1      -1.207   5.125   0.912  0.00  0.00    +0.004 C 
ATOM     21  C   LIG A   1      -0.795   4.167   1.754  0.00  0.00    -0.033 C 
ENDBRANCH  19  21
ENDBRANCH   1  19
BRANCH   4  22
ATOM     22  C   LIG A   1       1.623  -0.202  -2.008  0.00  0.00    +0.051 C 
BRANCH  22  23
ATOM     23  C   LIG A   1       0.572   0.109  -3.050  0.00  0.00    -0.033 C 
ATOM     24  C   LIG A   1      -0.472  -0.677  -3.337  0.00  0.00    +0.004 C 
ENDBRANCH  22  23
ENDBRANCH   4  22
TORSDOF 5
