REMARK  Name = NuBBE_2282
REMARK  9 active torsions:
REMARK  status: ('A' for Active; 'I' for Inactive)
REMARK    1  A    between atoms: C_3  and  C_4
REMARK    2  A    between atoms: C_7  and  O_8
REMARK    3  A    between atoms: O_8  and  C_9
REMARK    4  A    between atoms: C_9  and  C_10
REMARK    5  A    between atoms: C_22  and  C_23
REMARK    6  A    between atoms: C_22  and  C_24
REMARK    7  A    between atoms: C_26  and  O_27
REMARK    8  A    between atoms: O_27  and  C_28
REMARK    9  A    between atoms: C_28  and  C_29
REMARK                            x       y       z     vdW  Elec       q    Type
REMARK                         _______ _______ _______ _____ _____    ______ ____
ROOT
ATOM      1  O   LIG A   1      -0.703  -0.558   1.579  0.00  0.00    -0.286 OA
ATOM      2  C   LIG A   1       0.050  -0.501   0.614  0.00  0.00    +0.204 A 
ATOM      3  C   LIG A   1       0.550  -1.710  -0.097  0.00  0.00    +0.064 A 
ATOM      4  C   LIG A   1       1.790  -1.614  -0.595  0.00  0.00    +0.208 A 
ATOM      5  O   LIG A   1       2.575  -0.486  -0.563  0.00  0.00    -0.462 OA
ATOM      6  C   LIG A   1       1.934   0.705  -0.318  0.00  0.00    +0.145 A 
ATOM      7  C   LIG A   1       2.670   1.859  -0.549  0.00  0.00    +0.093 A 
ATOM      8  C   LIG A   1       2.082   3.107  -0.357  0.00  0.00    +0.136 A 
ATOM      9  C   LIG A   1       0.735   3.216   0.022  0.00  0.00    +0.060 A 
ATOM     10  C   LIG A   1       0.174   4.562   0.142  0.00  0.00    +0.015 C 
ATOM     11  C   LIG A   1       0.972   5.617  -0.073  0.00  0.00    +0.020 C 
ATOM     12  C   LIG A   1       2.438   5.503  -0.426  0.00  0.00    +0.123 C 
ATOM     13  C   LIG A   1       2.721   6.182  -1.773  0.00  0.00    +0.060 C 
ATOM     14  C   LIG A   1       3.287   6.177   0.662  0.00  0.00    +0.060 C 
ATOM     15  O   LIG A   1       2.927   4.159  -0.562  0.00  0.00    -0.481 OA
ATOM     16  C   LIG A   1      -0.005   2.032   0.276  0.00  0.00    +0.157 A 
ATOM     17  C   LIG A   1       0.622   0.780   0.157  0.00  0.00    +0.108 A 
ENDROOT
BRANCH   3  18
ATOM     18  C   LIG A   1      -0.183  -2.976  -0.122  0.00  0.00    -0.011 A 
ATOM     19  C   LIG A   1      -0.968  -3.352  -1.223  0.00  0.00    +0.012 A 
ATOM     20  C   LIG A   1      -1.682  -4.558  -1.202  0.00  0.00    +0.047 A 
ATOM     21  C   LIG A   1      -1.593  -5.396  -0.087  0.00  0.00    +0.132 A 
ATOM     22  C   LIG A   1      -0.807  -5.033   1.004  0.00  0.00    +0.047 A 
ATOM     23  C   LIG A   1      -0.097  -3.832   0.980  0.00  0.00    +0.012 A 
BRANCH  21  24
ATOM     24  O   LIG A   1      -2.410  -6.550  -0.093  0.00  0.00    -0.426 OA
BRANCH  24  25
ATOM     25  C   LIG A   1      -2.022  -7.710   0.587  0.00  0.00    +0.309 C 
ATOM     26  C   LIG A   1      -3.126  -8.729   0.509  0.00  0.00    +0.136 C 
ATOM     27  O   LIG A   1      -0.956  -7.918   1.130  0.00  0.00    -0.251 OA
ENDBRANCH  24  25
ENDBRANCH  21  24
ENDBRANCH   3  18
BRANCH  16  28
ATOM     28  O   LIG A   1      -1.353   2.199   0.709  0.00  0.00    -0.424 OA
BRANCH  28  29
ATOM     29  C   LIG A   1      -2.412   1.382   0.285  0.00  0.00    +0.309 C 
ATOM     30  C   LIG A   1      -3.707   1.893   0.856  0.00  0.00    +0.136 C 
ATOM     31  O   LIG A   1      -2.340   0.463  -0.522  0.00  0.00    -0.251 OA
ENDBRANCH  28  29
ENDBRANCH  16  28
TORSDOF 5
