REMARK  Name = NuBBE_1293
REMARK  10 active torsions:
REMARK  status: ('A' for Active; 'I' for Inactive)
REMARK    1  A    between atoms: C_1  and  C_2
REMARK    2  A    between atoms: C_4  and  O_6
REMARK    3  A    between atoms: C_9  and  C_23
REMARK    4  A    between atoms: C_11  and  C_12
REMARK    5  A    between atoms: C_13  and  C_15
REMARK    6  A    between atoms: C_24  and  C_26
REMARK    7  A    between atoms: C_26  and  C_27
REMARK    8  A    between atoms: C_27  and  O_28
REMARK    9  A    between atoms: O_28  and  C_29
REMARK   10  A    between atoms: C_31  and  C_32
REMARK                            x       y       z     vdW  Elec       q    Type
REMARK                         _______ _______ _______ _____ _____    ______ ____
ROOT
ATOM      1  C   LIG A   1       1.671  -2.623  -1.702  0.00  0.00    +0.020 C 
ATOM      2  C   LIG A   1       1.100  -1.768  -0.540  0.00  0.00    +0.040 C 
ATOM      3  C   LIG A   1      -0.091  -2.627   0.027  0.00  0.00    +0.059 C 
ATOM      4  C   LIG A   1      -1.235  -1.774   0.563  0.00  0.00    +0.152 C 
ATOM      5  C   LIG A   1      -1.779  -1.002  -0.656  0.00  0.00    +0.158 C 
ATOM      6  C   LIG A   1      -0.817   0.101  -1.164  0.00  0.00    +0.024 C 
ATOM      7  C   LIG A   1      -1.405   1.256  -0.362  0.00  0.00    -0.033 C 
ATOM      8  C   LIG A   1      -1.244   2.582  -0.219  0.00  0.00    -0.063 C 
ATOM      9  C   LIG A   1      -0.113   3.444  -0.641  0.00  0.00    +0.040 C 
ATOM     10  C   LIG A   1      -2.524   3.199   0.363  0.00  0.00    +0.051 C 
ATOM     11  C   LIG A   1      -3.539   2.059   0.101  0.00  0.00    +0.048 C 
ATOM     12  C   LIG A   1      -2.677   0.832   0.303  0.00  0.00    +0.146 C 
ATOM     13  O   LIG A   1      -3.048  -0.354  -0.368  0.00  0.00    -0.366 OA
ATOM     14  C   LIG A   1      -1.199   0.371  -2.644  0.00  0.00    +0.019 C 
ATOM     15  C   LIG A   1       0.731  -0.242  -0.971  0.00  0.00    +0.026 C 
ATOM     16  C   LIG A   1       0.300  -3.749   0.988  0.00  0.00    -0.070 C 
ATOM     17  C   LIG A   1      -0.735  -4.813   1.249  0.00  0.00    +0.039 C 
ATOM     18  C   LIG A   1       1.527  -3.859   1.518  0.00  0.00    -0.020 C 
ATOM     19  C   LIG A   1       2.646  -2.913   1.272  0.00  0.00    +0.102 C 
ATOM     20  C   LIG A   1       2.212  -1.664   0.540  0.00  0.00    +0.144 C 
ATOM     21  O   LIG A   1       2.854  -0.627   0.737  0.00  0.00    -0.296 OA
ENDROOT
BRANCH  10  22
ATOM     22  C   LIG A   1      -2.434   3.575   1.817  0.00  0.00    -0.003 A 
ATOM     23  C   LIG A   1      -3.430   4.161   2.579  0.00  0.00    +0.199 A 
ATOM     24  O   LIG A   1      -3.017   4.364   3.856  0.00  0.00    -0.471 OA
ATOM     25  C   LIG A   1      -1.742   3.910   3.932  0.00  0.00    +0.195 A 
ATOM     26  C   LIG A   1      -1.339   3.413   2.716  0.00  0.00    +0.045 A 
ENDBRANCH  10  22
BRANCH   4  27
ATOM     27  O   LIG A   1      -0.750  -0.940   1.613  0.00  0.00    -0.389 OA
ATOM     28  H   LIG A   1      -0.510  -1.516   2.360  0.00  0.00    +0.210 HD
ENDBRANCH   4  27
BRANCH  15  29
ATOM     29  C   LIG A   1       1.612   0.318  -2.144  0.00  0.00    +0.126 C 
BRANCH  29  30
ATOM     30  C   LIG A   1       3.123   0.167  -2.102  0.00  0.00    +0.307 C 
ATOM     31  O   LIG A   1       3.724  -0.699  -2.743  0.00  0.00    -0.251 OA
BRANCH  30  32
ATOM     32  O   LIG A   1       3.723   1.127  -1.360  0.00  0.00    -0.468 OA
ATOM     33  C   LIG A   1       5.140   0.980  -1.201  0.00  0.00    +0.280 C 
ENDBRANCH  30  32
ENDBRANCH  29  30
ENDBRANCH  15  29
TORSDOF 5
