@<TRIPOS>MOLECULE
NuBBE_1755
 26 27 0 0 0
SMALL
GASTEIGER

@<TRIPOS>ATOM
      1 C          -1.6295   -0.2865    1.1060 C.3     1  LIG1       -0.0590
      2 C          -0.0957   -0.2525    1.0576 C.3     1  LIG1       -0.0253
      3 C           0.4095   -0.1813    2.5119 C.3     1  LIG1       -0.0590
      4 C           0.5987    0.7678    0.0465 C.3     1  LIG1       -0.0145
      5 C           1.7671   -0.2820   -0.0309 C.3     1  LIG1       -0.0424
      6 C           0.6304   -1.3410    0.1504 C.3     1  LIG1       -0.0314
      7 C          -0.0414   -1.6282   -1.2089 C.3     1  LIG1       -0.0311
      8 C          -0.3843   -0.3144   -1.8824 C.2     1  LIG1       -0.0845
      9 C          -0.1011    0.8612   -1.2879 C.2     1  LIG1       -0.0729
     10 C          -0.4503    2.2069   -1.8290 C.3     1  LIG1       -0.0435
     11 H          -2.0166    0.5733    1.6646 H       1  LIG1        0.0235
     12 H          -1.9760   -1.1978    1.6056 H       1  LIG1        0.0235
     13 H          -2.1055   -0.2616    0.1236 H       1  LIG1        0.0235
     14 H           0.0047    0.7038    3.0154 H       1  LIG1        0.0235
     15 H           1.4973   -0.1259    2.5965 H       1  LIG1        0.0235
     16 H           0.0858   -1.0660    3.0716 H       1  LIG1        0.0235
     17 H           0.8760    1.7410    0.4622 H       1  LIG1        0.0351
     18 H           2.5037   -0.2309    0.7774 H       1  LIG1        0.0274
     19 H           2.3341   -0.3271   -0.9676 H       1  LIG1        0.0274
     20 H           0.9297   -2.2585    0.6675 H       1  LIG1        0.0309
     21 H          -0.9518   -2.2188   -1.0629 H       1  LIG1        0.0310
     22 H           0.6353   -2.2037   -1.8498 H       1  LIG1        0.0310
     23 H          -0.8947   -0.3535   -2.8408 H       1  LIG1        0.0572
     24 H          -1.0437    2.1327   -2.7461 H       1  LIG1        0.0274
     25 H           0.4569    2.7750   -2.0546 H       1  LIG1        0.0274
     26 H          -1.0386    2.7678   -1.0958 H       1  LIG1        0.0274
@<TRIPOS>BOND
     1     1     2    1
     2     2     3    1
     3     2     4    1
     4     4     5    1
     5     5     6    1
     6     2     6    1
     7     6     7    1
     8     7     8    1
     9     8     9    2
    10     4     9    1
    11     9    10    1
    12     1    11    1
    13     1    12    1
    14     1    13    1
    15     3    14    1
    16     3    15    1
    17     3    16    1
    18     4    17    1
    19     5    18    1
    20     5    19    1
    21     6    20    1
    22     7    21    1
    23     7    22    1
    24     8    23    1
    25    10    24    1
    26    10    25    1
    27    10    26    1
