@<TRIPOS>MOLECULE
NuBBE_1747
 26 25 0 0 0
SMALL
GASTEIGER

@<TRIPOS>ATOM
      1 C           1.9174   -1.1319   -1.2772 C.2     1  LIG1       -0.0547
      2 C           2.2679   -2.4031   -1.5331 C.2     1  LIG1       -0.0955
      3 C           1.2438   -0.7798    0.0347 C.3     1  LIG1       -0.0248
      4 C          -0.2843   -0.7948   -0.0902 C.3     1  LIG1       -0.0306
      5 C          -0.9457   -0.4234    1.2103 C.2     1  LIG1       -0.0850
      6 C          -1.7648    0.6190    1.4504 C.2     1  LIG1       -0.0796
      7 C          -2.1709    1.6546    0.4382 C.3     1  LIG1       -0.0440
      8 C          -2.3608    0.8274    2.8187 C.3     1  LIG1       -0.0440
      9 C           2.2022   -0.0958   -2.2612 C.2     1  LIG1       -0.0662
     10 C           1.9376    1.2096   -2.1441 C.2     1  LIG1       -0.0985
     11 H           2.0665   -3.1974   -0.8188 H       1  LIG1        0.0537
     12 H           2.7534   -2.6980   -2.4588 H       1  LIG1        0.0537
     13 H           1.5959    0.1904    0.4052 H       1  LIG1        0.0316
     14 H           1.5481   -1.4997    0.8080 H       1  LIG1        0.0316
     15 H          -0.6220   -1.8030   -0.3624 H       1  LIG1        0.0311
     16 H          -0.5969   -0.1443   -0.9106 H       1  LIG1        0.0311
     17 H          -0.7260   -1.1079    2.0305 H       1  LIG1        0.0572
     18 H          -1.7104    1.5182   -0.5416 H       1  LIG1        0.0274
     19 H          -1.8854    2.6518    0.7885 H       1  LIG1        0.0274
     20 H          -3.2560    1.6340    0.2942 H       1  LIG1        0.0274
     21 H          -2.0537    0.0535    3.5301 H       1  LIG1        0.0274
     22 H          -3.4543    0.8100    2.7620 H       1  LIG1        0.0274
     23 H          -2.0483    1.7951    3.2244 H       1  LIG1        0.0274
     24 H           2.6825   -0.4258   -3.1835 H       1  LIG1        0.0614
     25 H           1.4635    1.6448   -1.2698 H       1  LIG1        0.0535
     26 H           2.2008    1.8965   -2.9439 H       1  LIG1        0.0535
@<TRIPOS>BOND
     1     1     2    2
     2     1     3    1
     3     3     4    1
     4     4     5    1
     5     5     6    2
     6     6     7    1
     7     6     8    1
     8     1     9    1
     9     9    10    2
    10     2    11    1
    11     2    12    1
    12     3    13    1
    13     3    14    1
    14     4    15    1
    15     4    16    1
    16     5    17    1
    17     7    18    1
    18     7    19    1
    19     7    20    1
    20     8    21    1
    21     8    22    1
    22     8    23    1
    23     9    24    1
    24    10    25    1
    25    10    26    1
