REMARK  Name = NuBBE_834
REMARK  10 active torsions:
REMARK  status: ('A' for Active; 'I' for Inactive)
REMARK    1  A    between atoms: C_4  and  C_28
REMARK    2  A    between atoms: C_9  and  C_10
REMARK    3  A    between atoms: C_11  and  C_12
REMARK    4  A    between atoms: C_12  and  C_14
REMARK    5  A    between atoms: C_12  and  C_15
REMARK    6  A    between atoms: C_15  and  C_16
REMARK    7  A    between atoms: C_21  and  C_22
REMARK    8  A    between atoms: C_22  and  C_23
REMARK    9  A    between atoms: C_23  and  C_24
REMARK   10  A    between atoms: C_25  and  C_26
REMARK                            x       y       z     vdW  Elec       q    Type
REMARK                         _______ _______ _______ _____ _____    ______ ____
ROOT
ATOM      1  O   LIG A   1      -4.945  -1.333   2.165  0.00  0.00    -0.245 OA
ATOM      2  C   LIG A   1      -3.748  -1.173   2.173  0.00  0.00    +0.345 C 
ATOM      3  O   LIG A   1      -3.011  -1.189   3.315  0.00  0.00    -0.442 OA
ATOM      4  C   LIG A   1      -1.728  -0.671   3.036  0.00  0.00    +0.200 C 
ATOM      5  C   LIG A   1      -1.700  -0.548   1.553  0.00  0.00    +0.032 C 
ATOM      6  C   LIG A   1      -0.479   0.075   1.070  0.00  0.00    +0.027 C 
ATOM      7  C   LIG A   1       0.269  -0.411   0.063  0.00  0.00    +0.204 C 
ATOM      8  O   LIG A   1       1.492   0.118  -0.331  0.00  0.00    -0.463 OA
ATOM      9  C   LIG A   1       1.926   1.310   0.250  0.00  0.00    +0.128 C 
ATOM     10  C   LIG A   1       1.263   1.895   1.262  0.00  0.00    +0.056 C 
ATOM     11  C   LIG A   1       0.108   1.211   1.833  0.00  0.00    +0.011 C 
ATOM     12  C   LIG A   1      -0.430   1.567   3.022  0.00  0.00    +0.096 C 
ATOM     13 CL   LIG A   1       0.114   2.895   3.987  0.00  0.00    -0.079 Cl
ATOM     14  C   LIG A   1      -2.869  -0.912   1.004  0.00  0.00    +0.114 C 
ATOM     15  C   LIG A   1      -0.692  -1.654   3.591  0.00  0.00    +0.070 C 
ATOM     16  C   LIG A   1      -1.534   0.739   3.619  0.00  0.00    +0.222 C 
ATOM     17  O   LIG A   1      -2.232   1.170   4.535  0.00  0.00    -0.286 OA
ENDROOT
BRANCH   9  18
ATOM     18  C   LIG A   1       3.104   1.907  -0.343  0.00  0.00    +0.042 C 
ATOM     19  C   LIG A   1       4.107   1.223  -0.918  0.00  0.00    -0.020 C 
BRANCH  19  20
ATOM     20  C   LIG A   1       5.286   1.883  -1.600  0.00  0.00    +0.008 C 
ATOM     21  C   LIG A   1       6.597   1.455  -0.931  0.00  0.00    +0.012 C 
BRANCH  20  22
ATOM     22  C   LIG A   1       5.297   1.543  -3.104  0.00  0.00    +0.004 C 
ATOM     23  C   LIG A   1       4.059   2.054  -3.837  0.00  0.00    +0.004 C 
ENDBRANCH  20  22
ENDBRANCH  19  20
ENDBRANCH   9  18
BRANCH  14  24
ATOM     24  C   LIG A   1      -3.304  -0.871  -0.419  0.00  0.00    +0.196 C 
ATOM     25  O   LIG A   1      -2.703  -0.157  -1.221  0.00  0.00    -0.287 OA
BRANCH  24  26
ATOM     26  C   LIG A   1      -4.490  -1.691  -0.890  0.00  0.00    -0.007 C 
ATOM     27  C   LIG A   1      -5.162  -1.232  -2.161  0.00  0.00    +0.047 C 
ATOM     28  C   LIG A   1      -4.922  -2.777  -0.218  0.00  0.00    -0.023 C 
ATOM     29  C   LIG A   1      -6.168  -3.559  -0.490  0.00  0.00    +0.035 C 
ENDBRANCH  24  26
ENDBRANCH  14  24
TORSDOF 5
