@<TRIPOS>MOLECULE
NuBBE_2218
 56 57 0 0 0
SMALL
GASTEIGER

@<TRIPOS>ATOM
      1 C           1.3464   -1.5740    1.3499 C.3     1  LIG1        0.1168
      2 H           0.5887   -2.2603    1.7527 H       1  LIG1        0.0681
      3 C           1.0643   -1.4231   -0.1704 C.3     1  LIG1        0.1274
      4 H           1.0040   -2.4626   -0.5156 H       1  LIG1        0.0760
      5 O          -0.2003   -0.7728   -0.3562 O.3     1  LIG1       -0.4825
      6 C          -0.9150   -1.0265   -1.5057 C.ar    1  LIG1        0.1625
      7 C          -2.1417   -0.3477   -1.6581 C.ar    1  LIG1        0.1621
      8 O          -2.5777    0.4091   -0.5999 O.3     1  LIG1       -0.4914
      9 C          -3.4046    1.5275   -0.9081 C.3     1  LIG1        0.0790
     10 C          -2.8890   -0.5218   -2.8430 C.ar    1  LIG1       -0.0092
     11 C          -2.4248   -1.3501   -3.8616 C.ar    1  LIG1       -0.0216
     12 C          -1.2168   -2.0558   -3.6929 C.ar    1  LIG1       -0.0509
     13 C          -0.4853   -1.8859   -2.5141 C.ar    1  LIG1       -0.0157
     14 C          -3.2347   -1.5290   -5.0808 C.2     1  LIG1       -0.0587
     15 C          -2.7065   -1.7390   -6.2975 C.2     1  LIG1       -0.0865
     16 C          -3.5122   -1.9603   -7.5357 C.3     1  LIG1       -0.0465
     17 C           2.1836   -0.7531   -0.9833 C.3     1  LIG1       -0.0250
     18 O           2.6177   -2.2019    1.5629 O.3     1  LIG1       -0.3835
     19 C           1.3231   -0.3215    2.1969 C.ar    1  LIG1       -0.0085
     20 C           0.4353   -0.1989    3.2664 C.ar    1  LIG1       -0.0103
     21 C           0.5594    0.8596    4.1789 C.ar    1  LIG1        0.1655
     22 O          -0.2118    0.9321    5.3187 O.3     1  LIG1       -0.4913
     23 C          -0.6125   -0.3292    5.8511 C.3     1  LIG1        0.0790
     24 C           1.5045    1.8886    3.9593 C.ar    1  LIG1        0.2035
     25 C           2.3011    1.8443    2.8054 C.ar    1  LIG1        0.1655
     26 C           2.2495    0.7037    2.0017 C.ar    1  LIG1       -0.0103
     27 O           3.1672    2.8711    2.5176 O.3     1  LIG1       -0.4913
     28 C           3.4540    3.0738    1.1326 C.3     1  LIG1        0.0790
     29 O           1.5555    2.8695    4.9213 O.3     1  LIG1       -0.4885
     30 C           2.8216    3.4824    5.1451 C.3     1  LIG1        0.0791
     31 H          -3.7607    1.9534    0.0353 H       1  LIG1        0.0660
     32 H          -4.2985    1.2584   -1.4772 H       1  LIG1        0.0660
     33 H          -2.8262    2.2942   -1.4332 H       1  LIG1        0.0660
     34 H          -3.8474   -0.0394   -2.9677 H       1  LIG1        0.0661
     35 H          -0.8608   -2.7306   -4.4419 H       1  LIG1        0.0625
     36 H           0.4381   -2.4492   -2.4559 H       1  LIG1        0.0655
     37 H          -4.3118   -1.4761   -4.9545 H       1  LIG1        0.0620
     38 H          -1.6237   -1.7605   -6.4402 H       1  LIG1        0.0569
     39 H          -4.5853   -1.9686   -7.3344 H       1  LIG1        0.0272
     40 H          -3.2418   -2.9248   -7.9802 H       1  LIG1        0.0272
     41 H          -3.2984   -1.1768   -8.2668 H       1  LIG1        0.0272
     42 H           3.0616   -1.4046   -1.0416 H       1  LIG1        0.0266
     43 H           2.4994    0.2078   -0.5842 H       1  LIG1        0.0266
     44 H           1.8637   -0.5162   -2.0018 H       1  LIG1        0.0266
     45 H           2.5606   -3.1030    1.2054 H       1  LIG1        0.2104
     46 H          -0.3243   -0.9620    3.4069 H       1  LIG1        0.0659
     47 H          -0.8834   -0.1880    6.9009 H       1  LIG1        0.0660
     48 H           0.1991   -1.0664    5.8174 H       1  LIG1        0.0660
     49 H          -1.4963   -0.7040    5.3237 H       1  LIG1        0.0660
     50 H           2.9941    0.5724    1.2335 H       1  LIG1        0.0659
     51 H           4.1089    3.9455    1.0475 H       1  LIG1        0.0660
     52 H           2.5367    3.2757    0.5689 H       1  LIG1        0.0660
     53 H           4.0043    2.2359    0.6919 H       1  LIG1        0.0660
     54 H           2.8701    4.4320    4.6028 H       1  LIG1        0.0660
     55 H           3.6752    2.8427    4.8939 H       1  LIG1        0.0660
     56 H           2.9036    3.7042    6.2138 H       1  LIG1        0.0660
@<TRIPOS>BOND
     1     1     2    1
     2     1     3    1
     3     3     4    1
     4     3     5    1
     5     5     6    1
     6     6     7   ar
     7     7     8    1
     8     8     9    1
     9     7    10   ar
    10    10    11   ar
    11    11    12   ar
    12    12    13   ar
    13     6    13   ar
    14    11    14    1
    15    14    15    2
    16    15    16    1
    17     3    17    1
    18     1    18    1
    19     1    19    1
    20    19    20   ar
    21    20    21   ar
    22    21    22    1
    23    22    23    1
    24    21    24   ar
    25    24    25   ar
    26    25    26   ar
    27    19    26   ar
    28    25    27    1
    29    27    28    1
    30    24    29    1
    31    29    30    1
    32     9    31    1
    33     9    32    1
    34     9    33    1
    35    10    34    1
    36    12    35    1
    37    13    36    1
    38    14    37    1
    39    15    38    1
    40    16    39    1
    41    16    40    1
    42    16    41    1
    43    17    42    1
    44    17    43    1
    45    17    44    1
    46    18    45    1
    47    20    46    1
    48    23    47    1
    49    23    48    1
    50    23    49    1
    51    26    50    1
    52    28    51    1
    53    28    52    1
    54    28    53    1
    55    30    54    1
    56    30    55    1
    57    30    56    1
