REMARK  Name = NuBBE_1966
REMARK  9 active torsions:
REMARK  status: ('A' for Active; 'I' for Inactive)
REMARK    1  A    between atoms: O_1  and  C_2
REMARK    2  A    between atoms: C_4  and  C_29
REMARK    3  A    between atoms: C_6  and  C_22
REMARK    4  A    between atoms: C_11  and  C_13
REMARK    5  A    between atoms: C_14  and  C_15
REMARK    6  A    between atoms: C_18  and  O_21
REMARK    7  A    between atoms: C_25  and  O_28
REMARK    8  A    between atoms: C_31  and  O_32
REMARK    9  A    between atoms: C_34  and  O_36
REMARK                            x       y       z     vdW  Elec       q    Type
REMARK                         _______ _______ _______ _____ _____    ______ ____
ROOT
ATOM      1  C   LIG A   1      -1.498   0.394   0.158  0.00  0.00    +0.125 A 
ATOM      2  C   LIG A   1      -0.803  -0.773  -0.086  0.00  0.00    +0.047 A 
ATOM      3  C   LIG A   1      -1.269  -2.182  -0.233  0.00  0.00    +0.101 C 
ATOM      4  C   LIG A   1       0.100  -2.916  -0.133  0.00  0.00    +0.215 C 
ATOM      5  O   LIG A   1       1.156  -1.958  -0.443  0.00  0.00    -0.483 OA
ATOM      6  C   LIG A   1       0.572  -0.729  -0.258  0.00  0.00    +0.129 A 
ATOM      7  C   LIG A   1       1.285   0.455  -0.231  0.00  0.00    +0.054 A 
ATOM      8  C   LIG A   1       0.587   1.648   0.000  0.00  0.00    -0.018 A 
ATOM      9  C   LIG A   1      -0.806   1.604   0.202  0.00  0.00    +0.054 A 
ENDROOT
BRANCH   4  10
ATOM     10  C   LIG A   1       0.349  -3.567   1.229  0.00  0.00    -0.006 A 
ATOM     11  C   LIG A   1      -0.067  -4.890   1.461  0.00  0.00    +0.011 A 
ATOM     12  C   LIG A   1       0.157  -5.508   2.697  0.00  0.00    +0.046 A 
ATOM     13  C   LIG A   1       0.791  -4.801   3.713  0.00  0.00    +0.117 A 
ATOM     14  C   LIG A   1       1.200  -3.491   3.513  0.00  0.00    +0.046 A 
ATOM     15  C   LIG A   1       0.980  -2.877   2.279  0.00  0.00    +0.011 A 
BRANCH  13  16
ATOM     16  O   LIG A   1       1.036  -5.359   4.933  0.00  0.00    -0.507 OA
ATOM     17  H   LIG A   1       0.716  -6.276   4.928  0.00  0.00    +0.292 HD
ENDBRANCH  13  16
ENDBRANCH   4  10
BRANCH   3  18
ATOM     18  C   LIG A   1      -2.011  -2.430  -1.542  0.00  0.00    -0.029 A 
ATOM     19  C   LIG A   1      -1.422  -2.216  -2.803  0.00  0.00    +0.050 A 
ATOM     20  C   LIG A   1      -2.154  -2.449  -3.970  0.00  0.00    +0.121 A 
ATOM     21  C   LIG A   1      -3.470  -2.890  -3.917  0.00  0.00    +0.090 A 
ATOM     22  C   LIG A   1      -4.054  -3.100  -2.675  0.00  0.00    +0.121 A 
ATOM     23  C   LIG A   1      -3.342  -2.876  -1.499  0.00  0.00    +0.050 A 
BRANCH  20  24
ATOM     24  O   LIG A   1      -1.606  -2.253  -5.205  0.00  0.00    -0.507 OA
ATOM     25  H   LIG A   1      -0.705  -1.904  -5.098  0.00  0.00    +0.292 HD
ENDBRANCH  20  24
BRANCH  22  26
ATOM     26  O   LIG A   1      -5.342  -3.533  -2.559  0.00  0.00    -0.507 OA
ATOM     27  H   LIG A   1      -5.713  -3.641  -3.451  0.00  0.00    +0.292 HD
ENDBRANCH  22  26
ENDBRANCH   3  18
BRANCH   1  28
ATOM     28  O   LIG A   1      -2.843   0.434   0.358  0.00  0.00    -0.506 OA
ATOM     29  H   LIG A   1      -3.219  -0.445   0.191  0.00  0.00    +0.292 HD
ENDBRANCH   1  28
BRANCH   8  30
ATOM     30  C   LIG A   1       1.326   2.918  -0.058  0.00  0.00    +0.009 C 
ATOM     31  C   LIG A   1       1.014   4.020   0.637  0.00  0.00    +0.008 C 
BRANCH  31  32
ATOM     32  C   LIG A   1       1.771   5.280   0.553  0.00  0.00    -0.025 A 
ATOM     33  C   LIG A   1       3.151   5.298   0.304  0.00  0.00    +0.011 A 
ATOM     34  C   LIG A   1       3.853   6.504   0.251  0.00  0.00    +0.046 A 
ATOM     35  C   LIG A   1       3.176   7.697   0.465  0.00  0.00    +0.117 A 
ATOM     36  C   LIG A   1       1.813   7.703   0.734  0.00  0.00    +0.046 A 
ATOM     37  C   LIG A   1       1.111   6.495   0.781  0.00  0.00    +0.011 A 
BRANCH  35  38
ATOM     38  O   LIG A   1       3.825   8.895   0.427  0.00  0.00    -0.507 OA
ATOM     39  H   LIG A   1       4.762   8.730   0.232  0.00  0.00    +0.292 HD
ENDBRANCH  35  38
ENDBRANCH  31  32
ENDBRANCH   8  30
TORSDOF 9
