REMARK  Name = NuBBE_1436
REMARK  2 active torsions:
REMARK  status: ('A' for Active; 'I' for Inactive)
REMARK    1  A    between atoms: C_1  and  O_2
REMARK    2  A    between atoms: O_2  and  C_3
REMARK                            x       y       z     vdW  Elec       q    Type
REMARK                         _______ _______ _______ _____ _____    ______ ____
ROOT
ATOM      1  C   LIG A   1      -1.218   0.565  -0.515  0.00  0.00    +0.142 A 
ATOM      2  C   LIG A   1      -1.742  -0.650  -0.979  0.00  0.00    +0.082 A 
ATOM      3  C   LIG A   1      -1.031  -1.800  -0.660  0.00  0.00    +0.231 A 
ATOM      4  O   LIG A   1      -1.657  -2.889  -1.189  0.00  0.00    -0.445 OA
ATOM      5  C   LIG A   1      -2.768  -2.444  -1.831  0.00  0.00    +0.198 A 
ATOM      6  C   LIG A   1      -2.868  -1.076  -1.731  0.00  0.00    +0.055 A 
ATOM      7  N   LIG A   1       0.098  -1.882   0.055  0.00  0.00    -0.208 NA
ATOM      8  C   LIG A   1       0.557  -0.709   0.528  0.00  0.00    +0.124 A 
ATOM      9  C   LIG A   1      -0.059   0.547   0.289  0.00  0.00    +0.047 A 
ATOM     10  C   LIG A   1       0.495   1.733   0.849  0.00  0.00    +0.017 A 
ATOM     11  C   LIG A   1       1.649   1.699   1.629  0.00  0.00    +0.050 A 
ATOM     12  C   LIG A   1       2.231   0.473   1.836  0.00  0.00    +0.168 A 
ATOM     13  C   LIG A   1       1.702  -0.684   1.306  0.00  0.00    +0.192 A 
ATOM     14  O   LIG A   1       2.453  -1.777   1.653  0.00  0.00    -0.450 OA
ATOM     15  C   LIG A   1       3.487  -1.175   2.449  0.00  0.00    +0.466 C 
ATOM     16  O   LIG A   1       3.356   0.255   2.567  0.00  0.00    -0.453 OA
ENDROOT
BRANCH   1  18
ATOM     17  C   LIG A   1      -1.508   2.248  -2.055  0.00  0.00    +0.277 C 
ATOM     18  O   LIG A   1      -1.872   1.754  -0.765  0.00  0.00    -0.494 OA
ENDBRANCH   1  18
TORSDOF 1
