REMARK  Name = NuBBE_188
REMARK  9 active torsions:
REMARK  status: ('A' for Active; 'I' for Inactive)
REMARK    1  A    between atoms: C_1  and  C_2
REMARK    2  A    between atoms: C_4  and  C_6
REMARK    3  A    between atoms: C_7  and  C_9
REMARK    4  A    between atoms: C_12  and  O_13
REMARK    5  A    between atoms: C_14  and  O_15
REMARK    6  A    between atoms: O_15  and  C_16
REMARK    7  A    between atoms: C_20  and  O_21
REMARK    8  A    between atoms: C_22  and  O_23
REMARK    9  A    between atoms: O_23  and  C_24
REMARK                            x       y       z     vdW  Elec       q    Type
REMARK                         _______ _______ _______ _____ _____    ______ ____
ROOT
ATOM      1  C   LIG A   1      -2.778   0.741  -0.681  0.00  0.00    +0.008 C 
ATOM      2  C   LIG A   1      -2.524   0.682   0.830  0.00  0.00    -0.006 C 
ATOM      3  C   LIG A   1      -1.880  -0.652   1.276  0.00  0.00    +0.001 C 
ATOM      4  C   LIG A   1      -2.054  -0.843   2.797  0.00  0.00    +0.009 C 
ATOM      5  C   LIG A   1      -0.380  -0.758   0.888  0.00  0.00    +0.053 C 
ATOM      6  C   LIG A   1       0.383   0.494   1.301  0.00  0.00    -0.033 A 
ATOM      7  C   LIG A   1       1.774   0.391   1.478  0.00  0.00    +0.053 A 
ATOM      8  C   LIG A   1       2.561   1.518   1.696  0.00  0.00    +0.159 A 
ATOM      9  C   LIG A   1       1.969   2.785   1.773  0.00  0.00    +0.162 A 
ATOM     10  C   LIG A   1       0.574   2.882   1.635  0.00  0.00    +0.053 A 
ATOM     11  C   LIG A   1      -0.233   1.752   1.393  0.00  0.00    -0.040 A 
ATOM     12  C   LIG A   1      -1.732   1.914   1.313  0.00  0.00    +0.039 C 
ENDROOT
BRANCH   5  13
ATOM     13  C   LIG A   1      -0.135  -1.154  -0.580  0.00  0.00    -0.036 A 
ATOM     14  C   LIG A   1       0.569  -0.332  -1.475  0.00  0.00    +0.008 A 
ATOM     15  C   LIG A   1       0.794  -0.720  -2.795  0.00  0.00    +0.049 A 
ATOM     16  C   LIG A   1       0.308  -1.940  -3.257  0.00  0.00    +0.159 A 
ATOM     17  C   LIG A   1      -0.391  -2.792  -2.397  0.00  0.00    +0.162 A 
ATOM     18  C   LIG A   1      -0.594  -2.392  -1.062  0.00  0.00    +0.053 A 
BRANCH  16  19
ATOM     19  O   LIG A   1       0.540  -2.260  -4.566  0.00  0.00    -0.503 OA
ATOM     20  H   LIG A   1       0.948  -1.498  -5.009  0.00  0.00    +0.292 HD
ENDBRANCH  16  19
BRANCH  17  21
ATOM     21  O   LIG A   1      -0.937  -4.016  -2.679  0.00  0.00    -0.491 OA
ATOM     22  C   LIG A   1      -0.817  -4.501  -4.010  0.00  0.00    +0.277 C 
ENDBRANCH  17  21
ENDBRANCH   5  13
BRANCH   8  23
ATOM     23  O   LIG A   1       3.911   1.340   1.796  0.00  0.00    -0.503 OA
ATOM     24  H   LIG A   1       4.119   0.395   1.695  0.00  0.00    +0.292 HD
ENDBRANCH   8  23
BRANCH   9  25
ATOM     25  O   LIG A   1       2.592   3.987   1.976  0.00  0.00    -0.491 OA
ATOM     26  C   LIG A   1       4.007   3.967   2.139  0.00  0.00    +0.277 C 
ENDBRANCH   9  25
TORSDOF 5
