@<TRIPOS>MOLECULE
NuBBE_1642
 141 144 0 0 0
SMALL
GASTEIGER

@<TRIPOS>ATOM
      1 C          -5.5215   12.4757    7.2858 C.3     1  LIG1       -0.0440
      2 C          -6.0146   11.1157    6.7992 C.2     1  LIG1       -0.0796
      3 C          -7.3490   11.1473    6.1114 C.3     1  LIG1       -0.0440
      4 C          -5.2791   10.0105    7.0732 C.2     1  LIG1       -0.0850
      5 C          -5.4342    8.5058    6.8448 C.3     1  LIG1       -0.0308
      6 C          -4.3313    7.5942    6.1717 C.3     1  LIG1       -0.0286
      7 C          -4.0657    7.2866    4.6981 C.2     1  LIG1       -0.0762
      8 C          -4.5137    5.8780    4.3083 C.3     1  LIG1       -0.0438
      9 C          -3.1646    8.0394    4.0206 C.2     1  LIG1       -0.0847
     10 C          -2.5951    7.9229    2.6304 C.3     1  LIG1       -0.0308
     11 C          -3.3179    6.9056    1.7699 C.3     1  LIG1       -0.0286
     12 C          -2.9433    6.8379    0.3214 C.2     1  LIG1       -0.0762
     13 C          -4.0936    7.0474   -0.6097 C.3     1  LIG1       -0.0438
     14 C          -1.6809    6.4997   -0.0003 C.2     1  LIG1       -0.0849
     15 C          -1.0438    6.2291   -1.3326 C.3     1  LIG1       -0.0309
     16 C          -1.0755    4.7893   -1.9190 C.3     1  LIG1       -0.0097
     17 C          -0.3390    3.6593   -1.1168 C.3     1  LIG1        0.1085
     18 C          -0.5090    2.2994   -1.8565 C.3     1  LIG1       -0.0249
     19 O           1.1126    3.9487   -1.1193 O.3     1  LIG1       -0.4853
     20 C           1.8392    3.0286   -0.3650 C.ar    1  LIG1        0.1311
     21 C           3.1189    2.6191   -0.7817 C.ar    1  LIG1       -0.0048
     22 C           4.0183    3.4668   -1.6519 C.3     1  LIG1       -0.0361
     23 C           3.6687    1.5504   -0.1026 C.ar    1  LIG1       -0.0092
     24 C           3.0435    1.0787    1.0669 C.ar    1  LIG1        0.1744
     25 O           4.0599    0.4899    1.8578 O.3     1  LIG1       -0.4222
     26 C           4.1213    0.4185    3.2775 C.2     1  LIG1        0.3093
     27 C           5.3583   -0.4074    3.5059 C.3     1  LIG1        0.0336
     28 O           3.3713    0.7782    4.0878 O.2     1  LIG1       -0.2507
     29 C           1.7811    1.4420    1.5332 C.ar    1  LIG1        0.1772
     30 O           1.1309    0.8392    2.6072 O.3     1  LIG1       -0.4519
     31 C           1.1994   -0.5409    2.8728 C.ar    1  LIG1        0.1294
     32 C           0.2173   -1.1028    3.6634 C.ar    1  LIG1       -0.0129
     33 C           0.1450   -2.5273    3.7713 C.ar    1  LIG1       -0.0050
     34 C          -1.1064   -3.1080    4.3257 C.3     1  LIG1       -0.0361
     35 C           1.1507   -3.3786    3.2654 C.ar    1  LIG1        0.1276
     36 O           0.9796   -4.7254    3.1220 O.3     1  LIG1       -0.4854
     37 C           2.1583   -5.5463    2.8719 C.3     1  LIG1        0.1085
     38 C           2.2651   -6.1734    1.4118 C.3     1  LIG1       -0.0097
     39 C           2.3513   -5.3712    0.0832 C.3     1  LIG1       -0.0309
     40 C           2.3755   -6.0770   -1.3071 C.2     1  LIG1       -0.0849
     41 C           2.3073   -7.3642   -1.7317 C.2     1  LIG1       -0.0762
     42 C           2.2278   -8.5520   -0.8138 C.3     1  LIG1       -0.0438
     43 C           2.1556   -7.8153   -3.2121 C.3     1  LIG1       -0.0286
     44 C           2.7005   -6.9338   -4.3568 C.3     1  LIG1       -0.0308
     45 C           2.4648   -7.4722   -5.7701 C.2     1  LIG1       -0.0847
     46 C           1.4424   -7.1792   -6.6124 C.2     1  LIG1       -0.0762
     47 C           0.3164   -6.2687   -6.2080 C.3     1  LIG1       -0.0438
     48 C           1.3846   -7.7756   -8.0284 C.3     1  LIG1       -0.0286
     49 C           0.1964   -7.3561   -8.9192 C.3     1  LIG1       -0.0308
     50 C           0.1098   -7.8236  -10.3541 C.2     1  LIG1       -0.0850
     51 C           0.8507   -8.6578  -11.1109 C.2     1  LIG1       -0.0796
     52 C           2.0531   -9.4652  -10.7153 C.3     1  LIG1       -0.0440
     53 C           0.5166   -8.8431  -12.5730 C.3     1  LIG1       -0.0440
     54 C           1.8956   -6.7392    3.8130 C.3     1  LIG1       -0.0249
     55 C           3.4441   -4.8757    3.3727 C.3     1  LIG1       -0.0091
     56 C           3.5928   -3.5454    2.6931 C.3     1  LIG1       -0.0205
     57 C           2.3016   -2.7992    2.8530 C.ar    1  LIG1       -0.0018
     58 C           2.2243   -1.4471    2.5566 C.ar    1  LIG1       -0.0127
     59 C           1.2521    2.5684    0.8636 C.ar    1  LIG1        0.0405
     60 C           0.1985    3.5431    1.3476 C.3     1  LIG1       -0.0170
     61 C          -0.9159    3.5439    0.3211 C.3     1  LIG1       -0.0090
     62 H          -5.5035   13.2120    6.4726 H       1  LIG1        0.0274
     63 H          -4.4958   12.4237    7.6709 H       1  LIG1        0.0274
     64 H          -6.1516   12.8689    8.0914 H       1  LIG1        0.0274
     65 H          -7.5147   12.1008    5.5914 H       1  LIG1        0.0274
     66 H          -8.1430   11.0521    6.8621 H       1  LIG1        0.0274
     67 H          -7.4527   10.3430    5.3813 H       1  LIG1        0.0274
     68 H          -4.5078   10.2164    7.8168 H       1  LIG1        0.0572
     69 H          -6.4502    8.2039    6.5701 H       1  LIG1        0.0310
     70 H          -5.3487    8.1587    7.8903 H       1  LIG1        0.0310
     71 H          -4.5423    6.5978    6.5898 H       1  LIG1        0.0313
     72 H          -3.3539    7.8615    6.5822 H       1  LIG1        0.0313
     73 H          -3.8588    5.1681    4.8328 H       1  LIG1        0.0274
     74 H          -4.4812    5.5626    3.2716 H       1  LIG1        0.0274
     75 H          -5.5484    5.6930    4.5964 H       1  LIG1        0.0274
     76 H          -2.6759    8.8545    4.5582 H       1  LIG1        0.0572
     77 H          -1.5328    7.6571    2.7102 H       1  LIG1        0.0310
     78 H          -2.6411    8.9149    2.1627 H       1  LIG1        0.0310
     79 H          -4.4016    7.0685    1.8626 H       1  LIG1        0.0313
     80 H          -3.0622    5.9184    2.1666 H       1  LIG1        0.0313
     81 H          -4.6574    6.1178   -0.7501 H       1  LIG1        0.0274
     82 H          -3.7562    7.4308   -1.5703 H       1  LIG1        0.0274
     83 H          -4.7872    7.7871   -0.1885 H       1  LIG1        0.0274
     84 H          -0.9941    6.3539    0.8373 H       1  LIG1        0.0572
     85 H           0.0068    6.5182   -1.2253 H       1  LIG1        0.0309
     86 H          -1.4825    6.9186   -2.0609 H       1  LIG1        0.0309
     87 H          -0.5967    4.8597   -2.9075 H       1  LIG1        0.0306
     88 H          -2.1215    4.5095   -2.1134 H       1  LIG1        0.0306
     89 H           0.1039    2.2805   -2.7643 H       1  LIG1        0.0268
     90 H          -1.5447    2.0584   -2.1150 H       1  LIG1        0.0268
     91 H          -0.1422    1.4689   -1.2378 H       1  LIG1        0.0268
     92 H           3.7701    4.5016   -1.4099 H       1  LIG1        0.0279
     93 H           3.9360    3.2894   -2.7273 H       1  LIG1        0.0279
     94 H           5.0917    3.4075   -1.3904 H       1  LIG1        0.0279
     95 H           4.6765    1.1949   -0.3128 H       1  LIG1        0.0659
     96 H           5.2451   -1.4172    3.1130 H       1  LIG1        0.0342
     97 H           5.5111   -0.4553    4.5752 H       1  LIG1        0.0342
     98 H           6.1746    0.0538    2.9607 H       1  LIG1        0.0342
     99 H          -0.5176   -0.4684    4.1595 H       1  LIG1        0.0658
    100 H          -1.8578   -3.0319    3.5371 H       1  LIG1        0.0279
    101 H          -1.4230   -2.5552    5.2141 H       1  LIG1        0.0279
    102 H          -0.9604   -4.1541    4.6013 H       1  LIG1        0.0279
    103 H           1.3919   -6.8267    1.3099 H       1  LIG1        0.0306
    104 H           3.1659   -6.8016    1.4342 H       1  LIG1        0.0306
    105 H           3.2645   -4.7700    0.0916 H       1  LIG1        0.0309
    106 H           1.5077   -4.6710    0.0489 H       1  LIG1        0.0309
    107 H           2.4057   -5.3273   -2.1023 H       1  LIG1        0.0572
    108 H           2.9271   -9.3423   -1.1100 H       1  LIG1        0.0274
    109 H           1.2118   -8.9535   -0.8525 H       1  LIG1        0.0274
    110 H           2.4747   -8.3210    0.2149 H       1  LIG1        0.0274
    111 H           1.0789   -7.9764   -3.3631 H       1  LIG1        0.0313
    112 H           2.6190   -8.8076   -3.3220 H       1  LIG1        0.0313
    113 H           3.7854   -6.8343   -4.2287 H       1  LIG1        0.0310
    114 H           2.3000   -5.9220   -4.2749 H       1  LIG1        0.0310
    115 H           3.2604   -8.1237   -6.1381 H       1  LIG1        0.0572
    116 H           0.6001   -5.5867   -5.4067 H       1  LIG1        0.0274
    117 H          -0.5459   -6.8601   -5.8866 H       1  LIG1        0.0274
    118 H           0.0056   -5.6161   -7.0262 H       1  LIG1        0.0274
    119 H           1.3575   -8.8670   -7.9272 H       1  LIG1        0.0313
    120 H           2.3083   -7.4954   -8.5521 H       1  LIG1        0.0313
    121 H           0.1840   -6.2598   -8.9835 H       1  LIG1        0.0310
    122 H          -0.7402   -7.6462   -8.4232 H       1  LIG1        0.0310
    123 H          -0.7325   -7.3387  -10.8588 H       1  LIG1        0.0572
    124 H           2.3078   -9.4366   -9.6614 H       1  LIG1        0.0274
    125 H           2.9266   -9.1093  -11.2712 H       1  LIG1        0.0274
    126 H           1.8935  -10.5193  -10.9679 H       1  LIG1        0.0274
    127 H          -0.2415   -8.1398  -12.9309 H       1  LIG1        0.0274
    128 H           0.1551   -9.8610  -12.7511 H       1  LIG1        0.0274
    129 H           1.4170   -8.6853  -13.1772 H       1  LIG1        0.0274
    130 H           0.8938   -7.1375    3.6182 H       1  LIG1        0.0268
    131 H           1.8963   -6.4214    4.8627 H       1  LIG1        0.0268
    132 H           2.6298   -7.5392    3.6857 H       1  LIG1        0.0268
    133 H           4.3485   -5.4878    3.2729 H       1  LIG1        0.0307
    134 H           3.3516   -4.6568    4.4511 H       1  LIG1        0.0307
    135 H           3.9088   -3.6060    1.6508 H       1  LIG1        0.0316
    136 H           4.4000   -3.0554    3.2353 H       1  LIG1        0.0316
    137 H           3.1455   -1.1979    2.1094 H       1  LIG1        0.0658
    138 H           0.6521    4.5573    1.3596 H       1  LIG1        0.0317
    139 H          -0.1552    3.4122    2.3723 H       1  LIG1        0.0317
    140 H          -1.6173    4.3343    0.5602 H       1  LIG1        0.0307
    141 H          -1.5577    2.6650    0.4219 H       1  LIG1        0.0307
@<TRIPOS>BOND
     1     1     2    1
     2     2     3    1
     3     2     4    2
     4     4     5    1
     5     5     6    1
     6     6     7    1
     7     7     8    1
     8     7     9    2
     9     9    10    1
    10    10    11    1
    11    11    12    1
    12    12    13    1
    13    12    14    2
    14    14    15    1
    15    15    16    1
    16    16    17    1
    17    17    18    1
    18    17    19    1
    19    19    20    1
    20    20    21   ar
    21    21    22    1
    22    21    23   ar
    23    23    24   ar
    24    24    25    1
    25    25    26    1
    26    26    27    1
    27    26    28    2
    28    24    29   ar
    29    29    30    1
    30    30    31    1
    31    31    32   ar
    32    32    33   ar
    33    33    34    1
    34    33    35   ar
    35    35    36    1
    36    36    37    1
    37    37    38    1
    38    38    39    1
    39    39    40    1
    40    40    41    2
    41    41    42    1
    42    41    43    1
    43    43    44    1
    44    44    45    1
    45    45    46    2
    46    46    47    1
    47    46    48    1
    48    48    49    1
    49    49    50    1
    50    50    51    2
    51    51    52    1
    52    51    53    1
    53    37    54    1
    54    37    55    1
    55    55    56    1
    56    35    57   ar
    57    56    57    1
    58    57    58   ar
    59    31    58   ar
    60    29    59   ar
    61    20    59   ar
    62    59    60    1
    63    60    61    1
    64    17    61    1
    65     1    62    1
    66     1    63    1
    67     1    64    1
    68     3    65    1
    69     3    66    1
    70     3    67    1
    71     4    68    1
    72     5    69    1
    73     5    70    1
    74     6    71    1
    75     6    72    1
    76     8    73    1
    77     8    74    1
    78     8    75    1
    79     9    76    1
    80    10    77    1
    81    10    78    1
    82    11    79    1
    83    11    80    1
    84    13    81    1
    85    13    82    1
    86    13    83    1
    87    14    84    1
    88    15    85    1
    89    15    86    1
    90    16    87    1
    91    16    88    1
    92    18    89    1
    93    18    90    1
    94    18    91    1
    95    22    92    1
    96    22    93    1
    97    22    94    1
    98    23    95    1
    99    27    96    1
   100    27    97    1
   101    27    98    1
   102    32    99    1
   103    34   100    1
   104    34   101    1
   105    34   102    1
   106    38   103    1
   107    38   104    1
   108    39   105    1
   109    39   106    1
   110    40   107    1
   111    42   108    1
   112    42   109    1
   113    42   110    1
   114    43   111    1
   115    43   112    1
   116    44   113    1
   117    44   114    1
   118    45   115    1
   119    47   116    1
   120    47   117    1
   121    47   118    1
   122    48   119    1
   123    48   120    1
   124    49   121    1
   125    49   122    1
   126    50   123    1
   127    52   124    1
   128    52   125    1
   129    52   126    1
   130    53   127    1
   131    53   128    1
   132    53   129    1
   133    54   130    1
   134    54   131    1
   135    54   132    1
   136    55   133    1
   137    55   134    1
   138    56   135    1
   139    56   136    1
   140    58   137    1
   141    60   138    1
   142    60   139    1
   143    61   140    1
   144    61   141    1
