REMARK  Name = NuBBE_1483
REMARK  5 active torsions:
REMARK  status: ('A' for Active; 'I' for Inactive)
REMARK    1  A    between atoms: C_1  and  C_2
REMARK    2  A    between atoms: C_2  and  C_4
REMARK    3  A    between atoms: C_9  and  C_10
REMARK    4  A    between atoms: C_16  and  O_17
REMARK    5  A    between atoms: C_23  and  O_24
REMARK                            x       y       z     vdW  Elec       q    Type
REMARK                         _______ _______ _______ _____ _____    ______ ____
ROOT
ATOM      1  C   LIG A   1      -1.014   1.621   3.552  0.00  0.00    +0.060 C 
ATOM      2  C   LIG A   1       0.377   1.588   2.908  0.00  0.00    +0.123 C 
ATOM      3  O   LIG A   1       0.592   0.270   2.378  0.00  0.00    -0.481 OA
ATOM      4  C   LIG A   1       1.448   1.777   3.989  0.00  0.00    +0.060 C 
ATOM      5  C   LIG A   1       0.506   2.684   1.882  0.00  0.00    +0.020 C 
ATOM      6  C   LIG A   1       0.448   2.447   0.568  0.00  0.00    +0.013 C 
ATOM      7  C   LIG A   1       0.217   1.074   0.111  0.00  0.00    +0.041 A 
ATOM      8  C   LIG A   1       0.311   0.030   1.053  0.00  0.00    +0.142 A 
ATOM      9  C   LIG A   1       0.186  -1.327   0.674  0.00  0.00    +0.067 A 
ATOM     10  C   LIG A   1      -0.047  -1.611  -0.684  0.00  0.00    +0.141 A 
ATOM     11  C   LIG A   1      -0.163  -0.578  -1.629  0.00  0.00    +0.088 A 
ATOM     12  C   LIG A   1      -0.060   0.772  -1.240  0.00  0.00    +0.065 A 
ATOM     13  N   LIG A   1      -0.131   1.793  -2.223  0.00  0.00    -0.350 N 
ATOM     14  H   LIG A   1      -0.570   2.645  -1.879  0.00  0.00    +0.166 HD
ATOM     15  C   LIG A   1      -0.455   1.529  -3.570  0.00  0.00    +0.093 A 
ATOM     16  C   LIG A   1      -0.550   2.566  -4.504  0.00  0.00    +0.141 A 
ATOM     17  C   LIG A   1      -0.870   2.319  -5.836  0.00  0.00    +0.047 A 
ATOM     18  C   LIG A   1      -1.048   1.005  -6.269  0.00  0.00    +0.004 A 
ATOM     19  C   LIG A   1      -0.897  -0.051  -5.369  0.00  0.00    +0.014 A 
ATOM     20  C   LIG A   1      -0.592   0.216  -4.028  0.00  0.00    +0.049 A 
ATOM     21  C   LIG A   1      -0.430  -0.887  -3.059  0.00  0.00    +0.201 A 
ATOM     22  O   LIG A   1      -0.525  -2.057  -3.425  0.00  0.00    -0.286 OA
ENDROOT
BRANCH   9  23
ATOM     23  C   LIG A   1       0.297  -2.409   1.676  0.00  0.00    -0.011 A 
ATOM     24  C   LIG A   1       1.368  -3.318   1.644  0.00  0.00    +0.009 A 
ATOM     25  C   LIG A   1       1.478  -4.335   2.595  0.00  0.00    +0.001 A 
ATOM     26  C   LIG A   1       0.517  -4.460   3.596  0.00  0.00    +0.000 A 
ATOM     27  C   LIG A   1      -0.554  -3.571   3.645  0.00  0.00    +0.001 A 
ATOM     28  C   LIG A   1      -0.662  -2.554   2.692  0.00  0.00    +0.009 A 
ENDBRANCH   9  23
BRANCH  10  29
ATOM     29  O   LIG A   1      -0.171  -2.932  -1.054  0.00  0.00    -0.505 OA
ATOM     30  H   LIG A   1      -0.335  -2.974  -2.023  0.00  0.00    +0.292 HD
ENDBRANCH  10  29
BRANCH  16  31
ATOM     31  O   LIG A   1      -0.295   3.859  -4.138  0.00  0.00    -0.505 OA
ATOM     32  H   LIG A   1       0.377   3.813  -3.434  0.00  0.00    +0.292 HD
ENDBRANCH  16  31
TORSDOF 3
