@<TRIPOS>MOLECULE
NuBBE_1327
 49 52 0 0 0
SMALL
GASTEIGER

@<TRIPOS>ATOM
      1 O          -4.7840    0.5874   -0.4146 O.2     1  LIG1       -0.2918
      2 C          -3.5834    0.3799   -0.3075 C.2     1  LIG1        0.1705
      3 C          -2.9528   -0.9324   -0.6895 C.3     1  LIG1        0.0519
      4 C          -1.7324   -1.1587    0.1888 C.3     1  LIG1        0.1323
      5 O          -0.7928   -0.0827    0.0571 O.3     1  LIG1       -0.4824
      6 C          -1.3079    1.1642    0.2833 C.ar    1  LIG1        0.1425
      7 C          -2.6659    1.4514    0.1368 C.ar    1  LIG1        0.0600
      8 C          -3.1435    2.7452    0.3609 C.ar    1  LIG1       -0.0442
      9 C          -2.2514    3.7545    0.7249 C.ar    1  LIG1       -0.0184
     10 C          -0.8907    3.4721    0.8684 C.ar    1  LIG1        0.1324
     11 C          -0.4057    2.1808    0.6370 C.ar    1  LIG1        0.0589
     12 C           1.0261    1.9288    0.7645 C.2     1  LIG1       -0.0478
     13 C           1.7990    2.9080    1.2412 C.2     1  LIG1       -0.0408
     14 C           1.2582    4.2614    1.6370 C.3     1  LIG1        0.1235
     15 C           2.1258    5.3521    0.9985 C.3     1  LIG1       -0.0215
     16 O          -0.0948    4.5302    1.2101 O.3     1  LIG1       -0.4815
     17 C           1.2895    4.4014    3.1634 C.3     1  LIG1       -0.0215
     18 C          -0.9972   -2.4336   -0.1904 C.ar    1  LIG1       -0.0033
     19 C          -1.3010   -3.6489    0.4239 C.ar    1  LIG1       -0.0514
     20 C          -0.5916   -4.8018    0.0782 C.ar    1  LIG1       -0.0159
     21 C           0.4381   -4.7696   -0.8750 C.ar    1  LIG1        0.1615
     22 C           0.7411   -3.5620   -1.5220 C.ar    1  LIG1        0.1619
     23 O           1.7123   -3.5556   -2.4885 O.3     1  LIG1       -0.4914
     24 C           1.9983   -2.3160   -3.1295 C.3     1  LIG1        0.0790
     25 C           0.0127   -2.4142   -1.1713 C.ar    1  LIG1       -0.0096
     26 O           0.9934   -6.0031   -1.1019 O.3     1  LIG1       -0.4915
     27 C           2.3671   -6.0450   -1.4650 C.3     1  LIG1        0.0790
     28 H          -2.6955   -0.8812   -1.7540 H       1  LIG1        0.0385
     29 H          -3.6857   -1.7339   -0.5419 H       1  LIG1        0.0385
     30 H          -2.0160   -1.2203    1.2490 H       1  LIG1        0.0789
     31 H          -4.2001    2.9745    0.2388 H       1  LIG1        0.0627
     32 H          -2.6137    4.7659    0.8926 H       1  LIG1        0.0654
     33 H           1.4317    0.9590    0.4984 H       1  LIG1        0.0624
     34 H           2.8621    2.7261    1.3751 H       1  LIG1        0.0611
     35 H           2.0937    5.2856   -0.0958 H       1  LIG1        0.0271
     36 H           3.1723    5.2826    1.3159 H       1  LIG1        0.0271
     37 H           1.7532    6.3497    1.2582 H       1  LIG1        0.0271
     38 H           2.3017    4.2829    3.5654 H       1  LIG1        0.0271
     39 H           0.6427    3.6542    3.6390 H       1  LIG1        0.0271
     40 H           0.9065    5.3808    3.4727 H       1  LIG1        0.0271
     41 H          -2.0809   -3.7143    1.1788 H       1  LIG1        0.0623
     42 H          -0.8337   -5.7441    0.5657 H       1  LIG1        0.0655
     43 H           2.7490   -2.4986   -3.9035 H       1  LIG1        0.0660
     44 H           2.4193   -1.5965   -2.4184 H       1  LIG1        0.0660
     45 H           1.1108   -1.9086   -3.6263 H       1  LIG1        0.0660
     46 H           0.2199   -1.4634   -1.6534 H       1  LIG1        0.0659
     47 H           2.5188   -5.7495   -2.5058 H       1  LIG1        0.0660
     48 H           2.6916   -7.0886   -1.3891 H       1  LIG1        0.0660
     49 H           2.9858   -5.4561   -0.7798 H       1  LIG1        0.0660
@<TRIPOS>BOND
     1     1     2    2
     2     2     3    1
     3     3     4    1
     4     4     5    1
     5     5     6    1
     6     6     7   ar
     7     2     7    1
     8     7     8   ar
     9     8     9   ar
    10     9    10   ar
    11    10    11   ar
    12     6    11   ar
    13    11    12    1
    14    12    13    2
    15    13    14    1
    16    14    15    1
    17    14    16    1
    18    10    16    1
    19    14    17    1
    20     4    18    1
    21    18    19   ar
    22    19    20   ar
    23    20    21   ar
    24    21    22   ar
    25    22    23    1
    26    23    24    1
    27    22    25   ar
    28    18    25   ar
    29    21    26    1
    30    26    27    1
    31     3    28    1
    32     3    29    1
    33     4    30    1
    34     8    31    1
    35     9    32    1
    36    12    33    1
    37    13    34    1
    38    15    35    1
    39    15    36    1
    40    15    37    1
    41    17    38    1
    42    17    39    1
    43    17    40    1
    44    19    41    1
    45    20    42    1
    46    24    43    1
    47    24    44    1
    48    24    45    1
    49    25    46    1
    50    27    47    1
    51    27    48    1
    52    27    49    1
