@<TRIPOS>MOLECULE
NuBBE_1006
 24 25 0 0 0
SMALL
GASTEIGER

@<TRIPOS>ATOM
      1 O          -2.5634    0.7637    1.3871 O.2     1  LIG1       -0.2448
      2 C          -1.4161    0.8333    0.9672 C.2     1  LIG1        0.3434
      3 C          -0.6477   -0.4005    0.6535 C.ar    1  LIG1        0.1060
      4 C          -1.2603   -1.6546    0.7983 C.ar    1  LIG1        0.1312
      5 O          -2.5730   -1.8190    1.1527 O.3     1  LIG1       -0.5059
      6 C          -0.5359   -2.8253    0.5872 C.ar    1  LIG1       -0.0193
      7 C           0.8114   -2.7565    0.2408 C.ar    1  LIG1       -0.0579
      8 C           1.4282   -1.5157    0.0807 C.ar    1  LIG1       -0.0550
      9 H           2.4870   -1.4804   -0.1744 H       1  LIG1        0.0621
     10 C           0.6990   -0.3273    0.2582 C.ar    1  LIG1        0.0019
     11 C           1.3571    1.0192    0.1014 C.3     1  LIG1        0.1176
     12 H           1.8876    1.2347    1.0369 H       1  LIG1        0.0681
     13 O           2.3152    1.0176   -0.9546 O.3     1  LIG1       -0.3835
     14 C           0.3023    2.1097   -0.1409 C.3     1  LIG1        0.1304
     15 H           0.7833    3.0824    0.0214 H       1  LIG1        0.0761
     16 C          -0.2893    2.1429   -1.5522 C.3     1  LIG1       -0.0249
     17 O          -0.7725    2.0170    0.8128 O.3     1  LIG1       -0.4551
     18 H          -2.9670   -0.9348    1.3282 H       1  LIG1        0.2922
     19 H          -1.0201   -3.7909    0.7114 H       1  LIG1        0.0654
     20 H           1.3819   -3.6722    0.1015 H       1  LIG1        0.0619
     21 H           1.9579    0.4835   -1.6861 H       1  LIG1        0.2104
     22 H          -0.7962    1.2056   -1.8035 H       1  LIG1        0.0266
     23 H           0.4773    2.3359   -2.3075 H       1  LIG1        0.0266
     24 H          -1.0469    2.9318   -1.6200 H       1  LIG1        0.0266
@<TRIPOS>BOND
     1     1     2    2
     2     2     3    1
     3     3     4   ar
     4     4     5    1
     5     4     6   ar
     6     6     7   ar
     7     7     8   ar
     8     8     9    1
     9     8    10   ar
    10     3    10   ar
    11    10    11    1
    12    11    14    1
    13    14    17    1
    14     2    17    1
    15    11    13    1
    16    11    12    1
    17    14    16    1
    18    14    15    1
    19     5    18    1
    20     6    19    1
    21     7    20    1
    22    13    21    1
    23    16    22    1
    24    16    23    1
    25    16    24    1
