REMARK  Name = NuBBE_1085
REMARK  6 active torsions:
REMARK  status: ('A' for Active; 'I' for Inactive)
REMARK    1  A    between atoms: C_1  and  C_2
REMARK    2  A    between atoms: C_2  and  C_3
REMARK    3  A    between atoms: C_4  and  C_5
REMARK    4  A    between atoms: C_10  and  C_11
REMARK    5  A    between atoms: C_10  and  C_23
REMARK    6  A    between atoms: C_12  and  C_13
REMARK                            x       y       z     vdW  Elec       q    Type
REMARK                         _______ _______ _______ _____ _____    ______ ____
ROOT
ATOM      1  C   LIG A   1      -1.692  -1.820   0.520  0.00  0.00    +0.043 C 
ATOM      2  C   LIG A   1      -1.334  -0.428   1.097  0.00  0.00    +0.027 C 
ATOM      3  C   LIG A   1      -0.565   0.404   0.017  0.00  0.00    +0.012 C 
ATOM      4  C   LIG A   1       0.928   0.433   0.369  0.00  0.00    +0.020 C 
ATOM      5  C   LIG A   1      -0.760  -0.452  -1.227  0.00  0.00    -0.032 A 
ATOM      6  C   LIG A   1      -0.361  -0.132  -2.525  0.00  0.00    +0.031 A 
ATOM      7  C   LIG A   1      -0.618  -1.091  -3.516  0.00  0.00    +0.047 A 
ATOM      8  C   LIG A   1      -1.250  -2.309  -3.258  0.00  0.00    -0.000 A 
ATOM      9  C   LIG A   1      -1.349  -3.003  -4.497  0.00  0.00    +0.027 A 
ATOM     10  C   LIG A   1      -0.766  -2.218  -5.464  0.00  0.00    +0.083 A 
ATOM     11  N   LIG A   1      -0.326  -1.069  -4.864  0.00  0.00    -0.361 N 
ATOM     12  H   LIG A   1       0.153  -0.312  -5.331  0.00  0.00    +0.165 HD
ATOM     13  C   LIG A   1      -1.641  -2.613  -1.938  0.00  0.00    +0.014 A 
ATOM     14  C   LIG A   1      -1.373  -1.672  -0.939  0.00  0.00    -0.036 A 
ENDROOT
BRANCH   1  18
ATOM     15  C   LIG A   1      -2.878  -4.271   2.095  0.00  0.00    +0.038 C 
ATOM     16  C   LIG A   1      -1.418  -3.991   1.865  0.00  0.00    -0.079 C 
ATOM     17  C   LIG A   1      -0.498  -5.013   2.481  0.00  0.00    +0.038 C 
ATOM     18  C   LIG A   1      -0.922  -2.937   1.183  0.00  0.00    -0.020 C 
ENDBRANCH   1  18
BRANCH   3  19
ATOM     19  C   LIG A   1      -1.240   1.766  -0.156  0.00  0.00    -0.015 C 
ATOM     20  C   LIG A   1      -0.810   3.038  -0.049  0.00  0.00    +0.005 C 
BRANCH  20  21
ATOM     21  C   LIG A   1       0.526   3.535   0.292  0.00  0.00    -0.023 A 
ATOM     22  C   LIG A   1       0.863   3.775   1.633  0.00  0.00    +0.034 A 
ATOM     23  C   LIG A   1       2.169   4.202   1.915  0.00  0.00    +0.047 A 
ATOM     24  N   LIG A   1       2.781   4.465   3.121  0.00  0.00    -0.361 N 
ATOM     25  H   LIG A   1       2.330   4.384   4.022  0.00  0.00    +0.165 HD
ATOM     26  C   LIG A   1       4.091   4.813   2.923  0.00  0.00    +0.083 A 
ATOM     27  C   LIG A   1       4.325   4.813   1.567  0.00  0.00    +0.027 A 
ATOM     28  C   LIG A   1       3.119   4.427   0.918  0.00  0.00    -0.000 A 
ATOM     29  C   LIG A   1       2.747   4.237  -0.426  0.00  0.00    +0.010 A 
ATOM     30  C   LIG A   1       1.452   3.788  -0.724  0.00  0.00    +0.008 A 
ENDBRANCH  20  21
ENDBRANCH   3  19
TORSDOF 3
