REMARK  Name = NuBBE_1552
REMARK  15 active torsions:
REMARK  status: ('A' for Active; 'I' for Inactive)
REMARK    1  A    between atoms: O_1  and  C_2
REMARK    2  A    between atoms: C_3  and  O_5
REMARK    3  A    between atoms: C_7  and  O_22
REMARK    4  A    between atoms: C_9  and  C_19
REMARK    5  A    between atoms: C_10  and  C_12
REMARK    6  A    between atoms: C_12  and  O_14
REMARK    7  A    between atoms: C_12  and  C_15
REMARK    8  A    between atoms: C_15  and  O_16
REMARK    9  A    between atoms: O_16  and  C_17
REMARK   10  A    between atoms: O_22  and  C_23
REMARK   11  A    between atoms: C_23  and  C_24
REMARK   12  A    between atoms: C_26  and  O_27
REMARK   13  A    between atoms: C_28  and  C_45
REMARK   14  A    between atoms: C_29  and  C_31
REMARK   15  A    between atoms: C_43  and  C_44
REMARK                            x       y       z     vdW  Elec       q    Type
REMARK                         _______ _______ _______ _____ _____    ______ ____
ROOT
ATOM      1  C   LIG A   1      -1.460   0.653  -0.686  0.00  0.00    +0.126 C 
ATOM      2  C   LIG A   1      -1.963  -0.484  -1.743  0.00  0.00    +0.163 C 
ATOM      3  C   LIG A   1      -1.832  -1.948  -1.212  0.00  0.00    +0.131 C 
ATOM      4  C   LIG A   1      -0.784  -1.886  -0.208  0.00  0.00    +0.132 C 
ATOM      5  C   LIG A   1       0.375  -1.764  -1.585  0.00  0.00    +0.064 C 
ATOM      6  C   LIG A   1       0.756  -3.084  -1.179  0.00  0.00    +0.037 C 
ATOM      7  C   LIG A   1       1.388  -2.234   0.189  0.00  0.00    +0.052 C 
ATOM      8  C   LIG A   1       1.748  -3.780  -2.073  0.00  0.00    +0.019 C 
ATOM      9  C   LIG A   1      -0.903  -3.236  -1.724  0.00  0.00    +0.149 C 
ATOM     10  O   LIG A   1      -1.318  -4.146  -2.433  0.00  0.00    -0.296 OA
ATOM     11  C   LIG A   1      -1.380   2.149  -1.290  0.00  0.00    +0.116 C 
ATOM     12  C   LIG A   1      -0.616   3.139  -0.329  0.00  0.00    +0.041 C 
ATOM     13  C   LIG A   1      -0.617   4.566  -0.968  0.00  0.00    +0.218 C 
ATOM     14  O   LIG A   1      -1.938   4.973  -1.385  0.00  0.00    -0.456 OA
ATOM     15  C   LIG A   1      -2.769   4.141  -2.039  0.00  0.00    +0.311 C 
ATOM     16  C   LIG A   1      -2.765   2.694  -1.632  0.00  0.00    +0.159 C 
ATOM     17  O   LIG A   1      -3.582   4.574  -2.849  0.00  0.00    -0.251 OA
ATOM     18  C   LIG A   1       0.871   2.663  -0.160  0.00  0.00    +0.014 C 
ATOM     19  C   LIG A   1       1.116   1.158  -0.383  0.00  0.00    +0.008 C 
ATOM     20  C   LIG A   1      -0.079   0.354   0.110  0.00  0.00    +0.036 C 
ATOM     21  C   LIG A   1       0.152  -1.124   0.629  0.00  0.00    +0.021 C 
ATOM     22  C   LIG A   1      -0.105  -1.077   2.153  0.00  0.00    +0.016 C 
ATOM     23  C   LIG A   1      -1.319   3.261   1.061  0.00  0.00    +0.018 C 
ENDROOT
BRANCH  13  24
ATOM     24  C   LIG A   1      -0.035   5.651  -0.084  0.00  0.00    +0.031 A 
ATOM     25  C   LIG A   1       1.281   6.064   0.000  0.00  0.00    +0.202 A 
ATOM     26  O   LIG A   1       1.428   7.049   0.923  0.00  0.00    -0.471 OA
ATOM     27  C   LIG A   1       0.198   7.300   1.436  0.00  0.00    +0.195 A 
ATOM     28  C   LIG A   1      -0.737   6.483   0.847  0.00  0.00    +0.048 A 
ENDBRANCH  13  24
BRANCH   1  29
ATOM     29  O   LIG A   1      -2.461   0.629   0.363  0.00  0.00    -0.383 OA
ATOM     30  H   LIG A   1      -3.350   0.474  -0.004  0.00  0.00    +0.210 HD
ENDBRANCH   1  29
BRANCH   2  31
ATOM     31  O   LIG A   1      -1.476  -0.326  -3.068  0.00  0.00    -0.388 OA
ATOM     32  H   LIG A   1      -1.028   0.543  -3.137  0.00  0.00    +0.210 HD
ENDBRANCH   2  31
BRANCH  11  33
ATOM     33  O   LIG A   1      -0.639   2.043  -2.533  0.00  0.00    -0.384 OA
ATOM     34  H   LIG A   1      -0.707   2.865  -3.055  0.00  0.00    +0.210 HD
ENDBRANCH  11  33
BRANCH   7  35
ATOM     35  C   LIG A   1       1.979  -3.135   1.295  0.00  0.00    +0.227 C 
BRANCH  35  36
ATOM     36  O   LIG A   1       1.057  -4.104   1.750  0.00  0.00    -0.380 OA
ATOM     37  H   LIG A   1       1.563  -4.859   2.103  0.00  0.00    +0.210 HD
ENDBRANCH  35  36
BRANCH  35  38
ATOM     38  C   LIG A   1       3.321  -3.831   0.968  0.00  0.00    +0.336 C 
ATOM     39  O   LIG A   1       3.987  -3.724  -0.030  0.00  0.00    -0.248 OA
BRANCH  38  40
ATOM     40  O   LIG A   1       3.675  -4.538   2.098  0.00  0.00    -0.466 OA
ATOM     41  C   LIG A   1       5.072  -4.797   2.248  0.00  0.00    +0.280 C 
ENDBRANCH  38  40
ENDBRANCH  35  38
ENDBRANCH   7  35
BRANCH   4  42
ATOM     42  O   LIG A   1      -0.971  -3.175   0.560  0.00  0.00    -0.457 OA
BRANCH  42  43
ATOM     43  C   LIG A   1      -1.933  -3.323   1.514  0.00  0.00    +0.304 C 
ATOM     44  C   LIG A   1      -1.829  -4.668   2.182  0.00  0.00    +0.136 C 
ATOM     45  O   LIG A   1      -2.759  -2.470   1.805  0.00  0.00    -0.251 OA
ENDBRANCH  42  43
ENDBRANCH   4  42
TORSDOF 10
