REMARK  Name = NuBBE_1047
REMARK  12 active torsions:
REMARK  status: ('A' for Active; 'I' for Inactive)
REMARK    1  A    between atoms: C_1  and  C_2
REMARK    2  A    between atoms: C_2  and  O_3
REMARK    3  A    between atoms: C_2  and  C_4
REMARK    4  A    between atoms: C_2  and  C_39
REMARK    5  A    between atoms: C_8  and  C_9
REMARK    6  A    between atoms: C_8  and  C_37
REMARK    7  A    between atoms: C_13  and  C_36
REMARK    8  A    between atoms: C_14  and  C_35
REMARK    9  A    between atoms: C_18  and  C_19
REMARK   10  A    between atoms: C_18  and  C_33
REMARK   11  A    between atoms: C_20  and  O_32
REMARK   12  A    between atoms: C_24  and  C_31
REMARK                            x       y       z     vdW  Elec       q    Type
REMARK                         _______ _______ _______ _____ _____    ______ ____
ROOT
ATOM      1  C   LIG A   1       1.903  -1.212  -0.656  0.00  0.00    +0.024 C 
ATOM      2  C   LIG A   1       2.012  -0.694  -2.110  0.00  0.00    +0.007 C 
ATOM      3  C   LIG A   1       0.823  -1.282  -2.866  0.00  0.00    +0.008 C 
ATOM      4  C   LIG A   1      -0.266  -1.604  -1.809  0.00  0.00    -0.023 C 
ATOM      5  C   LIG A   1      -1.230  -0.334  -1.381  0.00  0.00    -0.023 C 
ATOM      6  C   LIG A   1      -2.664  -0.547  -1.935  0.00  0.00    +0.008 C 
ATOM      7  C   LIG A   1      -3.616   0.604  -1.682  0.00  0.00    +0.005 C 
ATOM      8  C   LIG A   1      -3.764   1.065  -0.215  0.00  0.00    +0.003 C 
ATOM      9  C   LIG A   1      -4.437   2.526  -0.167  0.00  0.00    -0.006 C 
ATOM     10  C   LIG A   1      -3.905   3.505  -1.253  0.00  0.00    +0.014 C 
ATOM     11  C   LIG A   1      -4.227   3.241   1.194  0.00  0.00    +0.120 C 
ATOM     12  C   LIG A   1      -2.770   3.262   1.671  0.00  0.00    +0.032 C 
ATOM     13  C   LIG A   1      -1.845   2.216   1.034  0.00  0.00    +0.010 C 
ATOM     14  C   LIG A   1      -2.505   0.842   0.726  0.00  0.00    -0.025 C 
ATOM     15  C   LIG A   1      -1.370  -0.181   0.181  0.00  0.00    +0.002 C 
ATOM     16  C   LIG A   1      -1.415  -1.601   0.793  0.00  0.00    +0.005 C 
ATOM     17  C   LIG A   1      -0.068  -2.299   0.671  0.00  0.00    +0.005 C 
ATOM     18  C   LIG A   1       0.651  -2.131  -0.665  0.00  0.00    +0.001 C 
ATOM     19  C   LIG A   1      -2.995   0.310   2.113  0.00  0.00    +0.012 C 
ATOM     20  C   LIG A   1      -5.957   2.380  -0.449  0.00  0.00    +0.014 C 
ATOM     21  C   LIG A   1      -0.687   1.004  -1.947  0.00  0.00    +0.012 C 
ATOM     22  C   LIG A   1      -1.069  -2.820  -2.353  0.00  0.00    +0.012 C 
ENDROOT
BRANCH   1  26
ATOM     23  C   LIG A   1       4.172  -0.176   1.255  0.00  0.00    +0.150 C 
ATOM     24  C   LIG A   1       3.300  -1.084   2.123  0.00  0.00    +0.037 C 
ATOM     25  C   LIG A   1       3.210  -2.351   1.307  0.00  0.00    +0.037 C 
ATOM     26  C   LIG A   1       3.246  -1.840  -0.134  0.00  0.00    +0.070 C 
ATOM     27  C   LIG A   1       3.819  -2.935  -1.044  0.00  0.00    +0.042 C 
ATOM     28  O   LIG A   1       4.225  -0.772  -0.064  0.00  0.00    -0.367 OA
BRANCH  23  30
ATOM     29  C   LIG A   1       6.362   1.040   0.889  0.00  0.00    +0.043 C 
ATOM     30  C   LIG A   1       5.596   0.085   1.813  0.00  0.00    +0.086 C 
ATOM     31  C   LIG A   1       6.409  -1.200   2.000  0.00  0.00    +0.043 C 
BRANCH  30  32
ATOM     32  O   LIG A   1       5.470   0.721   3.095  0.00  0.00    -0.387 OA
ATOM     33  H   LIG A   1       6.367   0.912   3.420  0.00  0.00    +0.210 HD
ENDBRANCH  30  32
ENDBRANCH  23  30
ENDBRANCH   1  26
BRANCH  11  34
ATOM     34  O   LIG A   1      -5.072   2.739   2.229  0.00  0.00    -0.391 OA
ATOM     35  H   LIG A   1      -5.336   1.829   2.014  0.00  0.00    +0.210 HD
ENDBRANCH  11  34
TORSDOF 4
