@<TRIPOS>MOLECULE
NuBBE_913
 62 63 0 0 0
SMALL
GASTEIGER

@<TRIPOS>ATOM
      1 N           0.2620   -0.1602   -2.5690 N.am    1  LIG1       -0.2954
      2 C           0.3647    0.3576   -3.8398 C.2     1  LIG1        0.2484
      3 O           1.4199    0.3466   -4.4652 O.2     1  LIG1       -0.2701
      4 C          -0.8720    0.9364   -4.4557 C.ar    1  LIG1        0.0799
      5 C          -2.1151    0.9599   -3.8050 C.ar    1  LIG1        0.1500
      6 O          -2.1646    0.6189   -2.4788 O.3     1  LIG1       -0.5041
      7 C          -3.2780    1.3909   -4.4672 C.ar    1  LIG1        0.0759
      8 N          -4.5820    1.2912   -3.9370 N.am    1  LIG1       -0.2852
      9 C          -4.9874    0.6101   -2.8192 C.2     1  LIG1        0.2042
     10 O          -6.1408    0.5757   -2.4381 O.2     1  LIG1       -0.2792
     11 C          -3.1510    1.9433   -5.7480 C.ar    1  LIG1       -0.0369
     12 C          -1.9033    2.0121   -6.3739 C.ar    1  LIG1       -0.0591
     13 C          -0.7750    1.4853   -5.7425 C.ar    1  LIG1       -0.0460
     14 C           1.4041   -0.6930   -1.8360 C.3     1  LIG1        0.1577
     15 C           2.1735    0.3642   -0.9794 C.3     1  LIG1        0.1289
     16 C           2.2705    1.7836   -1.5259 C.3     1  LIG1       -0.0254
     17 O           1.7808    0.3857    0.4242 O.3     1  LIG1       -0.4589
     18 C           0.4871    0.5867    0.7844 C.2     1  LIG1        0.3132
     19 O          -0.3802    1.0512    0.0569 O.2     1  LIG1       -0.2504
     20 C           0.2037   -0.0465    2.1446 C.3     1  LIG1        0.0860
     21 C           0.1059   -1.5944    2.0412 C.3     1  LIG1        0.1046
     22 C          -0.6798   -2.2058    0.8337 C.3     1  LIG1        0.1268
     23 O          -0.2761   -1.7279   -0.4759 O.3     1  LIG1       -0.4576
     24 C           1.0233   -1.8325   -0.8780 C.2     1  LIG1        0.3317
     25 O           1.8481   -2.5618   -0.3367 O.2     1  LIG1       -0.2486
     26 C          -0.7139   -3.7345    0.8776 C.3     1  LIG1       -0.0252
     27 O           1.3935   -2.1928    2.2175 O.3     1  LIG1       -0.3873
     28 C           1.2274    0.4517    3.2048 C.3     1  LIG1       -0.0350
     29 C           1.1230   -0.1507    4.6321 C.3     1  LIG1       -0.0433
     30 C           2.1516    0.4796    5.6044 C.3     1  LIG1       -0.0533
     31 C           3.6118    0.1770    5.2847 C.3     1  LIG1       -0.0650
     32 C          -0.2805   -0.0002    5.2313 C.3     1  LIG1       -0.0624
     33 H          -0.6445   -0.1466   -2.1007 H       1  LIG1        0.1499
     34 H          -2.3181    1.4517   -1.9867 H       1  LIG1        0.2923
     35 H          -5.3542    1.6604   -4.4798 H       1  LIG1        0.1546
     36 H          -4.2053    0.0675   -2.2777 H       1  LIG1        0.1255
     37 H          -4.0201    2.3206   -6.2837 H       1  LIG1        0.0637
     38 H          -1.8119    2.4578   -7.3628 H       1  LIG1        0.0618
     39 H           0.1862    1.5169   -6.2545 H       1  LIG1        0.0626
     40 H           2.0825   -1.1109   -2.5869 H       1  LIG1        0.0652
     41 H           3.2041   -0.0108   -0.9273 H       1  LIG1        0.0755
     42 H           1.2889    2.2452   -1.6658 H       1  LIG1        0.0266
     43 H           2.8065    1.8005   -2.4796 H       1  LIG1        0.0266
     44 H           2.8140    2.4217   -0.8188 H       1  LIG1        0.0266
     45 H          -0.7861    0.3392    2.4251 H       1  LIG1        0.0440
     46 H          -0.4508   -1.9179    2.9296 H       1  LIG1        0.0638
     47 H          -1.7169   -1.8594    0.9321 H       1  LIG1        0.0757
     48 H           0.2878   -4.1715    0.8324 H       1  LIG1        0.0266
     49 H          -1.2732   -4.1351    0.0265 H       1  LIG1        0.0266
     50 H          -1.1875   -4.0835    1.8018 H       1  LIG1        0.0266
     51 H           1.7831   -2.4014    1.3427 H       1  LIG1        0.2100
     52 H           1.1578    1.5463    3.2651 H       1  LIG1        0.0277
     53 H           2.2362    0.2469    2.8284 H       1  LIG1        0.0277
     54 H           1.3416   -1.2232    4.5797 H       1  LIG1        0.0298
     55 H           1.9597    0.1129    6.6217 H       1  LIG1        0.0265
     56 H           2.0111    1.5667    5.6358 H       1  LIG1        0.0265
     57 H           3.8614   -0.8562    5.5476 H       1  LIG1        0.0230
     58 H           4.2641    0.8324    5.8727 H       1  LIG1        0.0230
     59 H           3.8580    0.3326    4.2324 H       1  LIG1        0.0230
     60 H          -0.5571    1.0515    5.3558 H       1  LIG1        0.0232
     61 H          -0.3266   -0.4798    6.2161 H       1  LIG1        0.0232
     62 H          -1.0422   -0.4818    4.6127 H       1  LIG1        0.0232
@<TRIPOS>BOND
     1     1     2   am
     2     2     3    2
     3     2     4    1
     4     4     5   ar
     5     5     6    1
     6     5     7   ar
     7     7     8    1
     8     8     9   am
     9     9    10    2
    10     7    11   ar
    11    11    12   ar
    12    12    13   ar
    13     4    13   ar
    14     1    14    1
    15    14    15    1
    16    15    16    1
    17    15    17    1
    18    17    18    1
    19    18    19    2
    20    18    20    1
    21    20    21    1
    22    21    22    1
    23    22    23    1
    24    23    24    1
    25    14    24    1
    26    24    25    2
    27    22    26    1
    28    21    27    1
    29    20    28    1
    30    28    29    1
    31    29    30    1
    32    30    31    1
    33    29    32    1
    34     1    33    1
    35     6    34    1
    36     8    35    1
    37     9    36    1
    38    11    37    1
    39    12    38    1
    40    13    39    1
    41    14    40    1
    42    15    41    1
    43    16    42    1
    44    16    43    1
    45    16    44    1
    46    20    45    1
    47    21    46    1
    48    22    47    1
    49    26    48    1
    50    26    49    1
    51    26    50    1
    52    27    51    1
    53    28    52    1
    54    28    53    1
    55    29    54    1
    56    30    55    1
    57    30    56    1
    58    31    57    1
    59    31    58    1
    60    31    59    1
    61    32    60    1
    62    32    61    1
    63    32    62    1
