@<TRIPOS>MOLECULE
NuBBE_29
 45 44 0 0 0
SMALL
GASTEIGER

@<TRIPOS>ATOM
      1 C          -4.2112   -0.5404    4.2564 C.3     1  LIG1       -0.0653
      2 C          -2.9539   -1.3402    3.9578 C.3     1  LIG1       -0.0559
      3 C          -1.8289   -0.4504    3.4256 C.3     1  LIG1       -0.0533
      4 C          -0.5531   -1.2293    3.0894 C.3     1  LIG1       -0.0531
      5 C          -0.7106   -2.2993    2.0037 C.3     1  LIG1       -0.0531
      6 C          -1.2630   -1.8153    0.6568 C.3     1  LIG1       -0.0530
      7 C          -0.3640   -0.8519   -0.1142 C.3     1  LIG1       -0.0526
      8 C          -1.0321   -0.4340   -1.4678 C.3     1  LIG1       -0.0448
      9 C          -0.0799    0.4872   -2.1451 C.3     1  LIG1        0.0240
     10 C          -0.1649    1.0755   -3.5033 C.2     1  LIG1        0.2130
     11 N           0.9116    1.7571   -4.0285 N.am    1  LIG1       -0.3151
     12 H           0.6666    2.1049   -4.9677 H       1  LIG1        0.1487
     13 C           2.3110    1.5437   -3.7509 C.3     1  LIG1        0.0139
     14 C           2.9579    1.9470   -2.3589 C.3     1  LIG1       -0.0311
     15 C           2.5748    1.1769   -1.0894 C.3     1  LIG1       -0.0612
     16 C           4.5000    1.7861   -2.4330 C.3     1  LIG1       -0.0612
     17 O          -1.2326    1.2028   -4.0974 O.2     1  LIG1       -0.2758
     18 H          -5.0057   -1.2093    4.6022 H       1  LIG1        0.0230
     19 H          -4.5691   -0.0278    3.3576 H       1  LIG1        0.0230
     20 H          -4.0301    0.2074    5.0341 H       1  LIG1        0.0230
     21 H          -3.2141   -2.1145    3.2289 H       1  LIG1        0.0263
     22 H          -2.6203   -1.8487    4.8697 H       1  LIG1        0.0263
     23 H          -1.5800    0.3024    4.1842 H       1  LIG1        0.0265
     24 H          -2.1715    0.1050    2.5452 H       1  LIG1        0.0265
     25 H          -0.1870   -1.7173    4.0032 H       1  LIG1        0.0265
     26 H           0.2271   -0.5182    2.7945 H       1  LIG1        0.0265
     27 H          -1.3845   -3.0822    2.3751 H       1  LIG1        0.0265
     28 H           0.2587   -2.7926    1.8547 H       1  LIG1        0.0265
     29 H          -2.2430   -1.3499    0.7999 H       1  LIG1        0.0265
     30 H          -1.4250   -2.6990    0.0292 H       1  LIG1        0.0265
     31 H           0.6065   -1.3300   -0.3039 H       1  LIG1        0.0265
     32 H          -0.1556    0.0432    0.4853 H       1  LIG1        0.0265
     33 H          -1.9914    0.0502   -1.2527 H       1  LIG1        0.0270
     34 H          -1.2466   -1.3299   -2.0589 H       1  LIG1        0.0270
     35 H           0.8512   -0.0418   -2.2516 H       1  LIG1        0.0358
     36 H          -0.0044    1.3786   -1.5323 H       1  LIG1        0.0358
     37 H           2.8032    2.1811   -4.4842 H       1  LIG1        0.0464
     38 H           2.5712    0.5035   -4.0191 H       1  LIG1        0.0464
     39 H           2.7346    3.0057   -2.1865 H       1  LIG1        0.0311
     40 H           2.5795    0.0988   -1.2722 H       1  LIG1        0.0233
     41 H           1.6289    1.5106   -0.6463 H       1  LIG1        0.0233
     42 H           3.3314    1.3307   -0.2907 H       1  LIG1        0.0233
     43 H           4.7768    0.7797   -2.7697 H       1  LIG1        0.0233
     44 H           4.9621    1.9176   -1.4363 H       1  LIG1        0.0233
     45 H           4.9696    2.5265   -3.0927 H       1  LIG1        0.0233
@<TRIPOS>BOND
     1     1     2    1
     2     2     3    1
     3     3     4    1
     4     4     5    1
     5     5     6    1
     6     6     7    1
     7     7     8    1
     8     8     9    1
     9     9    10    1
    10    10    11   am
    11    11    12    1
    12    11    13    1
    13    13    14    1
    14    14    15    1
    15    14    16    1
    16    10    17    2
    17     1    18    1
    18     1    19    1
    19     1    20    1
    20     2    21    1
    21     2    22    1
    22     3    23    1
    23     3    24    1
    24     4    25    1
    25     4    26    1
    26     5    27    1
    27     5    28    1
    28     6    29    1
    29     6    30    1
    30     7    31    1
    31     7    32    1
    32     8    33    1
    33     8    34    1
    34     9    35    1
    35     9    36    1
    36    13    37    1
    37    13    38    1
    38    14    39    1
    39    15    40    1
    40    15    41    1
    41    15    42    1
    42    16    43    1
    43    16    44    1
    44    16    45    1
