REMARK  Name = NuBBE_1576
REMARK  7 active torsions:
REMARK  status: ('A' for Active; 'I' for Inactive)
REMARK    1  A    between atoms: C_1  and  C_2
REMARK    2  A    between atoms: C_7  and  C_9
REMARK    3  A    between atoms: C_9  and  O_11
REMARK    4  A    between atoms: C_18  and  O_31
REMARK    5  A    between atoms: C_20  and  O_30
REMARK    6  A    between atoms: C_24  and  C_25
REMARK    7  A    between atoms: C_24  and  C_26
REMARK                            x       y       z     vdW  Elec       q    Type
REMARK                         _______ _______ _______ _____ _____    ______ ____
ROOT
ATOM      1  C   LIG A   1      -2.429  -0.573   1.246  0.00  0.00    +0.012 C 
ATOM      2  C   LIG A   1      -1.000   0.041   1.114  0.00  0.00    -0.023 C 
ATOM      3  C   LIG A   1      -0.745   0.506  -0.355  0.00  0.00    +0.009 C 
ATOM      4  C   LIG A   1      -0.886  -0.665  -1.403  0.00  0.00    +0.042 C 
ATOM      5  C   LIG A   1      -0.240  -0.265  -2.777  0.00  0.00    +0.137 C 
ATOM      6  C   LIG A   1      -0.813   1.060  -3.195  0.00  0.00    +0.008 A 
ATOM      7  C   LIG A   1      -1.377   1.929  -2.288  0.00  0.00    +0.109 A 
ATOM      8  C   LIG A   1      -1.577   1.742  -0.827  0.00  0.00    +0.079 C 
ATOM      9  O   LIG A   1      -1.803   3.061  -2.891  0.00  0.00    -0.468 OA
ATOM     10  C   LIG A   1      -1.529   2.910  -4.216  0.00  0.00    +0.195 A 
ATOM     11  C   LIG A   1      -0.924   1.694  -4.456  0.00  0.00    +0.045 A 
ATOM     12  C   LIG A   1      -0.521  -2.054  -0.846  0.00  0.00    +0.148 C 
ATOM     13  C   LIG A   1       0.430  -2.043   0.356  0.00  0.00    +0.147 C 
ATOM     14  C   LIG A   1       0.099  -1.039   1.504  0.00  0.00    +0.032 C 
ATOM     15  C   LIG A   1       1.443  -0.482   2.171  0.00  0.00    -0.029 C 
ATOM     16  C   LIG A   1       2.123  -1.619   2.976  0.00  0.00    +0.011 C 
ATOM     17  C   LIG A   1       2.512   0.043   1.178  0.00  0.00    +0.011 C 
ATOM     18  C   LIG A   1       1.134   0.655   3.167  0.00  0.00    +0.007 C 
ATOM     19  C   LIG A   1       0.321   1.767   2.529  0.00  0.00    +0.001 C 
ATOM     20  C   LIG A   1      -1.032   1.218   2.132  0.00  0.00    +0.007 C 
ENDROOT
BRANCH   5  21
ATOM     21  C   LIG A   1       1.288  -0.265  -2.689  0.00  0.00    +0.313 C 
ATOM     22  O   LIG A   1       1.930  -1.296  -2.512  0.00  0.00    -0.250 OA
BRANCH  21  23
ATOM     23  O   LIG A   1       1.915   0.928  -2.750  0.00  0.00    -0.480 OA
ATOM     24  H   LIG A   1       1.341   1.708  -2.885  0.00  0.00    +0.295 HD
ENDBRANCH  21  23
ENDBRANCH   5  21
BRANCH  13  25
ATOM     25  O   LIG A   1       0.460  -3.370   0.908  0.00  0.00    -0.389 OA
ATOM     26  H   LIG A   1       0.498  -3.981   0.146  0.00  0.00    +0.210 HD
ENDBRANCH  13  25
BRANCH  12  27
ATOM     27  O   LIG A   1      -0.022  -2.933  -1.862  0.00  0.00    -0.389 OA
ATOM     28  H   LIG A   1       0.909  -2.683  -2.056  0.00  0.00    +0.210 HD
ENDBRANCH  12  27
TORSDOF 4
