REMARK  Name = NuBBE_2441
REMARK  11 active torsions:
REMARK  status: ('A' for Active; 'I' for Inactive)
REMARK    1  A    between atoms: O_1  and  C_2
REMARK    2  A    between atoms: O_1  and  C_7
REMARK    3  A    between atoms: C_2  and  C_3
REMARK    4  A    between atoms: C_4  and  C_5
REMARK    5  A    between atoms: C_4  and  C_6
REMARK    6  A    between atoms: C_11  and  C_15
REMARK    7  A    between atoms: C_12  and  O_13
REMARK    8  A    between atoms: O_13  and  C_14
REMARK    9  A    between atoms: C_15  and  C_16
REMARK   10  A    between atoms: C_17  and  C_18
REMARK   11  A    between atoms: C_17  and  C_19
REMARK                            x       y       z     vdW  Elec       q    Type
REMARK                         _______ _______ _______ _____ _____    ______ ____
ROOT
ATOM      1  C   LIG A   1      -0.482   0.549  -0.469  0.00  0.00    +0.206 A 
ATOM      2  C   LIG A   1       0.401   1.634  -0.607  0.00  0.00    +0.184 A 
ATOM      3  C   LIG A   1       1.765   1.526  -0.326  0.00  0.00    +0.022 A 
ATOM      4  C   LIG A   1       2.276   0.314   0.131  0.00  0.00    +0.019 A 
ATOM      5  C   LIG A   1       1.440  -0.804   0.285  0.00  0.00    +0.002 A 
ATOM      6  C   LIG A   1       0.063  -0.696  -0.061  0.00  0.00    +0.169 A 
ATOM      7  C   LIG A   1       2.630   2.686  -0.475  0.00  0.00    +0.019 A 
ATOM      8  C   LIG A   1       2.096   3.881  -0.750  0.00  0.00    +0.092 A 
ATOM      9  C   LIG A   1       0.657   4.047  -0.951  0.00  0.00    +0.337 A 
ATOM     10  O   LIG A   1       0.153   5.165  -1.072  0.00  0.00    -0.245 OA
ATOM     11  O   LIG A   1      -0.090   2.890  -1.030  0.00  0.00    -0.418 OA
ENDROOT
BRANCH   6  12
ATOM     12  O   LIG A   1      -0.655  -1.859   0.099  0.00  0.00    -0.491 OA
ATOM     13  C   LIG A   1      -1.784  -2.068  -0.744  0.00  0.00    +0.277 C 
ENDBRANCH   6  12
BRANCH   1  14
ATOM     14  O   LIG A   1      -1.834   0.609  -0.721  0.00  0.00    -0.481 OA
BRANCH  14  15
ATOM     15  C   LIG A   1      -2.522   1.845  -0.514  0.00  0.00    +0.257 C 
BRANCH  15  16
ATOM     16  C   LIG A   1      -3.990   1.618  -0.749  0.00  0.00    +0.012 C 
ATOM     17  C   LIG A   1      -5.011   1.869   0.094  0.00  0.00    -0.076 C 
ATOM     18  C   LIG A   1      -4.856   2.366   1.504  0.00  0.00    +0.038 C 
ATOM     19  C   LIG A   1      -6.438   1.666  -0.342  0.00  0.00    +0.038 C 
ENDBRANCH  15  16
ENDBRANCH  14  15
ENDBRANCH   1  14
BRANCH   5  20
ATOM     20  C   LIG A   1       2.055  -2.072   0.875  0.00  0.00    +0.066 C 
BRANCH  20  21
ATOM     21  C   LIG A   1       3.146  -2.684   0.024  0.00  0.00    -0.023 C 
ATOM     22  C   LIG A   1       4.237  -3.372   0.428  0.00  0.00    -0.079 C 
ATOM     23  C   LIG A   1       4.653  -3.615   1.855  0.00  0.00    +0.038 C 
ATOM     24  C   LIG A   1       5.141  -4.037  -0.582  0.00  0.00    +0.038 C 
ENDBRANCH  20  21
ENDBRANCH   5  20
TORSDOF 6
