REMARK  Name = NuBBE_2232
REMARK  5 active torsions:
REMARK  status: ('A' for Active; 'I' for Inactive)
REMARK    1  A    between atoms: C_1  and  C_2
REMARK    2  A    between atoms: C_8  and  O_9
REMARK    3  A    between atoms: C_10  and  O_12
REMARK    4  A    between atoms: C_20  and  C_21
REMARK    5  A    between atoms: C_20  and  C_22
REMARK                            x       y       z     vdW  Elec       q    Type
REMARK                         _______ _______ _______ _____ _____    ______ ____
ROOT
ATOM      1  C   LIG A   1      -1.601   1.675   0.873  0.00  0.00    +0.014 C 
ATOM      2  C   LIG A   1      -0.158   1.174   0.538  0.00  0.00    +0.003 C 
ATOM      3  C   LIG A   1       0.320   0.279   1.806  0.00  0.00    +0.003 C 
ATOM      4  C   LIG A   1      -0.470  -1.037   1.883  0.00  0.00    +0.005 C 
ATOM      5  C   LIG A   1      -0.486  -1.856   0.607  0.00  0.00    +0.010 C 
ATOM      6  C   LIG A   1      -0.829  -1.073  -0.675  0.00  0.00    +0.007 C 
ATOM      7  C   LIG A   1      -2.377  -0.957  -0.831  0.00  0.00    +0.040 C 
ATOM      8  C   LIG A   1      -0.137   0.339  -0.842  0.00  0.00    +0.103 C 
ATOM      9  C   LIG A   1      -0.631   1.017  -2.187  0.00  0.00    +0.148 C 
ATOM     10  C   LIG A   1      -0.719  -0.017  -3.348  0.00  0.00    +0.042 C 
ATOM     11  C   LIG A   1      -1.300  -1.407  -2.990  0.00  0.00    +0.018 C 
ATOM     12  C   LIG A   1      -0.425  -1.979  -1.889  0.00  0.00    +0.018 C 
ATOM     13  C   LIG A   1      -2.590  -1.554  -2.196  0.00  0.00    -0.073 C 
ATOM     14  C   LIG A   1      -3.523  -2.454  -2.429  0.00  0.00    +0.008 C 
ATOM     15  C   LIG A   1       1.886   0.154   2.029  0.00  0.00    -0.032 C 
ATOM     16  C   LIG A   1       2.373  -0.420   3.394  0.00  0.00    +0.011 C 
ATOM     17  C   LIG A   1       2.591  -0.803   1.043  0.00  0.00    +0.011 C 
ATOM     18  C   LIG A   1       2.384   1.621   2.080  0.00  0.00    +0.007 C 
ATOM     19  C   LIG A   1       2.152   2.437   0.831  0.00  0.00    +0.001 C 
ATOM     20  C   LIG A   1       0.679   2.495   0.443  0.00  0.00    +0.010 C 
ENDROOT
BRANCH   8  21
ATOM     21  O   LIG A   1       1.239   0.097  -1.201  0.00  0.00    -0.385 OA
ATOM     22  H   LIG A   1       1.770   0.882  -1.016  0.00  0.00    +0.210 HD
ENDBRANCH   8  21
BRANCH   9  23
ATOM     23  O   LIG A   1      -1.863   1.716  -2.130  0.00  0.00    -0.389 OA
ATOM     24  H   LIG A   1      -1.664   2.655  -1.980  0.00  0.00    +0.210 HD
ENDBRANCH   9  23
TORSDOF 2
