@<TRIPOS>MOLECULE
NuBBE_1772
 34 36 0 0 0
SMALL
GASTEIGER

@<TRIPOS>ATOM
      1 C           2.8427   -0.9632    0.0084 C.ar    1  LIG1       -0.0438
      2 C           1.8813   -1.9317   -0.3085 C.ar    1  LIG1        0.0669
      3 C           0.4708   -1.8539    0.1610 C.2     1  LIG1        0.2308
      4 O          -0.1257   -2.9162    0.3426 O.2     1  LIG1       -0.2833
      5 C          -0.2241   -0.5268    0.3076 C.2     1  LIG1        0.1687
      6 C          -1.5219   -0.5622    0.6594 C.2     1  LIG1       -0.0084
      7 C          -2.3036    0.6692    0.6802 C.ar    1  LIG1       -0.0113
      8 C          -3.7009    0.6525    0.7881 C.ar    1  LIG1       -0.0504
      9 C          -4.4217    1.8498    0.7952 C.ar    1  LIG1       -0.0160
     10 C          -3.7328    3.0535    0.7095 C.ar    1  LIG1        0.1586
     11 C          -2.3415    3.0702    0.6120 C.ar    1  LIG1        0.1653
     12 C          -1.6164    1.8833    0.5768 C.ar    1  LIG1        0.0419
     13 C          -0.1177    1.8557    0.5137 C.3     1  LIG1        0.1188
     14 O           0.4422    0.6390   -0.0157 O.2     1  LIG1       -0.4834
     15 O          -1.6936    4.2731    0.5564 O.3     1  LIG1       -0.5030
     16 O          -4.3805    4.2582    0.7221 O.3     1  LIG1       -0.5033
     17 C           2.2743   -3.0424   -1.0785 C.ar    1  LIG1        0.1312
     18 C           3.5706   -3.1522   -1.5790 C.ar    1  LIG1        0.0220
     19 C           4.4963   -2.1590   -1.2837 C.ar    1  LIG1        0.1204
     20 C           4.1456   -1.0748   -0.4874 C.ar    1  LIG1       -0.0193
     21 O           5.7754   -2.2181   -1.7504 O.3     1  LIG1       -0.5066
     22 O           1.4268   -4.0783   -1.3840 O.3     1  LIG1       -0.5059
     23 H           2.6082   -0.1188    0.6481 H       1  LIG1        0.0627
     24 H          -2.0351   -1.4957    0.8699 H       1  LIG1        0.0661
     25 H          -4.2363   -0.2920    0.8569 H       1  LIG1        0.0625
     26 H          -5.5038    1.8193    0.8708 H       1  LIG1        0.0655
     27 H           0.2920    2.0048    1.5202 H       1  LIG1        0.0749
     28 H           0.2533    2.6642   -0.1248 H       1  LIG1        0.0749
     29 H          -2.4098    4.9399    0.5882 H       1  LIG1        0.2923
     30 H          -5.3374    4.0876    0.7680 H       1  LIG1        0.2923
     31 H           3.8359   -4.0147   -2.1822 H       1  LIG1        0.0691
     32 H           4.8868   -0.3150   -0.2517 H       1  LIG1        0.0654
     33 H           5.8673   -3.0146   -2.3000 H       1  LIG1        0.2921
     34 H           0.6334   -3.9908   -0.8092 H       1  LIG1        0.2922
@<TRIPOS>BOND
     1     1     2   ar
     2     2     3    1
     3     3     4    2
     4     3     5    1
     5     5     6    2
     6     6     7    1
     7     7     8   ar
     8     8     9   ar
     9     9    10   ar
    10    10    11   ar
    11    11    12   ar
    12     7    12   ar
    13    12    13    1
    14    13    14    1
    15     5    14    1
    16    11    15    1
    17    10    16    1
    18     2    17   ar
    19    17    18   ar
    20    18    19   ar
    21    19    20   ar
    22     1    20   ar
    23    19    21    1
    24    17    22    1
    25     1    23    1
    26     6    24    1
    27     8    25    1
    28     9    26    1
    29    13    27    1
    30    13    28    1
    31    15    29    1
    32    16    30    1
    33    18    31    1
    34    20    32    1
    35    21    33    1
    36    22    34    1
