REMARK  Name = NuBBE_490
REMARK  15 active torsions:
REMARK  status: ('A' for Active; 'I' for Inactive)
REMARK    1  A    between atoms: C_4  and  C_5
REMARK    2  A    between atoms: C_12  and  O_13
REMARK    3  A    between atoms: C_16  and  C_24
REMARK    4  A    between atoms: C_18  and  C_23
REMARK    5  A    between atoms: C_28  and  C_29
REMARK    6  A    between atoms: C_30  and  C_31
REMARK    7  A    between atoms: C_31  and  C_33
REMARK    8  A    between atoms: C_31  and  C_34
REMARK    9  A    between atoms: C_34  and  O_36
REMARK   10  A    between atoms: C_34  and  C_49
REMARK   11  A    between atoms: O_36  and  C_37
REMARK   12  A    between atoms: C_37  and  C_38
REMARK   13  A    between atoms: C_38  and  O_39
REMARK   14  A    between atoms: C_38  and  C_41
REMARK   15  A    between atoms: O_39  and  C_40
REMARK                            x       y       z     vdW  Elec       q    Type
REMARK                         _______ _______ _______ _____ _____    ______ ____
ROOT
ATOM      1 CL   LIG A   1       0.447  -0.727   2.676  0.00  0.00    -0.079 Cl
ATOM      2  C   LIG A   1      -0.306   0.776   2.261  0.00  0.00    +0.094 C 
ATOM      3  C   LIG A   1      -0.529   1.731   3.410  0.00  0.00    +0.207 C 
ATOM      4  C   LIG A   1      -0.854   3.183   3.021  0.00  0.00    +0.141 C 
ATOM      5  C   LIG A   1       0.463   3.888   2.644  0.00  0.00    +0.051 C 
ATOM      6  C   LIG A   1      -1.906   3.085   1.924  0.00  0.00    +0.081 C 
ATOM      7  C   LIG A   1      -1.314   2.419   0.721  0.00  0.00    +0.003 C 
ATOM      8  C   LIG A   1      -1.366   2.841  -0.553  0.00  0.00    +0.200 C 
ATOM      9  O   LIG A   1      -0.879   2.114  -1.627  0.00  0.00    -0.463 OA
ATOM     10  O   LIG A   1      -1.495   3.971   4.022  0.00  0.00    -0.333 OA
ATOM     11  C   LIG A   1      -2.380   4.893   3.371  0.00  0.00    +0.188 C 
ATOM     12  C   LIG A   1      -2.529   4.477   1.906  0.00  0.00    +0.168 C 
ATOM     13  C   LIG A   1      -3.683   5.013   4.159  0.00  0.00    +0.086 C 
ATOM     14  C   LIG A   1      -4.727   5.708   3.288  0.00  0.00    +0.181 C 
ATOM     15  O   LIG A   1      -4.947   4.960   2.082  0.00  0.00    -0.461 OA
ATOM     16  C   LIG A   1      -3.942   4.409   1.375  0.00  0.00    +0.316 C 
ATOM     17  O   LIG A   1      -4.188   3.857   0.304  0.00  0.00    -0.250 OA
ATOM     18  C   LIG A   1      -4.433   7.158   2.920  0.00  0.00    +0.052 C 
ATOM     19  C   LIG A   1      -4.209   3.651   4.643  0.00  0.00    +0.016 C 
ATOM     20  O   LIG A   1      -0.439   1.367   4.581  0.00  0.00    -0.288 OA
ATOM     21  C   LIG A   1      -0.631   1.137   0.996  0.00  0.00    +0.007 C 
ATOM     22  C   LIG A   1      -0.347   0.293  -0.157  0.00  0.00    +0.056 C 
ATOM     23  C   LIG A   1      -0.440   0.810  -1.396  0.00  0.00    +0.128 C 
ENDROOT
BRANCH  11  24
ATOM     24  O   LIG A   1      -1.703   6.145   3.405  0.00  0.00    -0.363 OA
ATOM     25  H   LIG A   1      -1.434   6.261   4.334  0.00  0.00    +0.213 HD
ENDBRANCH  11  24
BRANCH  23  26
ATOM     26  C   LIG A   1      -0.141   0.067  -2.602  0.00  0.00    +0.042 C 
ATOM     27  C   LIG A   1       0.784  -0.905  -2.674  0.00  0.00    -0.017 C 
BRANCH  27  28
ATOM     28  C   LIG A   1       1.145  -1.683  -3.923  0.00  0.00    +0.049 C 
ATOM     29  C   LIG A   1       2.635  -1.464  -4.215  0.00  0.00    +0.015 C 
BRANCH  28  30
ATOM     30  C   LIG A   1       0.790  -3.188  -3.765  0.00  0.00    +0.180 C 
ATOM     31  C   LIG A   1       1.131  -3.981  -5.029  0.00  0.00    +0.052 C 
BRANCH  30  32
ATOM     32  O   LIG A   1       1.557  -3.739  -2.670  0.00  0.00    -0.459 OA
BRANCH  32  33
ATOM     33  C   LIG A   1       1.125  -4.915  -2.125  0.00  0.00    +0.341 C 
ATOM     34  O   LIG A   1       0.036  -5.445  -2.385  0.00  0.00    -0.247 OA
BRANCH  33  35
ATOM     35  C   LIG A   1       2.152  -5.416  -1.071  0.00  0.00    +0.256 C 
BRANCH  35  36
ATOM     36  C   LIG A   1       3.584  -5.407  -1.630  0.00  0.00    -0.008 A 
ATOM     37  C   LIG A   1       4.406  -4.283  -1.422  0.00  0.00    +0.007 A 
ATOM     38  C   LIG A   1       5.710  -4.235  -1.924  0.00  0.00    +0.000 A 
ATOM     39  C   LIG A   1       6.220  -5.310  -2.646  0.00  0.00    +0.000 A 
ATOM     40  C   LIG A   1       5.416  -6.425  -2.879  0.00  0.00    +0.000 A 
ATOM     41  C   LIG A   1       4.105  -6.472  -2.383  0.00  0.00    +0.007 A 
ENDBRANCH  35  36
BRANCH  35  42
ATOM     42  O   LIG A   1       1.889  -6.702  -0.495  0.00  0.00    -0.364 OA
ATOM     43  C   LIG A   1       0.727  -6.732   0.330  0.00  0.00    +0.195 C 
ENDBRANCH  35  42
ENDBRANCH  33  35
ENDBRANCH  32  33
ENDBRANCH  30  32
ENDBRANCH  28  30
ENDBRANCH  27  28
ENDBRANCH  23  26
TORSDOF 9
