@<TRIPOS>MOLECULE
NuBBE_2292
 34 36 0 0 0
SMALL
GASTEIGER

@<TRIPOS>ATOM
      1 C          -2.2022   -2.0341    0.2444 C.3     1  LIG1       -0.0359
      2 C          -0.7343   -1.8965    0.1528 C.ar    1  LIG1       -0.0018
      3 C           0.1696   -2.9599    0.0896 C.ar    1  LIG1        0.1061
      4 C           0.0098   -4.4306    0.0493 C.3     1  LIG1       -0.0061
      5 O           1.4670   -2.5209    0.0670 O.2     1  LIG1       -0.4597
      6 C           1.4306   -1.1563    0.0910 C.ar    1  LIG1        0.1360
      7 C           0.1140   -0.7891    0.1075 C.ar    1  LIG1        0.0270
      8 C          -0.2090    0.5899    0.1033 C.ar    1  LIG1       -0.0301
      9 C          -1.5024    1.3452    0.1186 C.3     1  LIG1       -0.0174
     10 C          -2.5175    1.0002   -0.9588 C.3     1  LIG1       -0.0584
     11 C          -1.0182    2.8144   -0.1124 C.3     1  LIG1       -0.0424
     12 C           0.4784    2.8908    0.2397 C.3     1  LIG1       -0.0266
     13 C           0.9223    1.4636    0.1560 C.ar    1  LIG1       -0.0402
     14 C           2.2696    1.0725    0.1570 C.ar    1  LIG1       -0.0435
     15 C           3.4136    2.0392    0.2080 C.3     1  LIG1       -0.0393
     16 C           2.5243   -0.3042    0.1071 C.ar    1  LIG1       -0.0156
     17 H          -2.4897   -3.0174    0.6304 H       1  LIG1        0.0279
     18 H          -2.6537   -1.9356   -0.7471 H       1  LIG1        0.0279
     19 H          -2.6293   -1.2960    0.9282 H       1  LIG1        0.0279
     20 H          -1.0432   -4.7222    0.0037 H       1  LIG1        0.0308
     21 H           0.4517   -4.8877    0.9396 H       1  LIG1        0.0308
     22 H           0.5077   -4.8415   -0.8346 H       1  LIG1        0.0308
     23 H          -1.9445    1.2641    1.1184 H       1  LIG1        0.0346
     24 H          -2.0402    0.7565   -1.9133 H       1  LIG1        0.0236
     25 H          -3.2083    1.8356   -1.1227 H       1  LIG1        0.0236
     26 H          -3.1476    0.1611   -0.6680 H       1  LIG1        0.0236
     27 H          -1.6122    3.5355    0.4590 H       1  LIG1        0.0274
     28 H          -1.1297    3.0850   -1.1723 H       1  LIG1        0.0274
     29 H           0.6228    3.2580    1.2609 H       1  LIG1        0.0314
     30 H           1.0087    3.5318   -0.4701 H       1  LIG1        0.0314
     31 H           3.0927    3.0818    0.2685 H       1  LIG1        0.0278
     32 H           4.0304    1.9321   -0.6905 H       1  LIG1        0.0278
     33 H           4.0351    1.8361    1.0866 H       1  LIG1        0.0278
     34 H           3.5336   -0.7010    0.1034 H       1  LIG1        0.0657
@<TRIPOS>BOND
     1     1     2    1
     2     2     3   ar
     3     3     4    1
     4     3     5   ar
     5     5     6   ar
     6     6     7   ar
     7     2     7   ar
     8     7     8   ar
     9     8     9    1
    10     9    10    1
    11     9    11    1
    12    11    12    1
    13     8    13   ar
    14    12    13    1
    15    13    14   ar
    16    14    15    1
    17    14    16   ar
    18     6    16   ar
    19     1    17    1
    20     1    18    1
    21     1    19    1
    22     4    20    1
    23     4    21    1
    24     4    22    1
    25     9    23    1
    26    10    24    1
    27    10    25    1
    28    10    26    1
    29    11    27    1
    30    11    28    1
    31    12    29    1
    32    12    30    1
    33    15    31    1
    34    15    32    1
    35    15    33    1
    36    16    34    1
