REMARK  Name = NuBBE_1934
REMARK  5 active torsions:
REMARK  status: ('A' for Active; 'I' for Inactive)
REMARK    1  A    between atoms: C_1  and  C_2
REMARK    2  A    between atoms: C_2  and  C_4
REMARK    3  A    between atoms: C_2  and  C_19
REMARK    4  A    between atoms: C_11  and  C_12
REMARK    5  A    between atoms: C_15  and  C_16
REMARK                            x       y       z     vdW  Elec       q    Type
REMARK                         _______ _______ _______ _____ _____    ______ ____
ROOT
ATOM      1  C   LIG A   1      -0.612   0.655  -0.998  0.00  0.00    +0.003 C 
ATOM      2  C   LIG A   1       0.431  -0.206  -0.197  0.00  0.00    +0.022 C 
ATOM      3  C   LIG A   1       1.100   0.467   1.070  0.00  0.00    +0.022 C 
ATOM      4  C   LIG A   1       0.864  -0.306   2.387  0.00  0.00    +0.013 C 
ATOM      5  C   LIG A   1       1.077  -1.804   2.247  0.00  0.00    +0.031 C 
ATOM      6  C   LIG A   1       0.180  -2.342   1.182  0.00  0.00    -0.076 C 
ATOM      7  C   LIG A   1      -0.360  -3.727   1.391  0.00  0.00    +0.038 C 
ATOM      8  C   LIG A   1      -0.128  -1.597   0.109  0.00  0.00    -0.024 C 
ATOM      9  C   LIG A   1       0.820   1.944   1.292  0.00  0.00    -0.073 C 
ATOM     10  C   LIG A   1       1.391   2.600   2.525  0.00  0.00    +0.039 C 
ATOM     11  C   LIG A   1       0.149   2.685   0.406  0.00  0.00    -0.027 C 
ATOM     12  C   LIG A   1      -0.366   2.175  -0.886  0.00  0.00    +0.031 C 
ENDROOT
BRANCH   1  14
ATOM     13  C   LIG A   1      -1.794   1.129  -3.254  0.00  0.00    +0.007 C 
ATOM     14  C   LIG A   1      -0.686   0.323  -2.549  0.00  0.00    -0.013 C 
ATOM     15  C   LIG A   1      -0.878  -1.145  -2.931  0.00  0.00    +0.007 C 
ENDBRANCH   1  14
TORSDOF 1
