REMARK  Name = NuBBE_1981
REMARK  6 active torsions:
REMARK  status: ('A' for Active; 'I' for Inactive)
REMARK    1  A    between atoms: S_1  and  S_2
REMARK    2  A    between atoms: S_1  and  C_6
REMARK    3  A    between atoms: S_2  and  S_3
REMARK    4  A    between atoms: S_3  and  S_4
REMARK    5  A    between atoms: S_4  and  C_5
REMARK    6  A    between atoms: C_6  and  C_7
REMARK                            x       y       z     vdW  Elec       q    Type
REMARK                         _______ _______ _______ _____ _____    ______ ____
ROOT
ATOM      1  S   LIG A   1      -0.854  -0.735   1.047  0.00  0.00    -0.077 S 
ENDROOT
BRANCH   1   2
ATOM      2  S   LIG A   1       0.538   0.714   0.633  0.00  0.00    -0.013 S 
BRANCH   2   3
ATOM      3  S   LIG A   1      -0.140   1.684  -1.046  0.00  0.00    -0.013 S 
BRANCH   3   4
ATOM      4  S   LIG A   1      -1.470   3.097  -0.382  0.00  0.00    -0.085 S 
ATOM      5  C   LIG A   1      -0.348   4.257   0.432  0.00  0.00    +0.098 C 
ENDBRANCH   3   4
ENDBRANCH   2   3
ENDBRANCH   1   2
BRANCH   1   6
ATOM      6  C   LIG A   1      -0.658  -1.887  -0.340  0.00  0.00    +0.108 C 
BRANCH   6   7
ATOM      7  C   LIG A   1       0.717  -2.514  -0.391  0.00  0.00    -0.023 C 
ATOM      8  C   LIG A   1       1.034  -3.713   0.088  0.00  0.00    +0.005 C 
ENDBRANCH   6   7
ENDBRANCH   1   6
TORSDOF 5
