REMARK  Name = NuBBE_2464
REMARK  17 active torsions:
REMARK  status: ('A' for Active; 'I' for Inactive)
REMARK    1  A    between atoms: C_1  and  O_2
REMARK    2  A    between atoms: O_2  and  C_3
REMARK    3  A    between atoms: C_4  and  O_5
REMARK    4  A    between atoms: O_5  and  C_6
REMARK    5  A    between atoms: C_9  and  C_11
REMARK    6  A    between atoms: C_14  and  O_15
REMARK    7  A    between atoms: O_15  and  C_16
REMARK    8  A    between atoms: C_17  and  O_18
REMARK    9  A    between atoms: O_18  and  C_19
REMARK   10  A    between atoms: C_21  and  C_23
REMARK   11  A    between atoms: C_23  and  O_24
REMARK   12  A    between atoms: O_24  and  C_25
REMARK   13  A    between atoms: C_25  and  C_26
REMARK   14  A    between atoms: C_28  and  C_30
REMARK   15  A    between atoms: C_30  and  O_31
REMARK   16  A    between atoms: O_31  and  C_32
REMARK   17  A    between atoms: C_32  and  C_33
REMARK                            x       y       z     vdW  Elec       q    Type
REMARK                         _______ _______ _______ _____ _____    ______ ____
ROOT
ATOM      1  C   LIG A   1      -0.617  -1.077  -3.962  0.00  0.00    +0.162 A 
ATOM      2  C   LIG A   1      -0.364  -2.164  -3.116  0.00  0.00    +0.162 A 
ATOM      3  C   LIG A   1       0.216  -1.921  -1.862  0.00  0.00    +0.053 A 
ATOM      4  C   LIG A   1       0.524  -0.614  -1.425  0.00  0.00    -0.033 A 
ATOM      5  C   LIG A   1       1.046  -0.393  -0.011  0.00  0.00    +0.056 C 
ATOM      6  C   LIG A   1       1.613   1.047   0.241  0.00  0.00    +0.045 C 
ATOM      7  C   LIG A   1       0.837   2.165  -0.522  0.00  0.00    +0.038 C 
ATOM      8  C   LIG A   1       0.824   1.843  -2.018  0.00  0.00    +0.042 C 
ATOM      9  C   LIG A   1       0.338   0.450  -2.312  0.00  0.00    -0.040 A 
ATOM     10  C   LIG A   1      -0.225   0.205  -3.567  0.00  0.00    +0.053 A 
ENDROOT
BRANCH   5  11
ATOM     11  C   LIG A   1       0.129  -0.959   1.090  0.00  0.00    -0.036 A 
ATOM     12  C   LIG A   1       0.754  -1.468   2.228  0.00  0.00    +0.008 A 
ATOM     13  C   LIG A   1       0.040  -2.209   3.165  0.00  0.00    +0.050 A 
ATOM     14  C   LIG A   1      -1.340  -2.431   3.051  0.00  0.00    +0.162 A 
ATOM     15  C   LIG A   1      -2.004  -1.922   1.925  0.00  0.00    +0.162 A 
ATOM     16  C   LIG A   1      -1.265  -1.169   0.973  0.00  0.00    +0.053 A 
BRANCH  14  17
ATOM     17  O   LIG A   1      -2.040  -3.091   4.032  0.00  0.00    -0.491 OA
ATOM     18  C   LIG A   1      -1.272  -3.550   5.146  0.00  0.00    +0.277 C 
ENDBRANCH  14  17
BRANCH  15  19
ATOM     19  O   LIG A   1      -3.348  -2.016   1.647  0.00  0.00    -0.491 OA
ATOM     20  C   LIG A   1      -4.020  -3.240   1.945  0.00  0.00    +0.277 C 
ENDBRANCH  15  19
ENDBRANCH   5  11
BRANCH   1  22
ATOM     21  C   LIG A   1      -2.034  -0.252  -5.662  0.00  0.00    +0.277 C 
ATOM     22  O   LIG A   1      -1.169  -1.283  -5.198  0.00  0.00    -0.491 OA
ENDBRANCH   1  22
BRANCH   2  23
ATOM     23  O   LIG A   1      -0.632  -3.491  -3.344  0.00  0.00    -0.491 OA
ATOM     24  C   LIG A   1      -1.252  -3.833  -4.578  0.00  0.00    +0.277 C 
ENDBRANCH   2  23
BRANCH   6  25
ATOM     25  C   LIG A   1       3.122   1.082  -0.176  0.00  0.00    +0.237 C 
BRANCH  25  26
ATOM     26  O   LIG A   1       3.622   2.416   0.033  0.00  0.00    -0.465 OA
BRANCH  26  27
ATOM     27  C   LIG A   1       4.405   2.622   1.112  0.00  0.00    +0.304 C 
ATOM     28  C   LIG A   1       4.373   4.066   1.495  0.00  0.00    +0.136 C 
ATOM     29  O   LIG A   1       4.973   1.739   1.768  0.00  0.00    -0.251 OA
ENDBRANCH  26  27
ENDBRANCH  25  26
ENDBRANCH   6  25
BRANCH   7  30
ATOM     30  C   LIG A   1      -0.586   2.457  -0.010  0.00  0.00    +0.236 C 
BRANCH  30  31
ATOM     31  O   LIG A   1      -0.571   2.826   1.385  0.00  0.00    -0.465 OA
BRANCH  31  32
ATOM     32  C   LIG A   1      -0.443   4.161   1.645  0.00  0.00    +0.304 C 
ATOM     33  C   LIG A   1      -0.433   4.421   3.140  0.00  0.00    +0.136 C 
ATOM     34  O   LIG A   1      -0.334   5.029   0.819  0.00  0.00    -0.251 OA
ENDBRANCH  31  32
ENDBRANCH  30  31
ENDBRANCH   7  30
TORSDOF 11
