@<TRIPOS>MOLECULE
NuBBE_2522
 41 43 0 0 0
SMALL
GASTEIGER

@<TRIPOS>ATOM
      1 O          -1.9963    1.6258   -0.0716 O.3     1  UNL1       -0.4884
      2 C          -2.7139    0.5511    0.5092 C.3     1  UNL1        0.0791
      3 C          -0.6177    1.5972   -0.0467 C.ar    1  UNL1        0.2088
      4 C           0.1584    0.4288   -0.0664 C.ar    1  UNL1        0.1881
      5 C           1.5491    0.5411   -0.1134 C.ar    1  UNL1        0.1128
      6 C           2.1671    1.8078   -0.1854 C.ar    1  UNL1        0.1770
      7 C           1.3932    2.9909   -0.2173 C.ar    1  UNL1        0.2080
      8 C          -0.0081    2.8858   -0.1271 C.ar    1  UNL1        0.2110
      9 O          -0.9425    3.8895   -0.1881 O.3     1  UNL1       -0.4883
     10 C          -0.6061    5.2521   -0.0504 C.3     1  UNL1        0.0791
     11 O           2.0109    4.1392   -0.6536 O.3     1  UNL1       -0.4884
     12 C           2.4075    5.0620    0.3561 C.3     1  UNL1        0.0791
     13 O           3.5388    1.9210   -0.2740 O.3     1  UNL1       -0.5027
     14 C           2.3344   -0.7064   -0.1636 C.ar    1  UNL1        0.1969
     15 O           3.5615   -0.6795   -0.1871 O.2     1  UNL1       -0.2869
     16 C           1.6080   -1.9829   -0.1977 C.ar    1  UNL1        0.0288
     17 C           0.2713   -1.9495   -0.1645 C.ar    1  UNL1        0.1394
     18 O          -0.4736   -0.7923   -0.0991 O.2     1  UNL1       -0.4507
     19 C          -0.5120   -3.1914   -0.1774 C.ar    1  UNL1        0.0176
     20 C          -0.8225   -3.8370    1.0323 C.ar    1  UNL1       -0.0476
     21 C          -1.4778   -5.0709    1.0362 C.ar    1  UNL1       -0.0195
     22 C          -1.8329   -5.6620   -0.1710 C.ar    1  UNL1        0.1169
     23 C          -1.5748   -5.0238   -1.3778 C.ar    1  UNL1       -0.0195
     24 C          -0.9104   -3.7838   -1.3792 C.ar    1  UNL1       -0.0476
     25 O          -2.4342   -6.8856   -0.2135 O.3     1  UNL1       -0.5068
     26 H          -3.7463    0.8812    0.6496 H       1  UNL1        0.0660
     27 H          -2.3120    0.2788    1.4909 H       1  UNL1        0.0660
     28 H          -2.7493   -0.3060   -0.1693 H       1  UNL1        0.0660
     29 H          -1.5406    5.8226   -0.0847 H       1  UNL1        0.0660
     30 H           0.0013    5.6000   -0.8883 H       1  UNL1        0.0660
     31 H          -0.1538    5.4586    0.9235 H       1  UNL1        0.0660
     32 H           3.4968    5.1559    0.3729 H       1  UNL1        0.0660
     33 H           2.0359    4.8202    1.3564 H       1  UNL1        0.0660
     34 H           2.0206    6.0471    0.0655 H       1  UNL1        0.0660
     35 H           3.9312    1.0205   -0.2773 H       1  UNL1        0.2923
     36 H           2.1812   -2.8997   -0.2417 H       1  UNL1        0.0693
     37 H          -0.5391   -3.3821    1.9784 H       1  UNL1        0.0626
     38 H          -1.6951   -5.5543    1.9839 H       1  UNL1        0.0654
     39 H          -1.8699   -5.4939   -2.3126 H       1  UNL1        0.0654
     40 H          -0.7055   -3.3088   -2.3364 H       1  UNL1        0.0626
     41 H          -2.4328   -7.2674    0.6800 H       1  UNL1        0.2921
@<TRIPOS>BOND
     1     1     2    1
     2     1     3    1
     3     3     4   ar
     4     4     5   ar
     5     5     6   ar
     6     6     7   ar
     7     7     8   ar
     8     3     8   ar
     9     8     9    1
    10     9    10    1
    11     7    11    1
    12    11    12    1
    13     6    13    1
    14     5    14   ar
    15    14    15    2
    16    14    16   ar
    17    16    17   ar
    18    17    18   ar
    19     4    18   ar
    20    17    19    1
    21    19    20   ar
    22    20    21   ar
    23    21    22   ar
    24    22    23   ar
    25    23    24   ar
    26    19    24   ar
    27    22    25    1
    28     2    26    1
    29     2    27    1
    30     2    28    1
    31    10    29    1
    32    10    30    1
    33    10    31    1
    34    12    32    1
    35    12    33    1
    36    12    34    1
    37    13    35    1
    38    16    36    1
    39    20    37    1
    40    21    38    1
    41    23    39    1
    42    24    40    1
    43    25    41    1
