@<TRIPOS>MOLECULE
NuBBE_2468
 56 59 0 0 0
SMALL
GASTEIGER

@<TRIPOS>ATOM
      1 C           5.5108    1.1015   -2.3155 C.3     1  LIG1        0.0790
      2 O           5.0478    2.4422   -2.2276 O.3     1  LIG1       -0.4914
      3 C           3.8823    2.6506   -1.5386 C.ar    1  LIG1        0.1626
      4 C           3.1393    1.6543   -0.8952 C.ar    1  LIG1       -0.0106
      5 C           1.9656    1.9628   -0.1812 C.ar    1  LIG1       -0.0149
      6 C           1.2113    0.8422    0.5119 C.3     1  LIG1        0.0891
      7 H           1.9425    0.1070    0.8722 H       1  LIG1        0.0650
      8 C           0.1494    0.1849   -0.3769 C.3     1  LIG1        0.0205
      9 H          -0.1808    0.8532   -1.1796 H       1  LIG1        0.0356
     10 C          -0.9603   -0.1374    0.5884 C.3     1  LIG1        0.0205
     11 H          -1.9456   -0.1417    0.1090 H       1  LIG1        0.0356
     12 C          -0.8453    0.9617    1.6170 C.3     1  LIG1        0.0544
     13 O           0.5379    1.3242    1.6919 O.3     1  LIG1       -0.3712
     14 C          -0.5846   -1.5257    1.1117 C.3     1  LIG1        0.0891
     15 H          -0.0008   -1.4709    2.0393 H       1  LIG1        0.0650
     16 O           0.2972   -2.1194    0.1360 O.3     1  LIG1       -0.3712
     17 C           0.5547   -1.1708   -0.9047 C.3     1  LIG1        0.0544
     18 C          -1.7910   -2.4090    1.3556 C.ar    1  LIG1       -0.0149
     19 C          -2.3056   -3.2528    0.3607 C.ar    1  LIG1       -0.0107
     20 C          -3.4001   -4.0998    0.6002 C.ar    1  LIG1        0.1618
     21 O          -3.7175   -4.8768   -0.4816 O.3     1  LIG1       -0.4914
     22 C          -5.0698   -5.2773   -0.6521 C.3     1  LIG1        0.0790
     23 C          -3.9959   -4.1169    1.8693 C.ar    1  LIG1        0.1615
     24 O          -4.9737   -5.0432    2.1284 O.3     1  LIG1       -0.4915
     25 C          -5.9572   -4.6514    3.0817 C.3     1  LIG1        0.0790
     26 C          -3.5025   -3.2561    2.8606 C.ar    1  LIG1       -0.0160
     27 C          -2.4208   -2.4056    2.6040 C.ar    1  LIG1       -0.0524
     28 C           1.5381    3.2996   -0.1362 C.ar    1  LIG1       -0.0524
     29 C           2.2728    4.3071   -0.7686 C.ar    1  LIG1       -0.0152
     30 C           3.4321    3.9742   -1.4688 C.ar    1  LIG1        0.1730
     31 O           4.3005    4.9827   -1.9404 O.3     1  LIG1       -0.4223
     32 C           3.8128    6.0965   -2.6283 C.2     1  LIG1        0.3093
     33 C           4.8446    7.1848   -2.4800 C.3     1  LIG1        0.0336
     34 O           2.7297    6.2128   -3.1664 O.2     1  LIG1       -0.2507
     35 H           6.4229    1.0995   -2.9187 H       1  LIG1        0.0660
     36 H           4.7775    0.4620   -2.8186 H       1  LIG1        0.0660
     37 H           5.7638    0.7105   -1.3244 H       1  LIG1        0.0660
     38 H           3.4703    0.6205   -0.9082 H       1  LIG1        0.0659
     39 H          -1.2026    0.6767    2.6104 H       1  LIG1        0.0564
     40 H          -1.3940    1.8531    1.2954 H       1  LIG1        0.0564
     41 H          -0.0556   -1.4559   -1.7683 H       1  LIG1        0.0564
     42 H           1.6074   -1.2327   -1.1950 H       1  LIG1        0.0564
     43 H          -1.8393   -3.2773   -0.6227 H       1  LIG1        0.0659
     44 H          -5.3305   -5.1065   -1.7019 H       1  LIG1        0.0660
     45 H          -5.7939   -4.7144   -0.0575 H       1  LIG1        0.0660
     46 H          -5.1556   -6.3503   -0.4563 H       1  LIG1        0.0660
     47 H          -6.7892   -5.3588    3.0125 H       1  LIG1        0.0660
     48 H          -6.3491   -3.6518    2.8632 H       1  LIG1        0.0660
     49 H          -5.5638   -4.7056    4.1016 H       1  LIG1        0.0660
     50 H          -3.9122   -3.2587    3.8657 H       1  LIG1        0.0655
     51 H          -2.0502   -1.7701    3.4058 H       1  LIG1        0.0622
     52 H           0.6448    3.5743    0.4210 H       1  LIG1        0.0622
     53 H           1.9528    5.3414   -0.6811 H       1  LIG1        0.0656
     54 H           5.8404    6.7966   -2.7076 H       1  LIG1        0.0342
     55 H           4.8122    7.5513   -1.4493 H       1  LIG1        0.0342
     56 H           4.6261    8.0088   -3.1620 H       1  LIG1        0.0342
@<TRIPOS>BOND
     1     1     2    1
     2     2     3    1
     3     3     4   ar
     4     4     5   ar
     5     6     8    1
     6     8     9    1
     7     8    10    1
     8    10    11    1
     9    10    12    1
    10    12    13    1
    11     6    13    1
    12    10    14    1
    13    14    15    1
    14    14    16    1
    15    16    17    1
    16     8    17    1
    17    14    18    1
    18    18    19   ar
    19    19    20   ar
    20    20    21    1
    21    21    22    1
    22    20    23   ar
    23    23    24    1
    24    24    25    1
    25    23    26   ar
    26    26    27   ar
    27    18    27   ar
    28     5    28   ar
    29    28    29   ar
    30    29    30   ar
    31     3    30   ar
    32    30    31    1
    33    31    32    1
    34    32    33    1
    35    32    34    2
    36     6     7    1
    37     6     5    1
    38     1    35    1
    39     1    36    1
    40     1    37    1
    41     4    38    1
    42    12    39    1
    43    12    40    1
    44    17    41    1
    45    17    42    1
    46    19    43    1
    47    22    44    1
    48    22    45    1
    49    22    46    1
    50    25    47    1
    51    25    48    1
    52    25    49    1
    53    26    50    1
    54    27    51    1
    55    28    52    1
    56    29    53    1
    57    33    54    1
    58    33    55    1
    59    33    56    1
