@<TRIPOS>MOLECULE
NuBBE_1030
 54 57 0 0 0
SMALL
GASTEIGER

@<TRIPOS>ATOM
      1 O          -0.3580    3.1661   -5.6794 O.3     1  LIG1       -0.5068
      2 C          -0.4005    2.8763   -4.3473 C.ar    1  LIG1        0.1169
      3 C          -1.3014    1.9493   -3.8393 C.ar    1  LIG1       -0.0198
      4 C          -1.3194    1.6939   -2.4661 C.ar    1  LIG1       -0.0515
      5 C          -0.4315    2.3492   -1.5918 C.ar    1  LIG1       -0.0046
      6 C           0.4660    3.2844   -2.1316 C.ar    1  LIG1       -0.0515
      7 C           0.4810    3.5445   -3.5063 C.ar    1  LIG1       -0.0198
      8 C          -0.4756    2.0776   -0.0895 C.3     1  LIG1        0.1515
      9 H           0.2612    2.7274    0.4026 H       1  LIG1        0.0811
     10 C          -0.1569    0.5996    0.2449 C.3     1  LIG1        0.1069
     11 H          -0.8201   -0.0468   -0.3435 H       1  LIG1        0.0641
     12 O           1.2203    0.2924   -0.0642 O.3     1  LIG1       -0.3411
     13 C           1.5671   -1.0936    0.1531 C.3     1  LIG1        0.1883
     14 H           1.5497   -1.2662    1.2344 H       1  LIG1        0.0938
     15 C           3.0132   -1.2783   -0.3421 C.3     1  LIG1        0.1341
     16 H           3.1069   -0.8998   -1.3665 H       1  LIG1        0.0671
     17 O           3.9237   -0.5220    0.4844 O.3     1  LIG1       -0.3841
     18 C           3.4322   -2.7491   -0.2913 C.3     1  LIG1        0.1140
     19 H           4.3968   -2.8583   -0.8009 H       1  LIG1        0.0648
     20 O           3.6535   -3.1504    1.0669 O.3     1  LIG1       -0.3864
     21 C           2.3841   -3.6432   -0.9558 C.3     1  LIG1        0.1095
     22 H           2.6162   -4.7025   -0.7965 H       1  LIG1        0.0646
     23 O           2.4007   -3.4073   -2.3716 O.3     1  LIG1       -0.3866
     24 C           0.9622   -3.3503   -0.4354 C.3     1  LIG1        0.0873
     25 H           0.2535   -3.8310   -1.1212 H       1  LIG1        0.0621
     26 C           0.6798   -3.9176    0.9562 C.3     1  LIG1       -0.0361
     27 O           0.6456   -1.9521   -0.5027 O.3     1  LIG1       -0.3431
     28 C          -0.4169    0.3552    1.7291 C.3     1  LIG1        0.0096
     29 C          -1.7135    0.9301    2.1921 C.ar    1  LIG1        0.0384
     30 C          -2.3598    0.4562    3.3430 C.ar    1  LIG1        0.1270
     31 O          -1.8591   -0.5470    4.1258 O.3     1  LIG1       -0.5063
     32 C          -3.5822    0.9801    3.7542 C.ar    1  LIG1        0.0218
     33 C          -4.1578    2.0075    3.0241 C.ar    1  LIG1        0.1238
     34 O          -5.3557    2.5480    3.3848 O.3     1  LIG1       -0.5065
     35 C          -3.5212    2.5147    1.8915 C.ar    1  LIG1        0.0221
     36 C          -2.3015    1.9748    1.4753 C.ar    1  LIG1        0.1317
     37 O          -1.7821    2.5093    0.3329 O.3     1  LIG1       -0.4811
     38 H          -1.0603    2.6641   -6.1247 H       1  LIG1        0.2921
     39 H          -1.9956    1.4223   -4.4857 H       1  LIG1        0.0654
     40 H          -2.0463    0.9842   -2.0762 H       1  LIG1        0.0623
     41 H           1.1549    3.8272   -1.4890 H       1  LIG1        0.0623
     42 H           1.1738    4.2722   -3.9195 H       1  LIG1        0.0654
     43 H           3.5753    0.3917    0.4748 H       1  LIG1        0.2101
     44 H           4.2170   -2.4442    1.4472 H       1  LIG1        0.2100
     45 H           3.2320   -3.7688   -2.7247 H       1  LIG1        0.2100
     46 H           1.2362   -3.4083    1.7468 H       1  LIG1        0.0255
     47 H           0.9184   -4.9852    1.0003 H       1  LIG1        0.0255
     48 H          -0.3803   -3.7934    1.2031 H       1  LIG1        0.0255
     49 H           0.4004    0.7698    2.3330 H       1  LIG1        0.0342
     50 H          -0.4277   -0.7262    1.8929 H       1  LIG1        0.0342
     51 H          -0.9647   -0.7859    3.8392 H       1  LIG1        0.2921
     52 H          -4.0631    0.5731    4.6376 H       1  LIG1        0.0691
     53 H          -5.6881    2.0641    4.1605 H       1  LIG1        0.2921
     54 H          -3.9822    3.3224    1.3319 H       1  LIG1        0.0691
@<TRIPOS>BOND
     1     1     2    1
     2     2     3   ar
     3     3     4   ar
     4     4     5   ar
     5     5     6   ar
     6     6     7   ar
     7     2     7   ar
     8     5     8    1
     9     8     9    1
    10     8    10    1
    11    10    11    1
    12    10    12    1
    13    13    15    1
    14    15    16    1
    15    15    17    1
    16    15    18    1
    17    18    21    1
    18    21    22    1
    19    21    23    1
    20    21    24    1
    21    24    27    1
    22    13    27    1
    23    10    28    1
    24    28    29    1
    25    29    30   ar
    26    30    31    1
    27    30    32   ar
    28    32    33   ar
    29    33    34    1
    30    33    35   ar
    31    35    36   ar
    32    29    36   ar
    33    36    37    1
    34     8    37    1
    35    13    14    1
    36    13    12    1
    37    18    20    1
    38    18    19    1
    39    24    26    1
    40    24    25    1
    41     1    38    1
    42     3    39    1
    43     4    40    1
    44     6    41    1
    45     7    42    1
    46    17    43    1
    47    20    44    1
    48    23    45    1
    49    26    46    1
    50    26    47    1
    51    26    48    1
    52    28    49    1
    53    28    50    1
    54    31    51    1
    55    32    52    1
    56    34    53    1
    57    35    54    1
