REMARK  Name = NuBBE_2139
REMARK  4 active torsions:
REMARK  status: ('A' for Active; 'I' for Inactive)
REMARK    1  A    between atoms: C_1  and  C_2
REMARK    2  A    between atoms: C_2  and  C_3
REMARK    3  A    between atoms: C_3  and  C_4
REMARK    4  A    between atoms: C_4  and  C_5
REMARK                            x       y       z     vdW  Elec       q    Type
REMARK                         _______ _______ _______ _____ _____    ______ ____
ROOT
ATOM      1  C   LIG A   1       0.927  -0.042   0.298  0.00  0.00    -0.073 C 
ATOM      2  C   LIG A   1       1.214   1.204   0.719  0.00  0.00    -0.028 C 
ATOM      3  C   LIG A   1       1.599   2.329  -0.198  0.00  0.00    +0.027 C 
ATOM      4  C   LIG A   1       1.340   2.021  -1.672  0.00  0.00    +0.004 C 
ATOM      5  C   LIG A   1       1.765   0.599  -2.017  0.00  0.00    +0.005 C 
ATOM      6  C   LIG A   1       1.012  -0.423  -1.163  0.00  0.00    +0.030 C 
ENDROOT
BRANCH   1   7
ATOM      7  C   LIG A   1       0.517  -1.133   1.263  0.00  0.00    +0.030 C 
BRANCH   7   8
ATOM      8  C   LIG A   1      -0.875  -1.721   0.998  0.00  0.00    +0.004 C 
BRANCH   8  10
ATOM      9  C   LIG A   1      -3.358  -1.308   0.831  0.00  0.00    +0.004 C 
ATOM     10  C   LIG A   1      -1.996  -0.683   1.089  0.00  0.00    -0.003 C 
ENDBRANCH   8  10
ENDBRANCH   7   8
ENDBRANCH   1   7
TORSDOF 3
