@<TRIPOS>MOLECULE
NuBBE_2151
 64 67 0 0 0
SMALL
GASTEIGER

@<TRIPOS>ATOM
      1 C          -5.4539   -0.8203    2.9121 C.3     1  LIG1        0.0790
      2 O          -4.1459   -1.0591    2.3956 O.3     1  LIG1       -0.4913
      3 C          -3.6684   -0.1005    1.5416 C.ar    1  LIG1        0.1656
      4 C          -4.2969    1.0638    1.1793 C.ar    1  LIG1        0.2075
      5 O          -5.5253    1.4824    1.5869 O.3     1  LIG1       -0.4489
      6 C          -5.5893    2.7826    1.0050 C.3     1  LIG1        0.2334
      7 O          -4.4959    3.0478    0.1012 O.3     1  LIG1       -0.4525
      8 C          -3.7043    1.9541    0.3142 C.ar    1  LIG1        0.1702
      9 C          -2.4486    1.7290   -0.2470 C.ar    1  LIG1       -0.0124
     10 C          -1.7476    0.5490    0.0866 C.ar    1  LIG1       -0.0339
     11 C          -0.3034    0.3030   -0.4585 C.3     1  LIG1        0.0227
     12 H          -0.2864    0.7497   -1.4614 H       1  LIG1        0.0382
     13 C           0.7106    1.0235    0.4798 C.3     1  LIG1       -0.0257
     14 H           0.1538    1.5135    1.2885 H       1  LIG1        0.0311
     15 C           1.4577    2.1632   -0.2366 C.3     1  LIG1       -0.0612
     16 C           1.6010   -0.1008    1.1240 C.3     1  LIG1        0.0086
     17 C           1.8244    0.1565    2.6411 C.3     1  LIG1       -0.0265
     18 C           2.5835    1.4216    2.9606 C.2     1  LIG1       -0.0905
     19 C           1.9995    2.5973    3.2285 C.2     1  LIG1       -0.1026
     20 C           0.8673   -1.4336    0.8490 C.3     1  LIG1        0.0945
     21 O          -0.0251   -1.7894    1.8842 O.3     1  LIG1       -0.3882
     22 H           1.5582   -2.2863    0.8116 H       1  LIG1        0.0629
     23 C           2.9437   -0.2827    0.4278 C.3     1  LIG1       -0.0144
     24 C           2.8693   -0.6923   -1.0505 C.3     1  LIG1        0.0986
     25 H           3.0097    0.1850   -1.6892 H       1  LIG1        0.0634
     26 O           4.0112   -1.5406   -1.3163 O.3     1  LIG1       -0.3760
     27 C           5.2603   -0.8739   -1.1243 C.3     1  LIG1        0.0370
     28 C           1.5475   -1.3936   -1.5079 C.3     1  LIG1        0.1607
     29 H           1.7095   -2.4864   -1.4995 H       1  LIG1        0.0791
     30 O           1.3077   -0.9776   -2.8829 O.3     1  LIG1       -0.4559
     31 C           1.7488   -1.8373   -3.8484 C.2     1  LIG1        0.3044
     32 C           1.4924   -1.2645   -5.2237 C.3     1  LIG1        0.0332
     33 O           2.2144   -2.9474   -3.6779 O.2     1  LIG1       -0.2512
     34 C           0.2687   -1.1688   -0.5683 C.3     1  LIG1        0.1413
     35 O          -0.7558   -2.1398   -0.8608 O.3     1  LIG1       -0.3696
     36 C          -1.3195   -2.0765   -2.1692 C.3     1  LIG1        0.0375
     37 C          -2.4019   -0.3353    0.9820 C.ar    1  LIG1       -0.0125
     38 H          -5.7526   -1.6601    3.5439 H       1  LIG1        0.0660
     39 H          -6.1855   -0.7582    2.0981 H       1  LIG1        0.0660
     40 H          -5.4656    0.0775    3.5416 H       1  LIG1        0.0660
     41 H          -5.5742    3.5127    1.8230 H       1  LIG1        0.1166
     42 H          -6.5429    2.8695    0.4731 H       1  LIG1        0.1166
     43 H          -2.0344    2.4695   -0.9232 H       1  LIG1        0.0658
     44 H           1.9016    1.8523   -1.1840 H       1  LIG1        0.0233
     45 H           2.2583    2.5851    0.3787 H       1  LIG1        0.0233
     46 H           0.7700    2.9813   -0.4734 H       1  LIG1        0.0233
     47 H           0.8608    0.1786    3.1650 H       1  LIG1        0.0314
     48 H           2.3796   -0.6843    3.0787 H       1  LIG1        0.0314
     49 H           3.6694    1.3575    2.9792 H       1  LIG1        0.0566
     50 H           0.9192    2.7113    3.2104 H       1  LIG1        0.0532
     51 H           2.5905    3.4823    3.4400 H       1  LIG1        0.0532
     52 H          -0.4564   -2.6170    1.5925 H       1  LIG1        0.2099
     53 H           3.5063   -1.0477    0.9804 H       1  LIG1        0.0298
     54 H           3.5498    0.6290    0.5027 H       1  LIG1        0.0298
     55 H           6.0735   -1.5924   -1.2471 H       1  LIG1        0.0524
     56 H           5.3571   -0.4597   -0.1148 H       1  LIG1        0.0524
     57 H           5.3663   -0.0707   -1.8562 H       1  LIG1        0.0524
     58 H           1.2763   -0.2020   -5.1750 H       1  LIG1        0.0342
     59 H           0.6071   -1.7747   -5.6673 H       1  LIG1        0.0342
     60 H           2.3502   -1.4248   -5.8585 H       1  LIG1        0.0342
     61 H          -1.6312   -1.0655   -2.4499 H       1  LIG1        0.0524
     62 H          -2.1975   -2.7278   -2.2036 H       1  LIG1        0.0524
     63 H          -0.6184   -2.4725   -2.9044 H       1  LIG1        0.0524
     64 H          -1.9484   -1.2648    1.2730 H       1  LIG1        0.0658
@<TRIPOS>BOND
     1     1     2    1
     2     2     3    1
     3     3     4   ar
     4     4     5    1
     5     5     6    1
     6     6     7    1
     7     4     8   ar
     8     7     8    1
     9     8     9   ar
    10     9    10   ar
    11    11    13    1
    12    13    16    1
    13    17    18    1
    14    18    19    2
    15    16    20    1
    16    16    23    1
    17    23    24    1
    18    26    27    1
    19    24    28    1
    20    30    31    1
    21    31    32    1
    22    31    33    2
    23    28    34    1
    24    20    34    1
    25    11    34    1
    26    35    36    1
    27    10    37   ar
    28     3    37   ar
    29    10    11    1
    30    11    12    1
    31    13    14    1
    32    13    15    1
    33    16    17    1
    34    20    21    1
    35    20    22    1
    36    28    29    1
    37    28    30    1
    38    34    35    1
    39    24    26    1
    40    24    25    1
    41     1    38    1
    42     1    39    1
    43     1    40    1
    44     6    41    1
    45     6    42    1
    46     9    43    1
    47    15    44    1
    48    15    45    1
    49    15    46    1
    50    17    47    1
    51    17    48    1
    52    18    49    1
    53    19    50    1
    54    19    51    1
    55    21    52    1
    56    23    53    1
    57    23    54    1
    58    27    55    1
    59    27    56    1
    60    27    57    1
    61    32    58    1
    62    32    59    1
    63    32    60    1
    64    36    61    1
    65    36    62    1
    66    36    63    1
    67    37    64    1
