@<TRIPOS>MOLECULE
NuBBE_1013
 24 25 0 0 0
SMALL
GASTEIGER

@<TRIPOS>ATOM
      1 C          -3.9668   -0.1344   -0.0065 C.3     1  LIG1       -0.0062
      2 C          -2.4820   -0.3231   -0.0028 C.ar    1  LIG1        0.1062
      3 C          -1.9174   -1.5344   -0.0015 C.ar    1  LIG1        0.0236
      4 C          -0.4515   -1.6652    0.0053 C.ar    1  LIG1        0.1930
      5 C           0.3408   -0.4076    0.0020 C.ar    1  LIG1        0.0671
      6 C           1.7537   -0.3609    0.0007 C.ar    1  LIG1       -0.0327
      7 C           2.3886    0.9005    0.0017 C.ar    1  LIG1       -0.0164
      8 C           1.6434    2.0741    0.0020 C.ar    1  LIG1        0.1206
      9 C           0.2597    2.0295    0.0011 C.ar    1  LIG1        0.0229
     10 C          -0.3894    0.7931    0.0011 C.ar    1  LIG1        0.1424
     11 O          -1.7641    0.8557    0.0004 O.2     1  LIG1       -0.4596
     12 O           2.2437    3.2971    0.0031 O.3     1  LIG1       -0.5066
     13 C           2.6749   -1.5514   -0.0003 C.3     1  LIG1       -0.0388
     14 O           0.0289   -2.7893    0.0147 O.2     1  LIG1       -0.2870
     15 H          -4.5014   -1.0903   -0.0082 H       1  LIG1        0.0308
     16 H          -4.2762    0.4242   -0.8955 H       1  LIG1        0.0308
     17 H          -4.2804    0.4232    0.8816 H       1  LIG1        0.0308
     18 H          -2.4867   -2.4552   -0.0033 H       1  LIG1        0.0689
     19 H           3.4757    0.9466    0.0020 H       1  LIG1        0.0657
     20 H          -0.3133    2.9524    0.0009 H       1  LIG1        0.0691
     21 H           3.2079    3.1766    0.0052 H       1  LIG1        0.2921
     22 H           2.1855   -2.5211   -0.0136 H       1  LIG1        0.0278
     23 H           3.3060   -1.5267    0.8950 H       1  LIG1        0.0278
     24 H           3.3203   -1.5135   -0.8851 H       1  LIG1        0.0278
@<TRIPOS>BOND
     1     1     2    1
     2     2     3   ar
     3     3     4   ar
     4     4     5   ar
     5     5     6   ar
     6     6     7   ar
     7     7     8   ar
     8     8     9   ar
     9     9    10   ar
    10     5    10   ar
    11    10    11   ar
    12     2    11   ar
    13     8    12    1
    14     6    13    1
    15     4    14    2
    16     1    15    1
    17     1    16    1
    18     1    17    1
    19     3    18    1
    20     7    19    1
    21     9    20    1
    22    12    21    1
    23    13    22    1
    24    13    23    1
    25    13    24    1
