REMARK  Name = NuBBE_1439
REMARK  9 active torsions:
REMARK  status: ('A' for Active; 'I' for Inactive)
REMARK    1  A    between atoms: O_1  and  C_2
REMARK    2  A    between atoms: C_14  and  O_15
REMARK    3  A    between atoms: O_15  and  C_16
REMARK    4  A    between atoms: C_17  and  O_18
REMARK    5  A    between atoms: C_17  and  C_20
REMARK    6  A    between atoms: O_18  and  C_19
REMARK    7  A    between atoms: C_20  and  C_21
REMARK    8  A    between atoms: C_22  and  C_23
REMARK    9  A    between atoms: C_22  and  C_24
REMARK                            x       y       z     vdW  Elec       q    Type
REMARK                         _______ _______ _______ _____ _____    ______ ____
ROOT
ATOM      1  C   LIG A   1      -0.683   1.832   0.529  0.00  0.00    +0.153 C 
ATOM      2  C   LIG A   1       0.047   2.673  -0.524  0.00  0.00    +0.039 C 
ATOM      3  C   LIG A   1       1.444   2.185  -0.869  0.00  0.00    +0.043 C 
ATOM      4  C   LIG A   1       1.419   0.725  -1.241  0.00  0.00    +0.019 A 
ATOM      5  C   LIG A   1       0.564  -0.145  -0.543  0.00  0.00    +0.086 A 
ATOM      6  N   LIG A   1       0.474  -1.470  -0.799  0.00  0.00    -0.214 NA
ATOM      7  C   LIG A   1       1.313  -1.919  -1.742  0.00  0.00    +0.231 A 
ATOM      8  O   LIG A   1       1.381  -3.237  -2.072  0.00  0.00    -0.445 OA
ATOM      9  C   LIG A   1       2.365  -3.370  -2.992  0.00  0.00    +0.198 A 
ATOM     10  C   LIG A   1       2.933  -2.148  -3.267  0.00  0.00    +0.055 A 
ATOM     11  C   LIG A   1       2.245  -1.184  -2.474  0.00  0.00    +0.082 A 
ATOM     12  C   LIG A   1       2.286   0.203  -2.226  0.00  0.00    +0.137 A 
ATOM     13  C   LIG A   1      -0.156   0.362   0.725  0.00  0.00    +0.140 C 
ENDROOT
BRANCH   1  14
ATOM     14  O   LIG A   1      -2.075   1.889   0.173  0.00  0.00    -0.389 OA
ATOM     15  H   LIG A   1      -2.390   2.785   0.384  0.00  0.00    +0.210 HD
ENDBRANCH   1  14
BRANCH  12  16
ATOM     16  O   LIG A   1       3.203   1.096  -2.760  0.00  0.00    -0.494 OA
ATOM     17  C   LIG A   1       3.572   0.873  -4.114  0.00  0.00    +0.277 C 
ENDBRANCH  12  16
BRANCH  13  18
ATOM     18  O   LIG A   1       0.846   0.457   1.791  0.00  0.00    -0.368 OA
ATOM     19  C   LIG A   1       1.416  -0.772   2.237  0.00  0.00    +0.195 C 
ENDBRANCH  13  18
BRANCH  13  20
ATOM     20  C   LIG A   1      -1.333  -0.588   1.145  0.00  0.00    +0.071 C 
BRANCH  20  21
ATOM     21  C   LIG A   1      -2.031  -0.211   2.437  0.00  0.00    -0.025 C 
ATOM     22  C   LIG A   1      -3.332  -0.414   2.751  0.00  0.00    -0.080 C 
ATOM     23  C   LIG A   1      -4.335  -1.090   1.860  0.00  0.00    +0.038 C 
ATOM     24  C   LIG A   1      -3.877   0.029   4.081  0.00  0.00    +0.038 C 
ENDBRANCH  20  21
ENDBRANCH  13  20
TORSDOF 5
