@<TRIPOS>MOLECULE
NuBBE_949
 21 21 0 0 0
SMALL
GASTEIGER

@<TRIPOS>ATOM
      1 O           0.0094    2.2354    3.5829 O.3     1  LIG1       -0.4806
      2 C          -0.7484    1.8714    2.5307 C.2     1  LIG1        0.3050
      3 C          -0.0074    0.9783    1.5749 C.3     1  LIG1        0.0487
      4 C          -0.9101    0.5605    0.4162 C.3     1  LIG1       -0.0176
      5 C          -0.2008   -0.3104   -0.5916 C.ar    1  LIG1       -0.0468
      6 C           0.4837    0.2617   -1.6726 C.ar    1  LIG1       -0.0586
      7 C           1.1185   -0.5480   -2.6170 C.ar    1  LIG1       -0.0615
      8 C           1.0799   -1.9350   -2.4872 C.ar    1  LIG1       -0.0617
      9 C           0.4111   -2.5136   -1.4104 C.ar    1  LIG1       -0.0615
     10 C          -0.2232   -1.7058   -0.4646 C.ar    1  LIG1       -0.0586
     11 O          -1.8960    2.2747    2.4307 O.2     1  LIG1       -0.2510
     12 H          -0.5771    2.8201    4.1089 H       1  LIG1        0.2951
     13 H           0.3443    0.0960    2.1219 H       1  LIG1        0.0381
     14 H           0.8622    1.5290    1.1990 H       1  LIG1        0.0381
     15 H          -1.3071    1.4481   -0.0937 H       1  LIG1        0.0318
     16 H          -1.7914    0.0264    0.7958 H       1  LIG1        0.0318
     17 H           0.5163    1.3421   -1.7944 H       1  LIG1        0.0620
     18 H           1.6379   -0.0966   -3.4584 H       1  LIG1        0.0618
     19 H           1.5681   -2.5648   -3.2263 H       1  LIG1        0.0618
     20 H           0.3774   -3.5953   -1.3102 H       1  LIG1        0.0618
     21 H          -0.7472   -2.1741    0.3655 H       1  LIG1        0.0620
@<TRIPOS>BOND
     1     1     2    1
     2     2     3    1
     3     3     4    1
     4     4     5    1
     5     5     6   ar
     6     6     7   ar
     7     7     8   ar
     8     8     9   ar
     9     9    10   ar
    10     5    10   ar
    11     2    11    2
    12     1    12    1
    13     3    13    1
    14     3    14    1
    15     4    15    1
    16     4    16    1
    17     6    17    1
    18     7    18    1
    19     8    19    1
    20     9    20    1
    21    10    21    1
