@<TRIPOS>MOLECULE
NuBBE_2208
 35 35 0 0 0
SMALL
GASTEIGER

@<TRIPOS>ATOM
      1 C          -0.8403   -0.4527    0.5319 C.2     1  LIG1        0.1694
      2 O          -1.5008    0.4382    1.0565 O.2     1  LIG1       -0.2918
      3 C          -1.4317   -1.8255    0.2030 C.3     1  LIG1        0.0389
      4 C          -2.9478   -1.9163    0.5004 C.3     1  LIG1        0.0675
      5 C          -3.7655   -0.9299   -0.3386 C.3     1  LIG1       -0.0359
      6 C          -3.4773   -3.3359    0.2415 C.3     1  LIG1       -0.0359
      7 O          -3.1810   -1.6500    1.8877 O.3     1  LIG1       -0.3887
      8 C           0.5731   -0.1371    0.1729 C.ar    1  LIG1        0.0592
      9 C           0.8390    1.1881   -0.2230 C.ar    1  LIG1       -0.0421
     10 C           2.1380    1.6086   -0.5496 C.ar    1  LIG1       -0.0185
     11 C           2.3882    3.0434   -0.9623 C.3     1  LIG1        0.0774
     12 C           2.7068    3.9360    0.2314 C.3     1  LIG1       -0.0348
     13 O           3.4738    3.0949   -1.8865 O.3     1  LIG1       -0.3875
     14 C           3.1788    0.6765   -0.4538 C.ar    1  LIG1       -0.0526
     15 C           2.9298   -0.6382   -0.0490 C.ar    1  LIG1       -0.0191
     16 C           1.6301   -1.0434    0.2651 C.ar    1  LIG1        0.1273
     17 O           1.4256   -2.3216    0.6975 O.3     1  LIG1       -0.5061
     18 H          -0.9208   -2.5736    0.8147 H       1  LIG1        0.0373
     19 H          -1.2507   -2.0337   -0.8575 H       1  LIG1        0.0373
     20 H          -3.6015   -1.0872   -1.4091 H       1  LIG1        0.0257
     21 H          -3.5228    0.1095   -0.1042 H       1  LIG1        0.0257
     22 H          -4.8351   -1.0325   -0.1257 H       1  LIG1        0.0257
     23 H          -3.4003   -3.6140   -0.8146 H       1  LIG1        0.0257
     24 H          -4.5318   -3.4141    0.5378 H       1  LIG1        0.0257
     25 H          -2.9423   -4.0831    0.8387 H       1  LIG1        0.0257
     26 H          -2.8624   -0.7373    2.0506 H       1  LIG1        0.2101
     27 H           0.0174    1.9023   -0.2740 H       1  LIG1        0.0629
     28 H           1.5062    3.4271   -1.4887 H       1  LIG1        0.0641
     29 H           3.6033    3.5902    0.7586 H       1  LIG1        0.0258
     30 H           1.8778    3.9670    0.9456 H       1  LIG1        0.0258
     31 H           2.9154    4.9591   -0.1016 H       1  LIG1        0.0258
     32 H           3.5643    4.0208   -2.1677 H       1  LIG1        0.2102
     33 H           4.1973    0.9752   -0.6990 H       1  LIG1        0.0622
     34 H           3.7679   -1.3259    0.0213 H       1  LIG1        0.0654
     35 H           2.2795   -2.7845    0.7495 H       1  LIG1        0.2922
@<TRIPOS>BOND
     1     1     2    2
     2     1     3    1
     3     3     4    1
     4     4     5    1
     5     4     6    1
     6     4     7    1
     7     1     8    1
     8     8     9   ar
     9     9    10   ar
    10    10    11    1
    11    11    12    1
    12    11    13    1
    13    10    14   ar
    14    14    15   ar
    15    15    16   ar
    16     8    16   ar
    17    16    17    1
    18     3    18    1
    19     3    19    1
    20     5    20    1
    21     5    21    1
    22     5    22    1
    23     6    23    1
    24     6    24    1
    25     6    25    1
    26     7    26    1
    27     9    27    1
    28    11    28    1
    29    12    29    1
    30    12    30    1
    31    12    31    1
    32    13    32    1
    33    14    33    1
    34    15    34    1
    35    17    35    1
