REMARK  Name = NuBBE_1251
REMARK  11 active torsions:
REMARK  status: ('A' for Active; 'I' for Inactive)
REMARK    1  A    between atoms: C_5  and  O_6
REMARK    2  A    between atoms: C_7  and  O_40
REMARK    3  A    between atoms: C_14  and  O_15
REMARK    4  A    between atoms: C_16  and  O_17
REMARK    5  A    between atoms: O_17  and  C_18
REMARK    6  A    between atoms: C_21  and  C_35
REMARK    7  A    between atoms: C_23  and  O_34
REMARK    8  A    between atoms: C_25  and  O_30
REMARK    9  A    between atoms: C_27  and  O_29
REMARK   10  A    between atoms: O_30  and  C_31
REMARK   11  A    between atoms: C_31  and  C_32
REMARK                            x       y       z     vdW  Elec       q    Type
REMARK                         _______ _______ _______ _____ _____    ______ ____
ROOT
ATOM      1  O   LIG A   1      -1.980  -6.360  -1.656  0.00  0.00    -0.244 OA
ATOM      2  C   LIG A   1      -1.754  -5.278  -1.131  0.00  0.00    +0.345 A 
ATOM      3  C   LIG A   1      -2.466  -4.865   0.110  0.00  0.00    +0.074 A 
ATOM      4  C   LIG A   1      -3.374  -5.730   0.748  0.00  0.00    +0.065 A 
ATOM      5  C   LIG A   1      -4.007  -5.311   1.919  0.00  0.00    +0.163 A 
ATOM      6  C   LIG A   1      -3.755  -4.050   2.453  0.00  0.00    +0.202 A 
ATOM      7  C   LIG A   1      -2.883  -3.197   1.797  0.00  0.00    +0.185 A 
ATOM      8  O   LIG A   1      -2.686  -1.903   2.321  0.00  0.00    -0.418 OA
ATOM      9  C   LIG A   1      -2.230  -3.596   0.634  0.00  0.00    +0.047 A 
ATOM     10  C   LIG A   1      -1.336  -2.685  -0.014  0.00  0.00    +0.047 A 
ATOM     11  C   LIG A   1      -0.611  -3.074  -1.132  0.00  0.00    +0.185 A 
ATOM     12  O   LIG A   1      -0.808  -4.379  -1.655  0.00  0.00    -0.418 OA
ATOM     13  C   LIG A   1       0.296  -2.197  -1.752  0.00  0.00    +0.203 A 
ATOM     14  C   LIG A   1       0.442  -0.884  -1.267  0.00  0.00    +0.170 A 
ATOM     15  C   LIG A   1      -0.346  -0.498  -0.178  0.00  0.00    +0.065 A 
ATOM     16  C   LIG A   1      -1.193  -1.395   0.466  0.00  0.00    +0.074 A 
ATOM     17  C   LIG A   1      -1.909  -0.948   1.683  0.00  0.00    +0.345 A 
ATOM     18  O   LIG A   1      -1.784   0.193   2.111  0.00  0.00    -0.244 OA
ENDROOT
BRANCH   5  19
ATOM     19  O   LIG A   1      -4.899  -6.102   2.589  0.00  0.00    -0.503 OA
ATOM     20  H   LIG A   1      -5.033  -6.926   2.088  0.00  0.00    +0.292 HD
ENDBRANCH   5  19
BRANCH  13  21
ATOM     21  O   LIG A   1       1.029  -2.621  -2.826  0.00  0.00    -0.501 OA
ATOM     22  H   LIG A   1       0.754  -3.529  -3.046  0.00  0.00    +0.292 HD
ENDBRANCH  13  21
BRANCH   6  23
ATOM     23  O   LIG A   1      -4.370  -3.655   3.605  0.00  0.00    -0.501 OA
ATOM     24  H   LIG A   1      -4.920  -4.413   3.883  0.00  0.00    +0.292 HD
ENDBRANCH   6  23
BRANCH  14  25
ATOM     25  O   LIG A   1       1.345  -0.030  -1.867  0.00  0.00    -0.457 OA
BRANCH  25  26
ATOM     26  C   LIG A   1       1.476   1.290  -1.274  0.00  0.00    +0.341 C 
ATOM     27  O   LIG A   1       0.265   2.032  -1.482  0.00  0.00    -0.334 OA
ATOM     28  C   LIG A   1       0.241   3.363  -0.965  0.00  0.00    +0.151 C 
ATOM     29  C   LIG A   1       1.419   4.194  -1.512  0.00  0.00    +0.186 C 
ATOM     30  C   LIG A   1       2.765   3.478  -1.318  0.00  0.00    +0.242 C 
ATOM     31  C   LIG A   1       2.693   2.038  -1.870  0.00  0.00    +0.226 C 
ATOM     32  C   LIG A   1       0.095   3.392   0.558  0.00  0.00    +0.040 C 
BRANCH  31  33
ATOM     33  O   LIG A   1       3.929   1.364  -1.576  0.00  0.00    -0.382 OA
ATOM     34  H   LIG A   1       4.084   1.442  -0.618  0.00  0.00    +0.210 HD
ENDBRANCH  31  33
BRANCH  29  35
ATOM     35  O   LIG A   1       1.240   4.413  -2.917  0.00  0.00    -0.386 OA
ATOM     36  H   LIG A   1       0.332   4.728  -3.068  0.00  0.00    +0.210 HD
ENDBRANCH  29  35
BRANCH  30  37
ATOM     37  O   LIG A   1       3.075   3.425   0.097  0.00  0.00    -0.456 OA
BRANCH  37  38
ATOM     38  C   LIG A   1       3.742   4.502   0.611  0.00  0.00    +0.304 C 
ATOM     39  C   LIG A   1       3.545   4.546   2.100  0.00  0.00    +0.136 C 
ATOM     40  O   LIG A   1       4.298   5.366  -0.033  0.00  0.00    -0.251 OA
ENDBRANCH  37  38
ENDBRANCH  30  37
ENDBRANCH  25  26
ENDBRANCH  14  25
TORSDOF 9
