@<TRIPOS>MOLECULE
NuBBE_1969
 58 62 0 0 0
SMALL
GASTEIGER

@<TRIPOS>ATOM
      1 O          -3.4292   -1.8472    0.0301 O.3     1  LIG1       -0.3835
      2 C          -2.0287   -1.6388    0.0058 C.3     1  LIG1        0.0987
      3 C          -1.5343   -0.9237   -1.3132 C.3     1  LIG1        0.0250
      4 C          -0.0133   -0.5108   -1.1416 C.3     1  LIG1        0.0074
      5 C           0.5064   -1.0825    0.2088 C.3     1  LIG1        0.0498
      6 C          -0.3416   -0.5581    1.3586 C.2     1  LIG1       -0.0378
      7 C          -1.6554   -0.7989    1.2191 C.2     1  LIG1       -0.0480
      8 C           0.2325    0.0743    2.5233 C.2     1  LIG1       -0.0575
      9 C           1.4290    0.6820    2.5485 C.2     1  LIG1       -0.0543
     10 C           2.0082    1.3276    3.7344 C.ar    1  LIG1       -0.0248
     11 C           2.7887    2.4800    3.5589 C.ar    1  LIG1       -0.0511
     12 C           3.3936    3.1058    4.6524 C.ar    1  LIG1       -0.0196
     13 C           3.2243    2.5697    5.9239 C.ar    1  LIG1        0.1169
     14 C           2.4644    1.4232    6.1170 C.ar    1  LIG1       -0.0196
     15 C           1.8627    0.7978    5.0229 C.ar    1  LIG1       -0.0511
     16 O           3.8012    3.1403    7.0190 O.3     1  LIG1       -0.5068
     17 C           0.2082   -2.5945    0.1779 C.2     1  LIG1        0.1443
     18 O           1.0907   -3.4443    0.0601 O.2     1  LIG1       -0.2966
     19 C          -1.2728   -2.9627    0.2123 C.3     1  LIG1        0.0395
     20 C           0.2819    0.9812   -1.3230 C.ar    1  LIG1       -0.0424
     21 C          -0.6502    1.9891   -1.0218 C.ar    1  LIG1       -0.0548
     22 C          -0.3420    3.3404   -1.1964 C.ar    1  LIG1       -0.0199
     23 C           0.9100    3.7015   -1.6698 C.ar    1  LIG1        0.1169
     24 C           1.8493    2.7313   -1.9887 C.ar    1  LIG1       -0.0199
     25 C           1.5395    1.3784   -1.8129 C.ar    1  LIG1       -0.0548
     26 O           1.2527    5.0108   -1.8278 O.3     1  LIG1       -0.5068
     27 C          -1.8064   -1.7277   -2.5910 C.ar    1  LIG1       -0.0337
     28 C          -0.8978   -2.6676   -3.1095 C.ar    1  LIG1       -0.0164
     29 C          -1.1874   -3.3665   -4.2792 C.ar    1  LIG1        0.1206
     30 O          -0.3018   -4.2669   -4.7948 O.3     1  LIG1       -0.5066
     31 C          -2.3825   -3.1705   -4.9528 C.ar    1  LIG1        0.0213
     32 C          -3.2909   -2.2511   -4.4457 C.ar    1  LIG1        0.1206
     33 C          -3.0139   -1.5310   -3.2842 C.ar    1  LIG1       -0.0164
     34 O          -4.4841   -2.0226   -5.0665 O.3     1  LIG1       -0.5066
     35 H          -3.8636   -1.0255   -0.2496 H       1  LIG1        0.2106
     36 H          -2.1520   -0.0282   -1.4325 H       1  LIG1        0.0386
     37 H           0.5816   -0.9935   -1.9263 H       1  LIG1        0.0366
     38 H           1.5837   -0.9435    0.3437 H       1  LIG1        0.0432
     39 H          -2.3993   -0.5246    1.9612 H       1  LIG1        0.0603
     40 H          -0.3770    0.0520    3.4266 H       1  LIG1        0.0621
     41 H           2.0304    0.7699    1.6472 H       1  LIG1        0.0624
     42 H           2.9270    2.9037    2.5659 H       1  LIG1        0.0625
     43 H           3.9882    3.9988    4.4899 H       1  LIG1        0.0654
     44 H           2.3477    1.0093    7.1144 H       1  LIG1        0.0654
     45 H           1.2943   -0.1133    5.1904 H       1  LIG1        0.0625
     46 H           4.3241    3.9058    6.7298 H       1  LIG1        0.2921
     47 H          -1.5154   -3.4154    1.1848 H       1  LIG1        0.0373
     48 H          -1.5160   -3.6972   -0.5572 H       1  LIG1        0.0373
     49 H          -1.6406    1.7591   -0.6428 H       1  LIG1        0.0622
     50 H          -1.0919    4.0868   -0.9548 H       1  LIG1        0.0654
     51 H           2.8208    3.0270   -2.3751 H       1  LIG1        0.0654
     52 H           2.2933    0.6376   -2.0748 H       1  LIG1        0.0622
     53 H           0.5054    5.5606   -1.5384 H       1  LIG1        0.2921
     54 H           0.0431   -2.8748   -2.6103 H       1  LIG1        0.0657
     55 H           0.4835   -4.2989   -4.2220 H       1  LIG1        0.2921
     56 H          -2.5837   -3.7372   -5.8546 H       1  LIG1        0.0691
     57 H          -3.7535   -0.8166   -2.9303 H       1  LIG1        0.0657
     58 H          -4.5412   -2.6099   -5.8393 H       1  LIG1        0.2921
@<TRIPOS>BOND
     1     1     2    1
     2     2     3    1
     3     3     4    1
     4     4     5    1
     5     5     6    1
     6     6     7    2
     7     2     7    1
     8     6     8    1
     9     8     9    2
    10     9    10    1
    11    10    11   ar
    12    11    12   ar
    13    12    13   ar
    14    13    14   ar
    15    14    15   ar
    16    10    15   ar
    17    13    16    1
    18     5    17    1
    19    17    18    2
    20    17    19    1
    21     2    19    1
    22     4    20    1
    23    20    21   ar
    24    21    22   ar
    25    22    23   ar
    26    23    24   ar
    27    24    25   ar
    28    20    25   ar
    29    23    26    1
    30     3    27    1
    31    27    28   ar
    32    28    29   ar
    33    29    30    1
    34    29    31   ar
    35    31    32   ar
    36    32    33   ar
    37    27    33   ar
    38    32    34    1
    39     1    35    1
    40     3    36    1
    41     4    37    1
    42     5    38    1
    43     7    39    1
    44     8    40    1
    45     9    41    1
    46    11    42    1
    47    12    43    1
    48    14    44    1
    49    15    45    1
    50    16    46    1
    51    19    47    1
    52    19    48    1
    53    21    49    1
    54    22    50    1
    55    24    51    1
    56    25    52    1
    57    26    53    1
    58    28    54    1
    59    30    55    1
    60    31    56    1
    61    33    57    1
    62    34    58    1
