@<TRIPOS>MOLECULE
NuBBE_2105
 36 35 0 0 0
SMALL
GASTEIGER

@<TRIPOS>ATOM
      1 C          -3.2176   -0.3647    3.3925 C.3     1  LIG1       -0.0653
      2 C          -3.5106   -0.8807    1.9902 C.3     1  LIG1       -0.0559
      3 C          -3.1757    0.1313    0.8883 C.3     1  LIG1       -0.0533
      4 C          -1.6894    0.4900    0.8683 C.3     1  LIG1       -0.0531
      5 C          -1.3325    1.5030   -0.2215 C.3     1  LIG1       -0.0531
      6 C           0.1404    1.9446   -0.1488 C.3     1  LIG1       -0.0531
      7 C           1.0811    0.7814   -0.4253 C.3     1  LIG1       -0.0530
      8 C           2.5651    1.1265   -0.4070 C.3     1  LIG1       -0.0528
      9 C           3.4964   -0.0841   -0.6311 C.3     1  LIG1       -0.0496
     10 C           3.3636   -0.8074   -1.9839 C.3     1  LIG1       -0.0350
     11 C           2.1054   -1.6333   -2.1517 C.2     1  LIG1       -0.0911
     12 C           1.9427   -2.6416   -2.9987 C.2     1  LIG1       -0.1026
     13 H          -3.4741   -1.1236    4.1375 H       1  LIG1        0.0230
     14 H          -3.8006    0.5367    3.6044 H       1  LIG1        0.0230
     15 H          -2.1582   -0.1288    3.5278 H       1  LIG1        0.0230
     16 H          -4.5744   -1.1376    1.9248 H       1  LIG1        0.0263
     17 H          -2.9503   -1.8084    1.8223 H       1  LIG1        0.0263
     18 H          -3.7799    1.0359    1.0214 H       1  LIG1        0.0265
     19 H          -3.4577   -0.3022   -0.0797 H       1  LIG1        0.0265
     20 H          -1.1230   -0.4375    0.7302 H       1  LIG1        0.0265
     21 H          -1.3895    0.9163    1.8300 H       1  LIG1        0.0265
     22 H          -1.9652    2.3910   -0.1183 H       1  LIG1        0.0265
     23 H          -1.5460    1.0719   -1.2085 H       1  LIG1        0.0265
     24 H           0.3576    2.3946    0.8256 H       1  LIG1        0.0265
     25 H           0.3087    2.7132   -0.9123 H       1  LIG1        0.0265
     26 H           0.8043    0.4501   -1.4260 H       1  LIG1        0.0265
     27 H           0.9125   -0.0347    0.2887 H       1  LIG1        0.0265
     28 H           2.8153    1.5719    0.5629 H       1  LIG1        0.0265
     29 H           2.7708    1.8896   -1.1698 H       1  LIG1        0.0265
     30 H           3.3718   -0.8039    0.1878 H       1  LIG1        0.0268
     31 H           4.5257    0.2873   -0.5576 H       1  LIG1        0.0268
     32 H           4.2244   -1.4649   -2.1023 H       1  LIG1        0.0307
     33 H           3.4148   -0.0620   -2.7857 H       1  LIG1        0.0307
     34 H           1.2384   -1.4017   -1.5524 H       1  LIG1        0.0566
     35 H           2.7360   -2.9934   -3.6571 H       1  LIG1        0.0532
     36 H           0.9696   -3.1248   -3.0650 H       1  LIG1        0.0532
@<TRIPOS>BOND
     1     1     2    1
     2     2     3    1
     3     3     4    1
     4     4     5    1
     5     5     6    1
     6     6     7    1
     7     7     8    1
     8     8     9    1
     9     9    10    1
    10    10    11    1
    11    11    12    2
    12     1    13    1
    13     1    14    1
    14     1    15    1
    15     2    16    1
    16     2    17    1
    17     3    18    1
    18     3    19    1
    19     4    20    1
    20     4    21    1
    21     5    22    1
    22     5    23    1
    23     6    24    1
    24     6    25    1
    25     7    26    1
    26     7    27    1
    27     8    28    1
    28     8    29    1
    29     9    30    1
    30     9    31    1
    31    10    32    1
    32    10    33    1
    33    11    34    1
    34    12    35    1
    35    12    36    1
