REMARK  Name = NuBBE_33
REMARK  11 active torsions:
REMARK  status: ('A' for Active; 'I' for Inactive)
REMARK    1  A    between atoms: O_1  and  C_2
REMARK    2  A    between atoms: C_6  and  C_7
REMARK    3  A    between atoms: C_6  and  C_13
REMARK    4  A    between atoms: C_8  and  C_9
REMARK    5  A    between atoms: C_10  and  C_11
REMARK    6  A    between atoms: C_10  and  C_12
REMARK    7  A    between atoms: C_16  and  C_17
REMARK    8  A    between atoms: C_17  and  C_18
REMARK    9  A    between atoms: C_19  and  C_20
REMARK   10  A    between atoms: C_19  and  C_21
REMARK   11  A    between atoms: C_22  and  C_23
REMARK                            x       y       z     vdW  Elec       q    Type
REMARK                         _______ _______ _______ _____ _____    ______ ____
ROOT
ATOM      1  C   LIG A   1      -2.107  -1.685   1.759  0.00  0.00    +0.124 A 
ATOM      2  C   LIG A   1      -1.363  -0.502   1.764  0.00  0.00    +0.036 A 
ATOM      3  C   LIG A   1       0.026  -0.589   1.562  0.00  0.00    +0.132 A 
ATOM      4  O   LIG A   1       0.834   0.524   1.510  0.00  0.00    -0.481 OA
ATOM      5  C   LIG A   1       0.198   1.796   1.282  0.00  0.00    +0.127 C 
ATOM      6  C   LIG A   1       1.235   2.861   1.667  0.00  0.00    +0.060 C 
ATOM      7  C   LIG A   1      -1.019   1.938   2.211  0.00  0.00    +0.057 C 
ATOM      8  C   LIG A   1      -2.029   0.832   1.944  0.00  0.00    +0.047 C 
ATOM      9  C   LIG A   1       0.676  -1.840   1.417  0.00  0.00    +0.002 A 
ATOM     10  C   LIG A   1      -0.106  -3.017   1.409  0.00  0.00    -0.040 A 
ATOM     11  C   LIG A   1       0.491  -4.384   1.219  0.00  0.00    +0.044 C 
ATOM     12  C   LIG A   1      -1.492  -2.920   1.588  0.00  0.00    +0.049 A 
ENDROOT
BRANCH   1  13
ATOM     13  O   LIG A   1      -3.466  -1.718   1.910  0.00  0.00    -0.506 OA
ATOM     14  H   LIG A   1      -3.816  -0.815   1.893  0.00  0.00    +0.292 HD
ENDBRANCH   1  13
BRANCH   5  15
ATOM     15  C   LIG A   1      -0.070   1.944  -0.209  0.00  0.00    +0.020 C 
ATOM     16  C   LIG A   1      -1.093   2.640  -0.734  0.00  0.00    -0.000 C 
BRANCH  16  17
ATOM     17  C   LIG A   1      -1.375   2.750  -2.140  0.00  0.00    -0.002 C 
ATOM     18  C   LIG A   1      -2.393   3.466  -2.664  0.00  0.00    -0.076 C 
ATOM     19  C   LIG A   1      -3.350   4.326  -1.878  0.00  0.00    +0.038 C 
ATOM     20  C   LIG A   1      -2.662   3.446  -4.144  0.00  0.00    +0.038 C 
ENDBRANCH  16  17
ENDBRANCH   5  15
BRANCH   9  21
ATOM     21  C   LIG A   1       2.188  -1.902   1.247  0.00  0.00    +0.066 C 
BRANCH  21  22
ATOM     22  C   LIG A   1       2.628  -1.827  -0.193  0.00  0.00    -0.023 C 
ATOM     23  C   LIG A   1       3.366  -2.708  -0.899  0.00  0.00    -0.079 C 
ATOM     24  C   LIG A   1       3.895  -4.020  -0.387  0.00  0.00    +0.038 C 
ATOM     25  C   LIG A   1       3.737  -2.421  -2.332  0.00  0.00    +0.038 C 
ENDBRANCH  21  22
ENDBRANCH   9  21
TORSDOF 5
