REMARK  Name = NuBBE_958
REMARK  14 active torsions:
REMARK  status: ('A' for Active; 'I' for Inactive)
REMARK    1  A    between atoms: C_1  and  O_2
REMARK    2  A    between atoms: O_2  and  C_3
REMARK    3  A    between atoms: C_3  and  C_4
REMARK    4  A    between atoms: C_4  and  C_5
REMARK    5  A    between atoms: C_7  and  C_8
REMARK    6  A    between atoms: C_15  and  O_17
REMARK    7  A    between atoms: O_17  and  C_18
REMARK    8  A    between atoms: C_18  and  C_19
REMARK    9  A    between atoms: C_19  and  C_20
REMARK   10  A    between atoms: C_19  and  C_21
REMARK   11  A    between atoms: C_23  and  C_24
REMARK   12  A    between atoms: C_23  and  C_25
REMARK   13  A    between atoms: C_31  and  C_34
REMARK   14  A    between atoms: C_38  and  C_40
REMARK                            x       y       z     vdW  Elec       q    Type
REMARK                         _______ _______ _______ _____ _____    ______ ____
ROOT
ATOM      1  C   LIG A   1      -1.718  -0.791  -2.196  0.00  0.00    +0.022 C 
ATOM      2  C   LIG A   1      -2.237  -0.559  -0.688  0.00  0.00    +0.036 C 
ATOM      3  C   LIG A   1      -3.676   0.021  -0.749  0.00  0.00    +0.019 C 
ATOM      4  C   LIG A   1      -1.273   0.326   0.220  0.00  0.00    +0.037 C 
ATOM      5  C   LIG A   1      -0.340  -0.418   1.186  0.00  0.00    +0.104 C 
ATOM      6  C   LIG A   1      -0.249  -1.933   1.112  0.00  0.00    +0.165 C 
ATOM      7  C   LIG A   1      -1.097  -2.693   0.138  0.00  0.00    +0.129 C 
ATOM      8  C   LIG A   1      -0.448  -2.943  -1.236  0.00  0.00    +0.195 C 
ATOM      9  C   LIG A   1      -1.137  -2.258  -2.479  0.00  0.00    +0.007 C 
ATOM     10  C   LIG A   1      -2.330  -3.156  -2.931  0.00  0.00    +0.015 C 
ATOM     11  C   LIG A   1      -0.158  -2.296  -3.687  0.00  0.00    +0.015 C 
ATOM     12  C   LIG A   1      -2.388  -1.950  -0.068  0.00  0.00    +0.149 C 
ATOM     13  O   LIG A   1      -3.470  -2.469   0.202  0.00  0.00    -0.296 OA
ATOM     14  O   LIG A   1      -1.012  -1.265   2.128  0.00  0.00    -0.363 OA
ATOM     15  C   LIG A   1       0.732   0.465   1.837  0.00  0.00    +0.044 C 
ATOM     16  C   LIG A   1       0.125   1.723   2.539  0.00  0.00    +0.015 C 
ATOM     17  C   LIG A   1      -0.897   2.408   1.599  0.00  0.00    +0.011 C 
ATOM     18  C   LIG A   1      -1.953   1.449   1.034  0.00  0.00    +0.008 C 
ATOM     19  C   LIG A   1      -0.579   1.368   3.875  0.00  0.00    +0.015 C 
ATOM     20  C   LIG A   1       1.693  -0.230   2.793  0.00  0.00    +0.127 C 
ATOM     21  C   LIG A   1       2.720   0.703   3.387  0.00  0.00    +0.308 C 
ATOM     22  O   LIG A   1       2.363   1.986   3.594  0.00  0.00    -0.456 OA
ATOM     23  C   LIG A   1       1.353   2.646   2.797  0.00  0.00    +0.216 C 
ATOM     24  O   LIG A   1       3.807   0.285   3.776  0.00  0.00    -0.251 OA
ENDROOT
BRANCH  23  25
ATOM     25  C   LIG A   1       1.049   3.989   3.398  0.00  0.00    +0.031 A 
ATOM     26  C   LIG A   1       1.123   4.346   4.732  0.00  0.00    +0.202 A 
ATOM     27  O   LIG A   1       0.843   5.661   4.902  0.00  0.00    -0.471 OA
ATOM     28  C   LIG A   1       0.594   6.173   3.672  0.00  0.00    +0.195 A 
ATOM     29  C   LIG A   1       0.706   5.194   2.714  0.00  0.00    +0.048 A 
ENDBRANCH  23  25
BRANCH   1  30
ATOM     30  C   LIG A   1      -0.859   0.346  -2.828  0.00  0.00    +0.125 C 
BRANCH  30  31
ATOM     31  C   LIG A   1      -1.525   1.711  -2.879  0.00  0.00    +0.307 C 
ATOM     32  O   LIG A   1      -2.708   1.921  -3.032  0.00  0.00    -0.251 OA
BRANCH  31  34
ATOM     33  C   LIG A   1      -1.087   3.949  -2.359  0.00  0.00    +0.280 C 
ATOM     34  O   LIG A   1      -0.569   2.671  -2.724  0.00  0.00    -0.468 OA
ENDBRANCH  31  34
ENDBRANCH  30  31
ENDBRANCH   1  30
BRANCH   8  35
ATOM     35  O   LIG A   1       0.957  -2.585  -1.237  0.00  0.00    -0.460 OA
BRANCH  35  36
ATOM     36  C   LIG A   1       1.838  -3.625  -1.409  0.00  0.00    +0.310 C 
ATOM     37  O   LIG A   1       1.572  -4.805  -1.243  0.00  0.00    -0.251 OA
BRANCH  36  38
ATOM     38  C   LIG A   1       3.179  -3.095  -1.881  0.00  0.00    +0.092 C 
ATOM     39  C   LIG A   1       4.068  -2.838  -0.678  0.00  0.00    +0.019 C 
ATOM     40  C   LIG A   1       3.841  -4.061  -2.862  0.00  0.00    +0.019 C 
ENDBRANCH  36  38
ENDBRANCH  35  36
ENDBRANCH   8  35
TORSDOF 7
