@<TRIPOS>MOLECULE
NuBBE_1927
 39 40 0 0 0
SMALL
GASTEIGER

@<TRIPOS>ATOM
      1 C          -1.8405   -0.5285   -1.0691 C.3     1  LIG1       -0.0590
      2 C          -0.4364   -1.1353   -0.8116 C.3     1  LIG1       -0.0253
      3 C           0.6870   -0.0522   -0.7163 C.3     1  LIG1       -0.0142
      4 H           1.6317   -0.5735   -0.4907 H       1  LIG1        0.0351
      5 C           0.9478    0.6319   -2.0549 C.2     1  LIG1       -0.0729
      6 C           1.6161    1.9787   -2.0545 C.3     1  LIG1       -0.0435
      7 C           0.6539    0.0141   -3.2159 C.2     1  LIG1       -0.0847
      8 C           0.0424   -1.3541   -3.3198 C.3     1  LIG1       -0.0340
      9 C          -0.0774   -2.0861   -1.9789 C.3     1  LIG1       -0.0436
     10 C           0.4378    0.8896    0.4807 C.3     1  LIG1       -0.0395
     11 C           0.3666    0.0962    1.8024 C.3     1  LIG1       -0.0198
     12 H           1.3486   -0.3870    1.9198 H       1  LIG1        0.0346
     13 C           0.1522    1.0060    3.0067 C.2     1  LIG1       -0.0766
     14 C          -1.1330    1.7848    3.1024 C.3     1  LIG1       -0.0438
     15 C           1.0898    1.1166    3.9641 C.2     1  LIG1       -0.0994
     16 C          -0.6615   -1.0457    1.7454 C.3     1  LIG1       -0.0460
     17 C          -0.4676   -1.9349    0.5133 C.3     1  LIG1       -0.0465
     18 H          -1.8778    0.0785   -1.9785 H       1  LIG1        0.0235
     19 H          -2.1779    0.1171   -0.2539 H       1  LIG1        0.0235
     20 H          -2.5870   -1.3240   -1.1784 H       1  LIG1        0.0235
     21 H           2.5564    1.9370   -1.4954 H       1  LIG1        0.0274
     22 H           0.9647    2.7317   -1.6001 H       1  LIG1        0.0274
     23 H           1.8539    2.3210   -3.0675 H       1  LIG1        0.0274
     24 H           0.8613    0.5094   -4.1623 H       1  LIG1        0.0572
     25 H           0.6387   -1.9652   -4.0073 H       1  LIG1        0.0308
     26 H          -0.9506   -1.2531   -3.7740 H       1  LIG1        0.0308
     27 H           0.8809   -2.5791   -1.7642 H       1  LIG1        0.0274
     28 H          -0.8189   -2.8899   -2.0692 H       1  LIG1        0.0274
     29 H          -0.4738    1.4747    0.3164 H       1  LIG1        0.0277
     30 H           1.2568    1.6151    0.5653 H       1  LIG1        0.0277
     31 H          -1.1601    2.4171    3.9969 H       1  LIG1        0.0274
     32 H          -1.9939    1.1125    3.1575 H       1  LIG1        0.0274
     33 H          -1.2563    2.4442    2.2387 H       1  LIG1        0.0274
     34 H           0.9506    1.7619    4.8265 H       1  LIG1        0.0534
     35 H           2.0245    0.5660    3.9149 H       1  LIG1        0.0534
     36 H          -1.6838   -0.6528    1.7502 H       1  LIG1        0.0271
     37 H          -0.5730   -1.6661    2.6465 H       1  LIG1        0.0271
     38 H          -1.2654   -2.6877    0.4842 H       1  LIG1        0.0271
     39 H           0.4732   -2.4891    0.6305 H       1  LIG1        0.0271
@<TRIPOS>BOND
     1     2     3    1
     2     3     5    1
     3     5     7    2
     4     7     8    1
     5     8     9    1
     6     2     9    1
     7     3    10    1
     8    10    11    1
     9    13    14    1
    10    13    15    2
    11    11    16    1
    12    16    17    1
    13     2    17    1
    14     1     2    1
    15     3     4    1
    16     5     6    1
    17    11    13    1
    18    11    12    1
    19     1    18    1
    20     1    19    1
    21     1    20    1
    22     6    21    1
    23     6    22    1
    24     6    23    1
    25     7    24    1
    26     8    25    1
    27     8    26    1
    28     9    27    1
    29     9    28    1
    30    10    29    1
    31    10    30    1
    32    14    31    1
    33    14    32    1
    34    14    33    1
    35    15    34    1
    36    15    35    1
    37    16    36    1
    38    16    37    1
    39    17    38    1
    40    17    39    1
