REMARK  Name = NuBBE_1203
REMARK  11 active torsions:
REMARK  status: ('A' for Active; 'I' for Inactive)
REMARK    1  A    between atoms: C_1  and  C_2
REMARK    2  A    between atoms: C_6  and  C_7
REMARK    3  A    between atoms: C_12  and  C_13
REMARK    4  A    between atoms: C_16  and  C_17
REMARK    5  A    between atoms: C_17  and  O_18
REMARK    6  A    between atoms: C_22  and  C_25
REMARK    7  A    between atoms: C_22  and  C_26
REMARK    8  A    between atoms: C_27  and  C_35
REMARK    9  A    between atoms: C_27  and  C_36
REMARK   10  A    between atoms: C_28  and  O_30
REMARK   11  A    between atoms: C_31  and  O_33
REMARK                            x       y       z     vdW  Elec       q    Type
REMARK                         _______ _______ _______ _____ _____    ______ ____
ROOT
ATOM      1  C   LIG A   1      -3.285  -1.131   4.248  0.00  0.00    +0.012 C 
ATOM      2  C   LIG A   1      -2.281  -1.532   3.162  0.00  0.00    -0.023 C 
ATOM      3  C   LIG A   1      -2.964  -1.563   1.638  0.00  0.00    +0.003 C 
ATOM      4  C   LIG A   1      -3.043  -2.934   1.073  0.00  0.00    +0.005 C 
ATOM      5  C   LIG A   1      -1.623  -3.197   0.778  0.00  0.00    +0.008 C 
ATOM      6  C   LIG A   1      -0.727  -1.872   1.000  0.00  0.00    -0.019 C 
ATOM      7  C   LIG A   1       0.572  -2.784   1.427  0.00  0.00    +0.012 C 
ATOM      8  C   LIG A   1      -1.623  -0.540   2.368  0.00  0.00    +0.006 C 
ATOM      9  C   LIG A   1      -1.456   1.378   1.962  0.00  0.00    +0.031 C 
ATOM     10  C   LIG A   1      -0.791   1.716   0.232  0.00  0.00    -0.026 C 
ATOM     11  C   LIG A   1      -0.174   0.793  -0.733  0.00  0.00    -0.063 C 
ATOM     12  C   LIG A   1      -0.025  -1.070  -0.676  0.00  0.00    -0.005 C 
ATOM     13  C   LIG A   1      -0.522  -1.861  -2.019  0.00  0.00    +0.016 C 
ATOM     14  C   LIG A   1       1.543  -1.419  -1.051  0.00  0.00    +0.012 C 
ATOM     15  C   LIG A   1       2.144  -0.657  -2.272  0.00  0.00    +0.019 C 
ATOM     16  C   LIG A   1       1.448   0.627  -2.828  0.00  0.00    +0.074 C 
ATOM     17  C   LIG A   1       0.838   1.485  -1.690  0.00  0.00    +0.033 C 
ATOM     18  C   LIG A   1       2.003   2.115  -0.856  0.00  0.00    +0.015 C 
ATOM     19  C   LIG A   1       3.001   2.977  -1.670  0.00  0.00    -0.034 C 
ATOM     20  C   LIG A   1       2.717   2.877  -3.177  0.00  0.00    +0.007 C 
ATOM     21  C   LIG A   1       2.528   1.436  -3.642  0.00  0.00    +0.019 C 
ATOM     22  C   LIG A   1       4.442   2.519  -1.362  0.00  0.00    +0.011 C 
ATOM     23  C   LIG A   1       2.884   4.452  -1.242  0.00  0.00    +0.011 C 
ATOM     24  C   LIG A   1      -1.987  -0.297   0.535  0.00  0.00    -0.003 C 
ATOM     25  C   LIG A   1      -0.033  -0.049   1.452  0.00  0.00    +0.149 C 
ATOM     26  C   LIG A   1       0.244  -0.616   3.234  0.00  0.00    +0.144 C 
ATOM     27  C   LIG A   1      -0.851  -1.709   3.786  0.00  0.00    +0.041 C 
ATOM     28  C   LIG A   1      -2.558  -0.767  -0.886  0.00  0.00    +0.014 C 
ATOM     29  C   LIG A   1      -3.337   0.912   0.536  0.00  0.00    +0.014 C 
ENDROOT
BRANCH  16  30
ATOM     30  C   LIG A   1       0.421   0.283  -3.909  0.00  0.00    +0.311 C 
ATOM     31  O   LIG A   1       0.520  -0.609  -4.740  0.00  0.00    -0.250 OA
BRANCH  30  32
ATOM     32  O   LIG A   1      -0.615   1.138  -4.000  0.00  0.00    -0.480 OA
ATOM     33  H   LIG A   1      -1.134   0.797  -4.757  0.00  0.00    +0.295 HD
ENDBRANCH  30  32
ENDBRANCH  16  30
BRANCH  25  34
ATOM     34  O   LIG A   1       1.327  -0.252   1.006  0.00  0.00    -0.389 OA
ATOM     35  H   LIG A   1       1.895  -0.304   1.806  0.00  0.00    +0.210 HD
ENDBRANCH  25  34
BRANCH  26  36
ATOM     36  O   LIG A   1       1.603  -0.961   3.478  0.00  0.00    -0.389 OA
ATOM     37  H   LIG A   1       1.654  -1.305   4.387  0.00  0.00    +0.210 HD
ENDBRANCH  26  36
TORSDOF 4
