@<TRIPOS>MOLECULE
NuBBE_1744
 31 31 0 0 0
SMALL
GASTEIGER

@<TRIPOS>ATOM
      1 O          -2.8781    0.6665   -0.3676 O.3     1  LIG1       -0.4885
      2 C          -3.6881   -0.3021   -1.0305 C.3     1  LIG1        0.0791
      3 C          -1.5384    0.3777   -0.2211 C.ar    1  LIG1        0.2035
      4 C          -0.6196    1.3848   -0.6234 C.ar    1  LIG1        0.1654
      5 O          -1.0890    2.4897   -1.3021 O.3     1  LIG1       -0.4913
      6 C          -0.3275    3.6933   -1.1527 C.3     1  LIG1        0.0790
      7 C           0.7484    1.2308   -0.3610 C.ar    1  LIG1       -0.0126
      8 C           1.2346    0.1397    0.3498 C.ar    1  LIG1       -0.0365
      9 C           0.3250   -0.8223    0.7675 C.ar    1  LIG1       -0.0126
     10 C          -1.0515   -0.7335    0.5024 C.ar    1  LIG1        0.1654
     11 O          -1.9152   -1.7006    0.9675 O.3     1  LIG1       -0.4913
     12 C          -1.4488   -2.4006    2.1297 C.3     1  LIG1        0.0790
     13 C           2.6878    0.0273    0.7066 C.3     1  LIG1       -0.0095
     14 C           3.3500   -1.2164    0.1421 C.2     1  LIG1       -0.0868
     15 C           3.4567   -1.5239   -1.1304 C.2     1  LIG1       -0.1023
     16 H          -4.0852   -1.0476   -0.3335 H       1  LIG1        0.0660
     17 H          -3.1803   -0.7819   -1.8727 H       1  LIG1        0.0660
     18 H          -4.5574    0.2328   -1.4379 H       1  LIG1        0.0660
     19 H           0.7528    3.5758   -1.2711 H       1  LIG1        0.0660
     20 H          -0.5394    4.1514   -0.1817 H       1  LIG1        0.0660
     21 H          -0.6161    4.3884   -1.9460 H       1  LIG1        0.0660
     22 H           1.4854    1.9485   -0.6923 H       1  LIG1        0.0658
     23 H           0.7539   -1.6444    1.3293 H       1  LIG1        0.0658
     24 H          -1.3205   -1.6998    2.9631 H       1  LIG1        0.0660
     25 H          -0.5210   -2.9578    1.9503 H       1  LIG1        0.0660
     26 H          -2.1856   -3.1545    2.4150 H       1  LIG1        0.0660
     27 H           2.7586    0.0050    1.7971 H       1  LIG1        0.0355
     28 H           3.2508    0.9116    0.3879 H       1  LIG1        0.0355
     29 H           3.7591   -1.9002    0.8911 H       1  LIG1        0.0570
     30 H           3.0599   -0.8845   -1.9288 H       1  LIG1        0.0532
     31 H           3.9387   -2.4532   -1.4466 H       1  LIG1        0.0532
@<TRIPOS>BOND
     1     1     2    1
     2     1     3    1
     3     3     4   ar
     4     4     5    1
     5     5     6    1
     6     4     7   ar
     7     7     8   ar
     8     8     9   ar
     9     9    10   ar
    10     3    10   ar
    11    10    11    1
    12    11    12    1
    13     8    13    1
    14    13    14    1
    15    14    15    2
    16     2    16    1
    17     2    17    1
    18     2    18    1
    19     6    19    1
    20     6    20    1
    21     6    21    1
    22     7    22    1
    23     9    23    1
    24    12    24    1
    25    12    25    1
    26    12    26    1
    27    13    27    1
    28    13    28    1
    29    14    29    1
    30    15    30    1
    31    15    31    1
