REMARK  Name = NuBBE_1939
REMARK  6 active torsions:
REMARK  status: ('A' for Active; 'I' for Inactive)
REMARK    1  A    between atoms: O_1  and  C_2
REMARK    2  A    between atoms: C_5  and  C_7
REMARK    3  A    between atoms: C_7  and  C_8
REMARK    4  A    between atoms: C_7  and  C_9
REMARK    5  A    between atoms: C_12  and  C_14
REMARK    6  A    between atoms: C_16  and  C_19
REMARK                            x       y       z     vdW  Elec       q    Type
REMARK                         _______ _______ _______ _____ _____    ______ ____
ROOT
ATOM      1  C   LIG A   1      -1.209  -0.669  -0.117  0.00  0.00    +0.075 C 
ATOM      2  C   LIG A   1       0.243  -0.068  -0.278  0.00  0.00    +0.047 C 
ATOM      3  C   LIG A   1       0.503   1.157   0.657  0.00  0.00    +0.001 C 
ATOM      4  C   LIG A   1       0.135   0.768   2.111  0.00  0.00    +0.005 C 
ATOM      5  C   LIG A   1      -1.241   0.134   2.274  0.00  0.00    +0.006 C 
ATOM      6  C   LIG A   1      -1.432  -1.082   1.359  0.00  0.00    +0.018 C 
ATOM      7  C   LIG A   1      -2.807  -1.701   1.638  0.00  0.00    +0.010 C 
ATOM      8  C   LIG A   1       0.447   0.220  -1.774  0.00  0.00    -0.021 C 
ATOM      9  C   LIG A   1       0.335  -0.870  -2.563  0.00  0.00    -0.076 C 
ATOM     10  C   LIG A   1      -1.026  -1.524  -2.550  0.00  0.00    +0.033 C 
ATOM     11  C   LIG A   1      -1.420  -1.859  -1.098  0.00  0.00    +0.040 C 
ATOM     12  C   LIG A   1       1.501  -1.791  -2.784  0.00  0.00    +0.038 C 
ENDROOT
BRANCH   3  13
ATOM     13  C   LIG A   1       1.982   1.698   0.618  0.00  0.00    -0.013 C 
ATOM     14  C   LIG A   1       2.220   2.817   1.648  0.00  0.00    +0.007 C 
ATOM     15  C   LIG A   1       2.422   2.237  -0.749  0.00  0.00    +0.007 C 
ENDBRANCH   3  13
BRANCH   1  16
ATOM     16  O   LIG A   1      -2.166   0.355  -0.451  0.00  0.00    -0.388 OA
ATOM     17  H   LIG A   1      -3.046  -0.053  -0.500  0.00  0.00    +0.210 HD
ENDBRANCH   1  16
TORSDOF 2
