@<TRIPOS>MOLECULE
NuBBE_2434
 38 40 0 0 0
SMALL
GASTEIGER

@<TRIPOS>ATOM
      1 O          -3.2267   -2.2682    0.0948 O.3     1  LIG1       -0.4942
      2 C          -3.8462   -3.3537   -0.5909 C.3     1  LIG1        0.0788
      3 C          -1.8675   -2.1704   -0.0302 C.ar    1  LIG1        0.1376
      4 C          -1.2763   -0.8972   -0.0033 C.ar    1  LIG1        0.1035
      5 C           0.1174   -0.7859   -0.0676 C.ar    1  LIG1        0.1391
      6 O           0.8119    0.3883   -0.0439 O.3     1  LIG1       -0.4802
      7 C           0.0547    1.5929   -0.2442 C.3     1  LIG1        0.1581
      8 H          -0.1523    1.6709   -1.3217 H       1  LIG1        0.0815
      9 C          -1.2517    1.5854    0.5496 C.3     1  LIG1        0.1585
     10 H          -1.0876    1.5100    1.6310 H       1  LIG1        0.0718
     11 C          -2.0512    0.3604    0.1051 C.2     1  LIG1        0.2024
     12 O          -3.2528    0.4327   -0.1082 O.2     1  LIG1       -0.2889
     13 O          -2.0424    2.7505    0.2906 O.3     1  LIG1       -0.3798
     14 C           0.9771    2.7486    0.1295 C.ar    1  LIG1       -0.0044
     15 C           0.8241    3.9974   -0.4927 C.ar    1  LIG1       -0.0550
     16 C           1.6966    5.0502   -0.2054 C.ar    1  LIG1       -0.0614
     17 C           2.7312    4.8726    0.7105 C.ar    1  LIG1       -0.0617
     18 C           2.8858    3.6472    1.3523 C.ar    1  LIG1       -0.0614
     19 C           2.0111    2.5960    1.0707 C.ar    1  LIG1       -0.0550
     20 C           0.9260   -1.9237   -0.1047 C.ar    1  LIG1        0.0227
     21 C           0.3486   -3.1866   -0.1026 C.ar    1  LIG1        0.1271
     22 C          -1.0414   -3.3068   -0.0555 C.ar    1  LIG1        0.0227
     23 O           1.0383   -4.3671   -0.0793 O.3     1  LIG1       -0.4949
     24 C           2.3330   -4.3403   -0.6715 C.3     1  LIG1        0.0788
     25 H          -4.9281   -3.2620   -0.4533 H       1  LIG1        0.0660
     26 H          -3.5556   -4.3228   -0.1743 H       1  LIG1        0.0660
     27 H          -3.6353   -3.3110   -1.6650 H       1  LIG1        0.0660
     28 H          -2.9756    2.4717    0.3963 H       1  LIG1        0.2105
     29 H           0.0209    4.1575   -1.2098 H       1  LIG1        0.0621
     30 H           1.5699    6.0093   -0.7010 H       1  LIG1        0.0618
     31 H           3.4154    5.6891    0.9253 H       1  LIG1        0.0618
     32 H           3.6924    3.5047    2.0668 H       1  LIG1        0.0618
     33 H           2.1610    1.6463    1.5800 H       1  LIG1        0.0621
     34 H           2.0024   -1.7869   -0.1006 H       1  LIG1        0.0691
     35 H          -1.4558   -4.3073   -0.0028 H       1  LIG1        0.0691
     36 H           2.7355   -5.3570   -0.6359 H       1  LIG1        0.0660
     37 H           3.0234   -3.6981   -0.1162 H       1  LIG1        0.0660
     38 H           2.2699   -4.0369   -1.7220 H       1  LIG1        0.0660
@<TRIPOS>BOND
     1     1     2    1
     2     1     3    1
     3     3     4   ar
     4     4     5   ar
     5     5     6    1
     6     6     7    1
     7     7     8    1
     8     7     9    1
     9     9    10    1
    10     9    11    1
    11     4    11    1
    12    11    12    2
    13     9    13    1
    14     7    14    1
    15    14    15   ar
    16    15    16   ar
    17    16    17   ar
    18    17    18   ar
    19    18    19   ar
    20    14    19   ar
    21     5    20   ar
    22    20    21   ar
    23    21    22   ar
    24     3    22   ar
    25    21    23    1
    26    23    24    1
    27     2    25    1
    28     2    26    1
    29     2    27    1
    30    13    28    1
    31    15    29    1
    32    16    30    1
    33    17    31    1
    34    18    32    1
    35    19    33    1
    36    20    34    1
    37    22    35    1
    38    24    36    1
    39    24    37    1
    40    24    38    1
