REMARK  Name = NuBBE_434
REMARK  13 active torsions:
REMARK  status: ('A' for Active; 'I' for Inactive)
REMARK    1  A    between atoms: C_1  and  C_2
REMARK    2  A    between atoms: C_2  and  C_3
REMARK    3  A    between atoms: C_7  and  C_8
REMARK    4  A    between atoms: C_11  and  C_12
REMARK    5  A    between atoms: C_13  and  C_37
REMARK    6  A    between atoms: C_16  and  C_26
REMARK    7  A    between atoms: C_18  and  C_19
REMARK    8  A    between atoms: C_18  and  C_20
REMARK    9  A    between atoms: C_20  and  C_21
REMARK   10  A    between atoms: C_21  and  C_22
REMARK   11  A    between atoms: C_22  and  O_23
REMARK   12  A    between atoms: O_23  and  C_24
REMARK   13  A    between atoms: C_26  and  C_27
REMARK                            x       y       z     vdW  Elec       q    Type
REMARK                         _______ _______ _______ _____ _____    ______ ____
ROOT
ATOM      1  C   LIG A   1       3.976   1.353   1.812  0.00  0.00    +0.018 C 
ATOM      2  C   LIG A   1       5.369   1.510   1.189  0.00  0.00    +0.009 C 
ATOM      3  C   LIG A   1       5.322   0.665  -0.083  0.00  0.00    +0.007 C 
ATOM      4  C   LIG A   1       3.911   0.897  -0.678  0.00  0.00    -0.028 C 
ATOM      5  C   LIG A   1       4.014   2.058  -1.700  0.00  0.00    +0.011 C 
ATOM      6  C   LIG A   1       3.397  -0.334  -1.448  0.00  0.00    +0.007 C 
ATOM      7  C   LIG A   1       1.873  -0.535  -1.402  0.00  0.00    +0.008 C 
ATOM      8  C   LIG A   1       1.307  -0.593   0.051  0.00  0.00    -0.023 C 
ATOM      9  C   LIG A   1       2.068  -1.745   0.774  0.00  0.00    +0.012 C 
ATOM     10  C   LIG A   1      -0.297  -0.923   0.165  0.00  0.00    -0.023 C 
ATOM     11  C   LIG A   1      -0.647  -2.188  -0.676  0.00  0.00    +0.008 C 
ATOM     12  C   LIG A   1      -2.099  -2.343  -1.138  0.00  0.00    +0.009 C 
ATOM     13  C   LIG A   1      -3.154  -1.598  -0.299  0.00  0.00    +0.020 C 
ATOM     14  C   LIG A   1      -2.805  -0.024  -0.318  0.00  0.00    -0.022 C 
ATOM     15  C   LIG A   1      -3.500   0.764   0.820  0.00  0.00    +0.012 C 
ATOM     16  C   LIG A   1      -1.202   0.248  -0.343  0.00  0.00    +0.002 C 
ATOM     17  C   LIG A   1      -0.811   1.564   0.348  0.00  0.00    +0.005 C 
ATOM     18  C   LIG A   1       0.656   1.896   0.166  0.00  0.00    +0.005 C 
ATOM     19  C   LIG A   1       1.613   0.802   0.702  0.00  0.00    -0.000 C 
ATOM     20  C   LIG A   1       3.057   1.347   0.546  0.00  0.00    +0.006 C 
ATOM     21  C   LIG A   1      -0.605  -1.186   1.676  0.00  0.00    +0.012 C 
ENDROOT
BRANCH   1  23
ATOM     22  C   LIG A   1       4.769  -0.915   2.897  0.00  0.00    +0.038 C 
ATOM     23  C   LIG A   1       3.836   0.264   2.873  0.00  0.00    -0.076 C 
ATOM     24  C   LIG A   1       2.945   0.394   3.875  0.00  0.00    +0.007 C 
ENDBRANCH   1  23
BRANCH  13  25
ATOM     25  C   LIG A   1      -3.502  -2.351   1.017  0.00  0.00    -0.076 C 
ATOM     26  C   LIG A   1      -2.854  -3.688   1.315  0.00  0.00    +0.038 C 
ATOM     27  C   LIG A   1      -4.454  -1.966   1.889  0.00  0.00    +0.007 C 
ENDBRANCH  13  25
BRANCH  14  28
ATOM     28  C   LIG A   1      -3.381   0.631  -1.654  0.00  0.00    +0.018 C 
BRANCH  28  29
ATOM     29  C   LIG A   1      -4.915   0.603  -1.823  0.00  0.00    +0.121 C 
BRANCH  29  30
ATOM     30  C   LIG A   1      -5.354   1.218  -3.128  0.00  0.00    +0.307 C 
ATOM     31  O   LIG A   1      -5.878   0.599  -4.031  0.00  0.00    -0.251 OA
BRANCH  30  32
ATOM     32  O   LIG A   1      -5.051   2.547  -3.143  0.00  0.00    -0.468 OA
ATOM     33  C   LIG A   1      -5.132   3.137  -4.438  0.00  0.00    +0.280 C 
ENDBRANCH  30  32
ENDBRANCH  29  30
ENDBRANCH  28  29
ENDBRANCH  14  28
TORSDOF 6
