@<TRIPOS>MOLECULE
NuBBE_673
 24 25 0 0 0
SMALL
GASTEIGER

@<TRIPOS>ATOM
      1 O          -3.0768   -1.7696    0.0524 O.3     1  LIG1       -0.5059
      2 C          -1.7086   -1.7065    0.0417 C.ar    1  LIG1        0.1313
      3 C          -0.9843   -0.5025    0.0696 C.ar    1  LIG1        0.1070
      4 C           0.4241   -0.5257    0.0590 C.ar    1  LIG1        0.0150
      5 C           1.1733    0.7743    0.1225 C.3     1  LIG1        0.0137
      6 C           0.3147    1.9069   -0.4269 C.3     1  LIG1        0.1047
      7 C           0.9640    3.2591   -0.1588 C.3     1  LIG1       -0.0274
      8 O          -0.9759    1.9192    0.2019 O.3     1  LIG1       -0.4577
      9 C          -1.7187    0.7859    0.1752 C.2     1  LIG1        0.3434
     10 O          -2.9378    0.8026    0.2884 O.2     1  LIG1       -0.2448
     11 C           1.0706   -1.7685    0.0544 C.ar    1  LIG1        0.1211
     12 O           2.4285   -1.9074    0.0857 O.3     1  LIG1       -0.5065
     13 C           0.3454   -2.9587    0.0256 C.ar    1  LIG1       -0.0164
     14 C          -1.0460   -2.9291    0.0155 C.ar    1  LIG1       -0.0159
     15 H          -3.4351   -0.8573    0.1351 H       1  LIG1        0.2922
     16 H           2.0965    0.7242   -0.4658 H       1  LIG1        0.0350
     17 H           1.4368    0.9576    1.1710 H       1  LIG1        0.0350
     18 H           0.1592    1.7948   -1.5078 H       1  LIG1        0.0734
     19 H           1.1172    3.4133    0.9156 H       1  LIG1        0.0265
     20 H           0.3146    4.0723   -0.5004 H       1  LIG1        0.0265
     21 H           1.9303    3.3441   -0.6647 H       1  LIG1        0.0265
     22 H           2.8547   -1.0596    0.2810 H       1  LIG1        0.2921
     23 H           0.8666   -3.9130    0.0250 H       1  LIG1        0.0655
     24 H          -1.6130   -3.8563    0.0048 H       1  LIG1        0.0655
@<TRIPOS>BOND
     1     1     2    1
     2     2     3   ar
     3     3     4   ar
     4     4     5    1
     5     5     6    1
     6     6     7    1
     7     6     8    1
     8     8     9    1
     9     3     9    1
    10     9    10    2
    11     4    11   ar
    12    11    12    1
    13    11    13   ar
    14    13    14   ar
    15     2    14   ar
    16     1    15    1
    17     5    16    1
    18     5    17    1
    19     6    18    1
    20     7    19    1
    21     7    20    1
    22     7    21    1
    23    12    22    1
    24    13    23    1
    25    14    24    1
