REMARK  Name = NuBBE_1159
REMARK  2 active torsions:
REMARK  status: ('A' for Active; 'I' for Inactive)
REMARK    1  A    between atoms: C_4  and  C_5
REMARK    2  A    between atoms: N_11  and  C_12
REMARK                            x       y       z     vdW  Elec       q    Type
REMARK                         _______ _______ _______ _____ _____    ______ ____
ROOT
ATOM      1  O   LIG A   1      -3.655   0.439   0.657  0.00  0.00    -0.287 OA
ATOM      2  C   LIG A   1      -2.452   0.513   0.433  0.00  0.00    +0.190 A 
ATOM      3  C   LIG A   1      -1.641  -0.711   0.332  0.00  0.00    +0.077 A 
ATOM      4  C   LIG A   1      -0.326  -0.601   0.094  0.00  0.00    +0.053 A 
ATOM      5  N   LIG A   1       0.352   0.610  -0.068  0.00  0.00    -0.343 N 
ATOM      6  C   LIG A   1       1.795   0.711  -0.313  0.00  0.00    +0.149 C 
ATOM      7  C   LIG A   1      -0.375   1.830   0.004  0.00  0.00    +0.053 A 
ATOM      8  C   LIG A   1      -1.764   1.810   0.252  0.00  0.00    +0.045 A 
ATOM      9  C   LIG A   1      -2.521   2.988   0.333  0.00  0.00    +0.013 A 
ATOM     10  C   LIG A   1      -1.904   4.223   0.164  0.00  0.00    +0.001 A 
ATOM     11  C   LIG A   1      -0.537   4.276  -0.083  0.00  0.00    +0.002 A 
ATOM     12  C   LIG A   1       0.216   3.096  -0.163  0.00  0.00    +0.026 A 
ENDROOT
BRANCH   4  13
ATOM     13  C   LIG A   1       0.408  -1.877   0.000  0.00  0.00    -0.001 A 
ATOM     14  C   LIG A   1       0.940  -2.475   1.151  0.00  0.00    +0.010 A 
ATOM     15  C   LIG A   1       1.625  -3.688   1.060  0.00  0.00    +0.001 A 
ATOM     16  C   LIG A   1       1.779  -4.311  -0.178  0.00  0.00    +0.000 A 
ATOM     17  C   LIG A   1       1.248  -3.726  -1.327  0.00  0.00    +0.001 A 
ATOM     18  C   LIG A   1       0.563  -2.513  -1.240  0.00  0.00    +0.010 A 
ENDBRANCH   4  13
TORSDOF 1
