@<TRIPOS>MOLECULE
NuBBE_1024
 37 38 0 0 0
SMALL
GASTEIGER

@<TRIPOS>ATOM
      1 C          -2.6320   -0.7568   -3.8445 C.3     1  LIG1       -0.0215
      2 C          -1.3966   -0.1339   -3.1793 C.3     1  LIG1        0.1235
      3 C          -0.4237    0.3655   -4.2528 C.3     1  LIG1       -0.0215
      4 O          -0.7605   -1.2028   -2.4517 O.3     1  LIG1       -0.4815
      5 C          -0.2007   -0.9169   -1.2311 C.ar    1  LIG1        0.1324
      6 C          -0.4646    0.2501   -0.4889 C.ar    1  LIG1        0.0584
      7 C           0.2157    0.4447    0.7410 C.ar    1  LIG1        0.1339
      8 O           0.0410    1.5019    1.6048 O.3     1  LIG1       -0.4941
      9 C          -0.0612    2.8134    1.0598 C.3     1  LIG1        0.0788
     10 C           1.1070   -0.5518    1.2221 C.ar    1  LIG1       -0.0044
     11 C           1.9337   -0.3715    2.4842 C.3     1  LIG1       -0.0141
     12 C           1.2960   -0.9457    3.7514 C.3     1  LIG1        0.0489
     13 C           2.1972   -0.7298    4.9395 C.2     1  LIG1        0.3050
     14 O           1.5354   -0.6549    6.1161 O.3     1  LIG1       -0.4806
     15 O           3.4280   -0.6738    4.8897 O.2     1  LIG1       -0.2510
     16 C           1.2819   -1.7360    0.4878 C.ar    1  LIG1       -0.0516
     17 H           1.9436   -2.5204    0.8506 H       1  LIG1        0.0623
     18 C           0.6383   -1.9119   -0.7322 C.ar    1  LIG1       -0.0188
     19 H           0.7942   -2.8236   -1.3037 H       1  LIG1        0.0654
     20 C          -1.4912    1.1364   -1.0370 C.2     1  LIG1       -0.0478
     21 C          -1.8754    0.9942   -2.3081 C.2     1  LIG1       -0.0408
     22 H          -2.3584   -1.6161   -4.4662 H       1  LIG1        0.0271
     23 H          -3.1685   -0.0336   -4.4699 H       1  LIG1        0.0271
     24 H          -3.3302   -1.1332   -3.0860 H       1  LIG1        0.0271
     25 H          -0.1193   -0.4544   -4.9146 H       1  LIG1        0.0271
     26 H           0.4972    0.7542   -3.8025 H       1  LIG1        0.0271
     27 H          -0.8637    1.1572   -4.8695 H       1  LIG1        0.0271
     28 H           0.2404    3.5233    1.8368 H       1  LIG1        0.0660
     29 H          -1.1022    3.0602    0.8440 H       1  LIG1        0.0660
     30 H           0.5808    2.9705    0.1869 H       1  LIG1        0.0660
     31 H           2.1693    0.6901    2.6291 H       1  LIG1        0.0319
     32 H           2.9119   -0.8473    2.3222 H       1  LIG1        0.0319
     33 H           1.1222   -2.0236    3.6534 H       1  LIG1        0.0381
     34 H           0.3310   -0.4560    3.9289 H       1  LIG1        0.0381
     35 H           0.5633   -0.7284    6.0376 H       1  LIG1        0.2951
     36 H          -1.9709    1.8808   -0.4251 H       1  LIG1        0.0624
     37 H          -2.6091    1.6801   -2.7231 H       1  LIG1        0.0611
@<TRIPOS>BOND
     1     1     2    1
     2     2     3    1
     3     2     4    1
     4     4     5    1
     5     5     6   ar
     6     6     7   ar
     7     7     8    1
     8     8     9    1
     9     7    10   ar
    10    10    11    1
    11    11    12    1
    12    12    13    1
    13    13    14    1
    14    13    15    2
    15    10    16   ar
    16    16    17    1
    17    16    18   ar
    18     5    18   ar
    19    18    19    1
    20     6    20    1
    21    20    21    2
    22     2    21    1
    23     1    22    1
    24     1    23    1
    25     1    24    1
    26     3    25    1
    27     3    26    1
    28     3    27    1
    29     9    28    1
    30     9    29    1
    31     9    30    1
    32    11    31    1
    33    11    32    1
    34    12    33    1
    35    12    34    1
    36    14    35    1
    37    20    36    1
    38    21    37    1
