@<TRIPOS>MOLECULE
NuBBE_492
 74 77 0 0 0
SMALL
GASTEIGER

@<TRIPOS>ATOM
      1 O          -3.1058    3.1220    3.0563 O.2     1  LIG1       -0.2448
      2 C          -2.0889    2.4821    3.1177 C.2     1  LIG1        0.3443
      3 O          -0.9718    2.9310    3.7764 O.3     1  LIG1       -0.4418
      4 C           0.0737    2.0506    3.4828 C.3     1  LIG1        0.2000
      5 C          -0.5949    0.9221    2.7725 C.2     1  LIG1        0.0312
      6 C           0.3569   -0.0474    2.2651 C.2     1  LIG1        0.0269
      7 C           0.3858   -1.3559    2.5763 C.2     1  LIG1        0.1006
      8 O           1.3342   -2.2473    2.0811 O.2     1  LIG1       -0.4629
      9 C           2.1670   -1.8123    1.0449 C.2     1  LIG1        0.1279
     10 C           2.8727   -2.8420    0.3151 C.2     1  LIG1       -0.0230
     11 C           3.2638   -4.0258    0.8171 C.2     1  LIG1       -0.0777
     12 C           4.0057   -5.1152    0.0605 C.3     1  LIG1       -0.0256
     13 H           3.6496   -6.0712    0.4679 H       1  LIG1        0.0340
     14 C           3.6768   -5.1223   -1.4371 C.3     1  LIG1       -0.0590
     15 C           5.5225   -5.0207    0.3302 C.3     1  LIG1       -0.0499
     16 C           6.3383   -6.1199   -0.3443 C.3     1  LIG1       -0.0648
     17 C           2.2619   -0.5142    0.7052 C.2     1  LIG1       -0.0100
     18 C           1.5121    0.4542    1.4907 C.2     1  LIG1        0.0108
     19 C           1.8293    1.7661    1.5565 C.2     1  LIG1        0.0956
     20 CL          3.1162    2.4899    0.6540 Cl      1  LIG1       -0.0791
     21 C          -1.8731    1.1738    2.5122 C.2     1  LIG1        0.1097
     22 C          -2.8641    0.4342    1.6855 C.2     1  LIG1        0.1767
     23 C          -4.0692    1.1677    1.0761 C.3     1  LIG1        0.0563
     24 H          -3.7982    2.2171    0.9578 H       1  LIG1        0.0414
     25 C          -5.2700    1.1254    2.0353 C.3     1  LIG1       -0.0519
     26 C          -4.4603    0.6155   -0.3243 C.3     1  LIG1        0.1099
     27 H          -4.7413   -0.4376   -0.1950 H       1  LIG1        0.0738
     28 O          -3.3976    0.5903   -1.3358 O.3     1  LIG1       -0.4589
     29 C          -2.5538    1.6395   -1.5298 C.2     1  LIG1        0.3411
     30 C          -1.5284    1.3635   -2.6662 C.3     1  LIG1        0.1795
     31 O          -0.3359    0.7354   -2.1737 O.3     1  LIG1       -0.3639
     32 C          -0.4444   -0.6687   -2.0038 C.3     1  LIG1        0.0380
     33 H          -2.0001    0.7214   -3.4235 H       1  LIG1        0.0764
     34 C          -1.1052    2.6655   -3.3648 C.ar    1  LIG1       -0.0082
     35 C          -0.0233    3.4334   -2.8930 C.ar    1  LIG1       -0.0556
     36 C           0.3017    4.6601   -3.4859 C.ar    1  LIG1       -0.0614
     37 C          -0.4358    5.1333   -4.5691 C.ar    1  LIG1       -0.0617
     38 C          -1.4842    4.3702   -5.0752 C.ar    1  LIG1       -0.0614
     39 C          -1.8205    3.1501   -4.4748 C.ar    1  LIG1       -0.0556
     40 O          -2.5657    2.6647   -0.8396 O.2     1  LIG1       -0.2475
     41 C          -5.6921    1.3223   -0.9119 C.3     1  LIG1       -0.0270
     42 O          -2.7171   -0.7910    1.5444 O.2     1  LIG1       -0.2914
     43 C           0.7414    1.6437    4.8019 C.3     1  LIG1       -0.0130
     44 C           1.0732    2.6935    2.4929 C.2     1  LIG1        0.2224
     45 O           1.2514    3.9051    2.4456 O.2     1  LIG1       -0.2864
     46 H          -0.2848   -1.8663    3.2556 H       1  LIG1        0.1036
     47 H           3.1122   -2.5865   -0.7148 H       1  LIG1        0.0651
     48 H           3.0487   -4.2496    1.8614 H       1  LIG1        0.0576
     49 H           2.5963   -5.2206   -1.5911 H       1  LIG1        0.0235
     50 H           4.1481   -5.9645   -1.9518 H       1  LIG1        0.0235
     51 H           4.0144   -4.2056   -1.9324 H       1  LIG1        0.0235
     52 H           5.7046   -5.0757    1.4119 H       1  LIG1        0.0268
     53 H           5.9051   -4.0470   -0.0007 H       1  LIG1        0.0268
     54 H           6.0036   -7.1115   -0.0237 H       1  LIG1        0.0230
     55 H           7.3979   -6.0193   -0.0877 H       1  LIG1        0.0230
     56 H           6.2686   -6.0665   -1.4348 H       1  LIG1        0.0230
     57 H           2.8914   -0.1867   -0.1158 H       1  LIG1        0.0661
     58 H          -4.9791    1.2869    3.0766 H       1  LIG1        0.0238
     59 H          -5.8073    0.1704    1.9881 H       1  LIG1        0.0238
     60 H          -5.9771    1.9227    1.7755 H       1  LIG1        0.0238
     61 H          -0.5906   -1.1695   -2.9654 H       1  LIG1        0.0524
     62 H          -1.2469   -0.9213   -1.3078 H       1  LIG1        0.0524
     63 H           0.4982   -1.0264   -1.5812 H       1  LIG1        0.0524
     64 H           0.5730    3.0769   -2.0524 H       1  LIG1        0.0621
     65 H           1.1284    5.2534   -3.1015 H       1  LIG1        0.0618
     66 H          -0.1927    6.0927   -5.0211 H       1  LIG1        0.0618
     67 H          -2.0422    4.7299   -5.9371 H       1  LIG1        0.0618
     68 H          -2.6495    2.5842   -4.8912 H       1  LIG1        0.0621
     69 H          -5.9412    0.9296   -1.9034 H       1  LIG1        0.0265
     70 H          -5.5149    2.3971   -1.0204 H       1  LIG1        0.0265
     71 H          -6.5792    1.1857   -0.2819 H       1  LIG1        0.0265
     72 H           0.0246    1.1416    5.4652 H       1  LIG1        0.0276
     73 H           1.1026    2.5232    5.3469 H       1  LIG1        0.0276
     74 H           1.5953    0.9702    4.6609 H       1  LIG1        0.0276
@<TRIPOS>BOND
     1     1     2    2
     2     2     3    1
     3     3     4    1
     4     4     5    1
     5     5     6    1
     6     6     7    2
     7     7     8    1
     8     8     9    1
     9     9    10    1
    10    10    11    2
    11    11    12    1
    12    12    13    1
    13    12    14    1
    14    12    15    1
    15    15    16    1
    16     9    17    2
    17    17    18    1
    18     6    18    1
    19    18    19    2
    20    19    20    1
    21     5    21    2
    22     2    21    1
    23    21    22    1
    24    23    25    1
    25    26    28    1
    26    28    29    1
    27    29    30    1
    28    30    31    1
    29    31    32    1
    30    30    33    1
    31    30    34    1
    32    34    35   ar
    33    35    36   ar
    34    36    37   ar
    35    37    38   ar
    36    38    39   ar
    37    34    39   ar
    38    29    40    2
    39    26    41    1
    40    22    42    2
    41     4    43    1
    42     4    44    1
    43    19    44    1
    44    44    45    2
    45    23    24    1
    46    23    22    1
    47    26    27    1
    48    26    23    1
    49     7    46    1
    50    10    47    1
    51    11    48    1
    52    14    49    1
    53    14    50    1
    54    14    51    1
    55    15    52    1
    56    15    53    1
    57    16    54    1
    58    16    55    1
    59    16    56    1
    60    17    57    1
    61    25    58    1
    62    25    59    1
    63    25    60    1
    64    32    61    1
    65    32    62    1
    66    32    63    1
    67    35    64    1
    68    36    65    1
    69    37    66    1
    70    38    67    1
    71    39    68    1
    72    41    69    1
    73    41    70    1
    74    41    71    1
    75    43    72    1
    76    43    73    1
    77    43    74    1
