@<TRIPOS>MOLECULE
NuBBE_18
 42 43 0 0 0
SMALL
GASTEIGER

@<TRIPOS>ATOM
      1 O          -1.0001   -1.2796    0.0113 O.2     1  LIG1       -0.2702
      2 C          -0.9820   -1.1627    1.2348 C.2     1  LIG1        0.2459
      3 N          -2.1532   -1.0454    2.0018 N.am    1  LIG1       -0.2348
      4 C          -3.4184   -1.0689    1.2612 C.3     1  LIG1        0.0263
      5 C          -4.4953   -1.8955    1.9579 C.3     1  LIG1       -0.0179
      6 C          -4.5644   -1.5481    3.4076 C.2     1  LIG1       -0.0776
      7 C          -3.5275   -0.9834    4.0379 C.2     1  LIG1       -0.0031
      8 C          -2.2144   -0.7589    3.3663 C.2     1  LIG1        0.2456
      9 O          -1.2824   -0.3494    4.0659 O.2     1  LIG1       -0.2702
     10 C           0.3220   -1.2203    1.9662 C.2     1  LIG1        0.0013
     11 C           1.5125   -0.7851    1.5168 C.2     1  LIG1       -0.0494
     12 C           1.7796   -0.1338    0.2330 C.ar    1  LIG1       -0.0177
     13 C           2.1504   -0.9087   -0.8600 C.ar    1  LIG1       -0.0089
     14 C           2.3579   -0.3264   -2.1157 C.ar    1  LIG1        0.1657
     15 O           2.7718   -1.0580   -3.2080 O.3     1  LIG1       -0.4913
     16 C           2.4337   -2.4417   -3.1878 C.3     1  LIG1        0.0790
     17 C           2.1872    1.0668   -2.2891 C.ar    1  LIG1        0.2035
     18 O           2.2903    1.5019   -3.5908 O.3     1  LIG1       -0.4885
     19 C           2.7466    2.8259   -3.8244 C.3     1  LIG1        0.0791
     20 C           1.8191    1.8533   -1.1779 C.ar    1  LIG1        0.1657
     21 O           1.6116    3.2019   -1.3439 O.3     1  LIG1       -0.4913
     22 C           0.6280    3.7726   -0.4812 C.3     1  LIG1        0.0790
     23 C           1.6662    1.2463    0.0825 C.ar    1  LIG1       -0.0089
     24 H          -3.2876   -1.4455    0.2418 H       1  LIG1        0.0473
     25 H          -3.7546   -0.0263    1.1754 H       1  LIG1        0.0473
     26 H          -4.2833   -2.9660    1.8583 H       1  LIG1        0.0323
     27 H          -5.4642   -1.7036    1.4834 H       1  LIG1        0.0323
     28 H          -5.4807   -1.7653    3.9487 H       1  LIG1        0.0574
     29 H          -3.5680   -0.7359    5.0944 H       1  LIG1        0.0666
     30 H           0.2944   -1.7074    2.9343 H       1  LIG1        0.0670
     31 H           2.3929   -0.9276    2.1394 H       1  LIG1        0.0625
     32 H           2.2672   -1.9734   -0.7006 H       1  LIG1        0.0661
     33 H           1.3460   -2.5680   -3.1793 H       1  LIG1        0.0660
     34 H           2.8973   -2.9713   -2.3493 H       1  LIG1        0.0660
     35 H           2.8282   -2.9053   -4.0960 H       1  LIG1        0.0660
     36 H           3.0762    2.8770   -4.8686 H       1  LIG1        0.0660
     37 H           3.6056    3.0815   -3.1967 H       1  LIG1        0.0660
     38 H           1.9357    3.5527   -3.7180 H       1  LIG1        0.0660
     39 H           0.3968    4.7774   -0.8453 H       1  LIG1        0.0660
     40 H           1.0124    3.8798    0.5385 H       1  LIG1        0.0660
     41 H          -0.2997    3.1885   -0.4907 H       1  LIG1        0.0660
     42 H           1.4461    1.8359    0.9661 H       1  LIG1        0.0661
@<TRIPOS>BOND
     1     1     2    2
     2     2     3   am
     3     3     4    1
     4     4     5    1
     5     5     6    1
     6     6     7    2
     7     7     8    1
     8     3     8   am
     9     8     9    2
    10     2    10    1
    11    10    11    2
    12    11    12    1
    13    12    13   ar
    14    13    14   ar
    15    14    15    1
    16    15    16    1
    17    14    17   ar
    18    17    18    1
    19    18    19    1
    20    17    20   ar
    21    20    21    1
    22    21    22    1
    23    20    23   ar
    24    12    23   ar
    25     4    24    1
    26     4    25    1
    27     5    26    1
    28     5    27    1
    29     6    28    1
    30     7    29    1
    31    10    30    1
    32    11    31    1
    33    13    32    1
    34    16    33    1
    35    16    34    1
    36    16    35    1
    37    19    36    1
    38    19    37    1
    39    19    38    1
    40    22    39    1
    41    22    40    1
    42    22    41    1
    43    23    42    1
