REMARK  Name = NuBBE_2286
REMARK  6 active torsions:
REMARK  status: ('A' for Active; 'I' for Inactive)
REMARK    1  A    between atoms: C_5  and  C_6
REMARK    2  A    between atoms: C_7  and  C_11
REMARK    3  A    between atoms: C_11  and  O_13
REMARK    4  A    between atoms: O_13  and  C_14
REMARK    5  A    between atoms: C_17  and  C_18
REMARK    6  A    between atoms: C_20  and  C_22
REMARK                            x       y       z     vdW  Elec       q    Type
REMARK                         _______ _______ _______ _____ _____    ______ ____
ROOT
ATOM      1  O   LIG A   1      -0.773   1.489  -0.908  0.00  0.00    -0.250 OA
ATOM      2  C   LIG A   1       0.289   0.885  -0.880  0.00  0.00    +0.315 C 
ATOM      3  C   LIG A   1       0.842   0.092   0.296  0.00  0.00    +0.078 C 
ATOM      4  C   LIG A   1       0.124  -1.293   0.582  0.00  0.00    +0.017 C 
ATOM      5  C   LIG A   1      -1.295  -1.202   1.274  0.00  0.00    +0.003 C 
ATOM      6  C   LIG A   1      -1.693  -2.586   1.865  0.00  0.00    +0.016 C 
ATOM      7  C   LIG A   1      -2.367  -0.872   0.228  0.00  0.00    +0.039 C 
ATOM      8  C   LIG A   1      -2.209  -1.222  -1.070  0.00  0.00    -0.016 C 
ATOM      9  C   LIG A   1      -1.006  -1.895  -1.649  0.00  0.00    +0.028 C 
ATOM     10  C   LIG A   1       0.061  -2.258  -0.624  0.00  0.00    +0.009 C 
ATOM     11  C   LIG A   1      -1.159  -0.257   2.497  0.00  0.00    +0.012 C 
ATOM     12  C   LIG A   1      -0.576   1.107   2.186  0.00  0.00    +0.005 C 
ATOM     13  C   LIG A   1       0.828   0.989   1.577  0.00  0.00    +0.003 C 
ATOM     14  C   LIG A   1       1.396   2.408   1.391  0.00  0.00    +0.009 C 
ATOM     15  C   LIG A   1       2.294  -0.156  -0.160  0.00  0.00    +0.068 C 
ATOM     16  C   LIG A   1       2.314   0.126  -1.651  0.00  0.00    +0.211 C 
ATOM     17  O   LIG A   1       1.152   0.903  -1.927  0.00  0.00    -0.456 OA
ENDROOT
BRANCH  16  18
ATOM     18  C   LIG A   1       3.555   0.824  -2.098  0.00  0.00    +0.030 A 
ATOM     19  C   LIG A   1       3.789   2.229  -2.177  0.00  0.00    +0.048 A 
ATOM     20  C   LIG A   1       5.072   2.389  -2.641  0.00  0.00    +0.195 A 
ATOM     21  O   LIG A   1       5.651   1.181  -2.854  0.00  0.00    -0.471 OA
ATOM     22  C   LIG A   1       4.731   0.239  -2.528  0.00  0.00    +0.202 A 
ENDBRANCH  16  18
BRANCH   7  23
ATOM     23  C   LIG A   1      -3.674  -0.266   0.643  0.00  0.00    +0.335 C 
ATOM     24  O   LIG A   1      -4.081  -0.240   1.795  0.00  0.00    -0.245 OA
BRANCH  23  25
ATOM     25  O   LIG A   1      -4.361   0.203  -0.431  0.00  0.00    -0.465 OA
ATOM     26  C   LIG A   1      -5.669   0.696  -0.144  0.00  0.00    +0.280 C 
ENDBRANCH  23  25
ENDBRANCH   7  23
TORSDOF 3
