REMARK  Name = NuBBE_1995
REMARK  8 active torsions:
REMARK  status: ('A' for Active; 'I' for Inactive)
REMARK    1  A    between atoms: O_1  and  C_2
REMARK    2  A    between atoms: C_3  and  C_4
REMARK    3  A    between atoms: C_5  and  O_6
REMARK    4  A    between atoms: C_10  and  C_12
REMARK    5  A    between atoms: C_15  and  O_16
REMARK    6  A    between atoms: C_17  and  O_18
REMARK    7  A    between atoms: O_18  and  C_19
REMARK    8  A    between atoms: C_24  and  C_25
REMARK                            x       y       z     vdW  Elec       q    Type
REMARK                         _______ _______ _______ _____ _____    ______ ____
ROOT
ATOM      1  C   LIG A   1      -3.062   0.081  -1.400  0.00  0.00    +0.130 A 
ATOM      2  C   LIG A   1      -2.514  -1.123  -1.876  0.00  0.00    +0.034 A 
ATOM      3  C   LIG A   1      -3.333  -2.382  -1.984  0.00  0.00    +0.051 C 
ATOM      4  C   LIG A   1      -1.139  -1.146  -2.177  0.00  0.00    +0.137 A 
ATOM      5  C   LIG A   1      -0.328  -0.021  -1.981  0.00  0.00    +0.101 A 
ATOM      6  C   LIG A   1       1.122   0.007  -2.314  0.00  0.00    +0.174 C 
ATOM      7  C   LIG A   1       1.870   1.262  -1.960  0.00  0.00    +0.129 C 
ATOM      8  C   LIG A   1       1.236   1.887  -0.725  0.00  0.00    +0.211 C 
ATOM      9  O   LIG A   1      -0.130   2.221  -1.049  0.00  0.00    -0.483 OA
ATOM     10  O   LIG A   1       1.691  -0.907  -2.908  0.00  0.00    -0.292 OA
ATOM     11  C   LIG A   1      -0.891   1.138  -1.433  0.00  0.00    +0.142 A 
ATOM     12  C   LIG A   1      -2.273   1.226  -1.202  0.00  0.00    +0.034 A 
ATOM     13  C   LIG A   1      -2.890   2.494  -0.670  0.00  0.00    +0.051 C 
ENDROOT
BRANCH   8  14
ATOM     14  C   LIG A   1       1.371   1.121   0.596  0.00  0.00    -0.003 A 
ATOM     15  C   LIG A   1       0.402   1.251   1.601  0.00  0.00    +0.011 A 
ATOM     16  C   LIG A   1       0.519   0.560   2.810  0.00  0.00    +0.049 A 
ATOM     17  C   LIG A   1       1.626  -0.256   3.052  0.00  0.00    +0.159 A 
ATOM     18  C   LIG A   1       2.626  -0.383   2.086  0.00  0.00    +0.162 A 
ATOM     19  C   LIG A   1       2.487   0.311   0.872  0.00  0.00    +0.056 A 
BRANCH  17  20
ATOM     20  O   LIG A   1       1.697  -0.909   4.250  0.00  0.00    -0.503 OA
ATOM     21  H   LIG A   1       0.915  -0.693   4.782  0.00  0.00    +0.292 HD
ENDBRANCH  17  20
BRANCH  18  22
ATOM     22  O   LIG A   1       3.780  -1.119   2.149  0.00  0.00    -0.491 OA
ATOM     23  C   LIG A   1       4.050  -1.829   3.349  0.00  0.00    +0.277 C 
ENDBRANCH  18  22
ENDBRANCH   8  14
BRANCH   1  24
ATOM     24  O   LIG A   1      -4.388   0.191  -1.071  0.00  0.00    -0.506 OA
ATOM     25  H   LIG A   1      -4.893  -0.536  -1.464  0.00  0.00    +0.292 HD
ENDBRANCH   1  24
BRANCH   4  26
ATOM     26  O   LIG A   1      -0.600  -2.306  -2.659  0.00  0.00    -0.506 OA
ATOM     27  H   LIG A   1      -0.634  -2.965  -1.945  0.00  0.00    +0.292 HD
ENDBRANCH   4  26
TORSDOF 5
