REMARK  Name = NuBBE_1803
REMARK  15 active torsions:
REMARK  status: ('A' for Active; 'I' for Inactive)
REMARK    1  A    between atoms: C_4  and  C_5
REMARK    2  A    between atoms: C_5  and  C_6
REMARK    3  A    between atoms: C_6  and  O_7
REMARK    4  A    between atoms: C_6  and  C_8
REMARK    5  A    between atoms: C_8  and  O_9
REMARK    6  A    between atoms: O_9  and  C_10
REMARK    7  A    between atoms: C_12  and  C_13
REMARK    8  A    between atoms: C_13  and  C_14
REMARK    9  A    between atoms: C_14  and  C_15
REMARK   10  A    between atoms: C_15  and  C_16
REMARK   11  A    between atoms: C_16  and  C_17
REMARK   12  A    between atoms: C_17  and  C_18
REMARK   13  A    between atoms: C_18  and  C_19
REMARK   14  A    between atoms: C_19  and  C_20
REMARK   15  A    between atoms: C_20  and  C_21
REMARK                            x       y       z     vdW  Elec       q    Type
REMARK                         _______ _______ _______ _____ _____    ______ ____
ROOT
ATOM      1  O   LIG A   1      -1.216   5.297   1.267  0.00  0.00    -0.251 OA
ATOM      2  C   LIG A   1      -1.130   4.098   1.104  0.00  0.00    +0.311 C 
ATOM      3  O   LIG A   1      -1.401   3.465  -0.083  0.00  0.00    -0.461 OA
ATOM      4  C   LIG A   1      -0.766   3.086   2.167  0.00  0.00    +0.104 C 
ATOM      5  C   LIG A   1      -0.385   1.906   1.298  0.00  0.00    +0.059 C 
ATOM      6  C   LIG A   1      -1.321   2.054   0.117  0.00  0.00    +0.177 C 
ENDROOT
BRANCH   4   7
ATOM      7  C   LIG A   1      -1.976   2.849   3.083  0.00  0.00    +0.048 C 
BRANCH   7   8
ATOM      8  C   LIG A   1      -1.725   1.836   4.204  0.00  0.00    +0.141 C 
BRANCH   8   9
ATOM      9  O   LIG A   1      -0.666   2.305   5.039  0.00  0.00    -0.390 OA
ATOM     10  H   LIG A   1      -0.717   1.757   5.849  0.00  0.00    +0.210 HD
ENDBRANCH   8   9
BRANCH   8  11
ATOM     11  C   LIG A   1      -2.982   1.620   5.060  0.00  0.00    +0.190 C 
BRANCH  11  12
ATOM     12  O   LIG A   1      -2.659   0.669   6.085  0.00  0.00    -0.380 OA
ATOM     13  C   LIG A   1      -3.780   0.410   6.924  0.00  0.00    +0.194 C 
ENDBRANCH  11  12
ENDBRANCH   8  11
ENDBRANCH   7   8
ENDBRANCH   4   7
BRANCH   6  14
ATOM     14  C   LIG A   1      -0.818   1.355  -1.139  0.00  0.00    +0.045 C 
BRANCH  14  15
ATOM     15  C   LIG A   1      -0.657  -0.148  -0.908  0.00  0.00    +0.003 C 
BRANCH  15  16
ATOM     16  C   LIG A   1      -0.141  -0.846  -2.154  0.00  0.00    +0.000 C 
BRANCH  16  17
ATOM     17  C   LIG A   1       0.053  -2.346  -1.915  0.00  0.00    -0.000 C 
BRANCH  17  18
ATOM     18  C   LIG A   1       0.574  -3.060  -3.164  0.00  0.00    +0.000 C 
BRANCH  18  19
ATOM     19  C   LIG A   1       1.936  -2.512  -3.586  0.00  0.00    +0.000 C 
BRANCH  19  20
ATOM     20  C   LIG A   1       2.482  -3.205  -4.828  0.00  0.00    +0.004 C 
BRANCH  20  21
ATOM     21  C   LIG A   1       3.835  -2.628  -5.260  0.00  0.00    +0.026 C 
BRANCH  21  22
ATOM     22  C   LIG A   1       4.893  -2.768  -4.201  0.00  0.00    -0.035 C 
ATOM     23  C   LIG A   1       5.532  -1.732  -3.643  0.00  0.00    +0.004 C 
ENDBRANCH  21  22
ENDBRANCH  20  21
ENDBRANCH  19  20
ENDBRANCH  18  19
ENDBRANCH  17  18
ENDBRANCH  16  17
ENDBRANCH  15  16
ENDBRANCH  14  15
ENDBRANCH   6  14
TORSDOF 14
