@<TRIPOS>MOLECULE
NuBBE_2354
 52 54 0 0 0
SMALL
GASTEIGER

@<TRIPOS>ATOM
      1 C          -1.7343   -0.3624    0.9119 C.3     1  LIG1       -0.0587
      2 C          -0.5390   -0.9003    0.0819 C.3     1  LIG1       -0.0215
      3 C           0.6727   -1.3293    0.9900 C.3     1  LIG1       -0.0162
      4 H           1.4949   -1.5165    0.2779 H       1  LIG1        0.0320
      5 C           1.1363   -0.1318    1.8531 C.3     1  LIG1       -0.0301
      6 C           1.2807    1.1343    1.0598 C.2     1  LIG1       -0.0841
      7 C           0.7956    1.3084   -0.1829 C.2     1  LIG1       -0.0690
      8 C          -0.0132    0.2346   -0.9027 C.3     1  LIG1       -0.0142
      9 C          -1.1367    0.8300   -1.7875 C.3     1  LIG1       -0.0452
     10 C          -0.7127    2.0597   -2.5920 C.3     1  LIG1       -0.0433
     11 C          -0.0918    3.1669   -1.7122 C.3     1  LIG1       -0.0106
     12 C           0.2787    4.3374   -2.6235 C.2     1  LIG1       -0.0849
     13 C           1.4596    4.5682   -3.2142 C.2     1  LIG1       -0.1021
     14 C          -1.1203    3.6967   -0.6844 C.3     1  LIG1       -0.0558
     15 C           1.1219    2.5617   -0.9660 C.3     1  LIG1       -0.0226
     16 C           0.5312   -2.6813    1.7905 C.3     1  LIG1        0.0684
     17 C          -0.3066   -2.5836    3.0817 C.3     1  LIG1       -0.0491
     18 C           1.9349   -3.1746    2.1926 C.2     1  LIG1        0.3110
     19 O           1.9196   -4.3328    2.8886 O.3     1  LIG1       -0.4802
     20 O           3.0046   -2.6605    1.9281 O.2     1  LIG1       -0.2504
     21 C          -0.0481   -3.7800    0.8644 C.3     1  LIG1       -0.0372
     22 C          -1.2870   -3.3526    0.0899 C.3     1  LIG1       -0.0515
     23 C          -1.0134   -2.1141   -0.7526 C.3     1  LIG1       -0.0468
     24 H          -1.5241    0.6116    1.3642 H       1  LIG1        0.0235
     25 H          -2.0278   -1.0303    1.7172 H       1  LIG1        0.0235
     26 H          -2.6311   -0.2458    0.2943 H       1  LIG1        0.0235
     27 H           2.1076   -0.3536    2.3078 H       1  LIG1        0.0311
     28 H           0.4415    0.0695    2.6738 H       1  LIG1        0.0311
     29 H           1.8635    1.9230    1.5316 H       1  LIG1        0.0572
     30 H           0.7007   -0.2360   -1.5968 H       1  LIG1        0.0351
     31 H          -2.0084    1.1118   -1.1913 H       1  LIG1        0.0271
     32 H          -1.4853    0.0669   -2.4936 H       1  LIG1        0.0271
     33 H          -1.5867    2.4452   -3.1337 H       1  LIG1        0.0274
     34 H           0.0085    1.7441   -3.3587 H       1  LIG1        0.0274
     35 H          -0.5201    5.0527   -2.8243 H       1  LIG1        0.0572
     36 H           2.3095    3.9030   -3.1109 H       1  LIG1        0.0532
     37 H           1.5959    5.4384   -3.8496 H       1  LIG1        0.0532
     38 H          -2.0446    4.0193   -1.1792 H       1  LIG1        0.0238
     39 H          -0.7220    4.5567   -0.1331 H       1  LIG1        0.0238
     40 H          -1.4016    2.9438    0.0589 H       1  LIG1        0.0238
     41 H           1.5660    3.3246   -0.3121 H       1  LIG1        0.0318
     42 H           1.9031    2.2767   -1.6824 H       1  LIG1        0.0318
     43 H           0.0092   -1.7532    3.7187 H       1  LIG1        0.0240
     44 H          -0.2094   -3.4859    3.6973 H       1  LIG1        0.0240
     45 H          -1.3746   -2.4862    2.8873 H       1  LIG1        0.0240
     46 H           2.8683   -4.5194    3.0506 H       1  LIG1        0.2951
     47 H          -0.2901   -4.6801    1.4449 H       1  LIG1        0.0276
     48 H           0.7195   -4.0917    0.1418 H       1  LIG1        0.0276
     49 H          -2.1266   -3.1787    0.7707 H       1  LIG1        0.0266
     50 H          -1.5938   -4.1719   -0.5714 H       1  LIG1        0.0266
     51 H          -1.9232   -1.8664   -1.3121 H       1  LIG1        0.0271
     52 H          -0.2515   -2.3664   -1.5022 H       1  LIG1        0.0271
@<TRIPOS>BOND
     1     2     3    1
     2     3     5    1
     3     5     6    1
     4     6     7    2
     5     7     8    1
     6     2     8    1
     7     8     9    1
     8     9    10    1
     9    10    11    1
    10    12    13    2
    11    11    15    1
    12     7    15    1
    13     3    16    1
    14    18    19    1
    15    18    20    2
    16    16    21    1
    17    21    22    1
    18    22    23    1
    19     2    23    1
    20     1     2    1
    21     3     4    1
    22    11    14    1
    23    11    12    1
    24    16    18    1
    25    16    17    1
    26     1    24    1
    27     1    25    1
    28     1    26    1
    29     5    27    1
    30     5    28    1
    31     6    29    1
    32     8    30    1
    33     9    31    1
    34     9    32    1
    35    10    33    1
    36    10    34    1
    37    12    35    1
    38    13    36    1
    39    13    37    1
    40    14    38    1
    41    14    39    1
    42    14    40    1
    43    15    41    1
    44    15    42    1
    45    17    43    1
    46    17    44    1
    47    17    45    1
    48    19    46    1
    49    21    47    1
    50    21    48    1
    51    22    49    1
    52    22    50    1
    53    23    51    1
    54    23    52    1
