@<TRIPOS>MOLECULE
NuBBE_116
 54 56 0 0 0
SMALL
GASTEIGER

@<TRIPOS>ATOM
      1 O           0.8683   -0.5248   -4.6243 O.2     1  LIG1       -0.2452
      2 C           1.4645   -0.0497   -3.6749 C.2     1  LIG1        0.3382
      3 C           0.8154    0.4223   -2.4279 C.2     1  LIG1        0.0768
      4 C          -0.4220   -0.0241   -2.1756 C.2     1  LIG1        0.0982
      5 O          -1.1538    0.2771   -1.0549 O.2     1  LIG1       -0.4701
      6 C          -0.3610    0.7166    0.0572 C.3     1  LIG1        0.2095
      7 H          -1.0431    1.1326    0.8077 H       1  LIG1        0.1060
      8 C           0.6386    1.8134   -0.3232 C.3     1  LIG1        0.0596
      9 C           1.5226    1.3933   -1.5157 C.3     1  LIG1        0.0310
     10 C           1.8773    2.7245   -2.2250 C.3     1  LIG1        0.0655
     11 H           1.5054    2.7508   -3.2559 H       1  LIG1        0.0600
     12 C           1.2371    3.8451   -1.4119 C.3     1  LIG1        0.0029
     13 C           0.0513    3.1877   -0.7062 C.3     1  LIG1        0.0748
     14 O          -0.2342    3.9442    0.4706 O.3     1  LIG1       -0.3883
     15 C          -1.1970    3.2094   -1.5894 C.3     1  LIG1       -0.0355
     16 O           3.2873    2.9062   -2.2717 O.3     1  LIG1       -0.3911
     17 H           2.4244    0.9005   -1.1284 H       1  LIG1        0.0383
     18 H           1.3044    1.9654    0.5411 H       1  LIG1        0.0396
     19 O           0.3612   -0.3747    0.6452 O.3     1  LIG1       -0.3095
     20 C          -0.5060   -1.4044    1.1403 C.3     1  LIG1        0.1918
     21 H          -1.1174   -1.7883    0.3136 H       1  LIG1        0.0939
     22 O          -1.3488   -0.8348    2.1447 O.3     1  LIG1       -0.3404
     23 C          -2.1891   -1.7839    2.7953 C.3     1  LIG1        0.1130
     24 H          -2.8089   -2.3114    2.0568 H       1  LIG1        0.0647
     25 C          -1.3226   -2.7915    3.5609 C.3     1  LIG1        0.1119
     26 H          -0.6873   -2.2810    4.2953 H       1  LIG1        0.0647
     27 C          -0.4409   -3.5246    2.5514 C.3     1  LIG1        0.1141
     28 H          -1.0556   -4.1699    1.9104 H       1  LIG1        0.0648
     29 C           0.3743   -2.5512    1.6972 C.3     1  LIG1        0.1342
     30 H           1.2001   -2.1352    2.2867 H       1  LIG1        0.0671
     31 O           0.9823   -3.3012    0.6288 O.3     1  LIG1       -0.3841
     32 O           0.4516   -4.4170    3.2405 O.3     1  LIG1       -0.3864
     33 O          -2.0902   -3.7724    4.2649 O.3     1  LIG1       -0.3865
     34 C          -3.1279   -1.0113    3.7279 C.3     1  LIG1        0.0730
     35 O          -3.9993   -1.8899    4.4331 O.3     1  LIG1       -0.3924
     36 O           2.7986    0.1600   -3.5911 O.3     1  LIG1       -0.4646
     37 C           3.5285   -0.1481   -4.7750 C.3     1  LIG1        0.0820
     38 H          -0.9958   -0.6601   -2.8403 H       1  LIG1        0.1029
     39 H           0.9302    4.6754   -2.0594 H       1  LIG1        0.0318
     40 H           1.9464    4.2743   -0.6925 H       1  LIG1        0.0318
     41 H          -1.0662    3.6233    0.8582 H       1  LIG1        0.2102
     42 H          -1.0440    2.7249   -2.5570 H       1  LIG1        0.0257
     43 H          -1.5057    4.2436   -1.7844 H       1  LIG1        0.0257
     44 H          -2.0473    2.7384   -1.0851 H       1  LIG1        0.0257
     45 H           3.4639    3.7783   -2.6643 H       1  LIG1        0.2098
     46 H           1.4284   -4.0543    1.0649 H       1  LIG1        0.2101
     47 H          -0.1031   -4.8528    3.9206 H       1  LIG1        0.2100
     48 H          -2.7750   -3.2818    4.7717 H       1  LIG1        0.2100
     49 H          -3.7262   -0.2869    3.1632 H       1  LIG1        0.0584
     50 H          -2.5498   -0.4373    4.4601 H       1  LIG1        0.0584
     51 H          -4.7480   -2.0908    3.8406 H       1  LIG1        0.2095
     52 H           3.0261    0.2417   -5.6657 H       1  LIG1        0.0661
     53 H           3.6707   -1.2293   -4.8505 H       1  LIG1        0.0661
     54 H           4.5071    0.3337   -4.6986 H       1  LIG1        0.0661
@<TRIPOS>BOND
     1     1     2    2
     2     3     4    2
     3     4     5    1
     4     5     6    1
     5     6     8    1
     6     8     9    1
     7     9    10    1
     8    10    12    1
     9    12    13    1
    10     3     9    1
    11    13     8    1
    12    20    22    1
    13    22    23    1
    14    23    24    1
    15    23    25    1
    16    25    27    1
    17    27    28    1
    18    27    29    1
    19    20    29    1
    20    27    32    1
    21    23    34    1
    22    34    35    1
    23     2    36    1
    24    36    37    1
    25     2     3    1
    26     6     7    1
    27     6    19    1
    28     8    18    1
    29     9    17    1
    30    13    14    1
    31    13    15    1
    32    10    16    1
    33    10    11    1
    34    20    21    1
    35    20    19    1
    36    25    33    1
    37    25    26    1
    38    29    31    1
    39    29    30    1
    40     4    38    1
    41    12    39    1
    42    12    40    1
    43    14    41    1
    44    15    42    1
    45    15    43    1
    46    15    44    1
    47    16    45    1
    48    31    46    1
    49    32    47    1
    50    33    48    1
    51    34    49    1
    52    34    50    1
    53    35    51    1
    54    37    52    1
    55    37    53    1
    56    37    54    1
