@<TRIPOS>MOLECULE
NuBBE_2005
 41 43 0 0 0
SMALL
GASTEIGER

@<TRIPOS>ATOM
      1 C          -2.9663   -1.2665   -1.0273 C.3     1  LIG1       -0.0327
      2 C          -1.5192   -1.2773   -1.4490 C.ar    1  LIG1        0.0337
      3 C          -0.7999   -0.0765   -1.5957 C.ar    1  LIG1        0.1417
      4 C           0.5210   -0.1013   -2.0485 C.ar    1  LIG1        0.1009
      5 C           1.2032    1.1790   -2.3193 C.2     1  LIG1        0.1740
      6 C           0.4155    2.4351   -2.0707 C.3     1  LIG1        0.0520
      7 C          -0.5480    2.1823   -0.9186 C.3     1  LIG1        0.1322
      8 H          -1.1905    3.0703   -0.8485 H       1  LIG1        0.0789
      9 O          -1.4362    1.0956   -1.2589 O.3     1  LIG1       -0.4826
     10 C           0.0659    2.0137    0.4729 C.ar    1  LIG1       -0.0067
     11 C          -0.7753    1.7774    1.5705 C.ar    1  LIG1       -0.0516
     12 C          -0.2539    1.6299    2.8616 C.ar    1  LIG1       -0.0196
     13 C           1.1196    1.7112    3.0858 C.ar    1  LIG1        0.1201
     14 C           1.9650    1.9552    2.0073 C.ar    1  LIG1       -0.0196
     15 C           1.4456    2.1135    0.7190 C.ar    1  LIG1       -0.0516
     16 O           1.7422    1.5733    4.2961 O.3     1  LIG1       -0.4951
     17 C           0.8914    1.3226    5.4086 C.3     1  LIG1        0.0788
     18 O           2.3493    1.1896   -2.7502 O.2     1  LIG1       -0.2917
     19 C           1.1719   -1.3195   -2.2372 C.ar    1  LIG1        0.1343
     20 C           0.4991   -2.5162   -2.0118 C.ar    1  LIG1        0.0227
     21 C          -0.8466   -2.5063   -1.6298 C.ar    1  LIG1        0.1300
     22 O          -1.5867   -3.6361   -1.3853 O.3     1  LIG1       -0.4946
     23 C          -0.9230   -4.8890   -1.5091 C.3     1  LIG1        0.0788
     24 O           2.4839   -1.4158   -2.6170 O.3     1  LIG1       -0.5058
     25 H          -3.4478   -0.3052   -1.2335 H       1  LIG1        0.0280
     26 H          -3.0442   -1.4735    0.0440 H       1  LIG1        0.0280
     27 H          -3.5401   -2.0172   -1.5825 H       1  LIG1        0.0280
     28 H          -0.1245    2.6772   -2.9924 H       1  LIG1        0.0385
     29 H           1.0999    3.2585   -1.8421 H       1  LIG1        0.0385
     30 H          -1.8527    1.7028    1.4331 H       1  LIG1        0.0623
     31 H          -0.9523    1.4500    3.6714 H       1  LIG1        0.0654
     32 H           3.0396    2.0252    2.1622 H       1  LIG1        0.0654
     33 H           2.1604    2.3121   -0.0754 H       1  LIG1        0.0623
     34 H           1.5149    1.2154    6.3006 H       1  LIG1        0.0660
     35 H           0.3368    0.3873    5.2760 H       1  LIG1        0.0660
     36 H           0.2114    2.1650    5.5749 H       1  LIG1        0.0660
     37 H           1.0562   -3.4380   -2.1408 H       1  LIG1        0.0691
     38 H          -1.6410   -5.6756   -1.2584 H       1  LIG1        0.0660
     39 H          -0.0876   -4.9671   -0.8051 H       1  LIG1        0.0660
     40 H          -0.5913   -5.0566   -2.5391 H       1  LIG1        0.0660
     41 H           2.8345   -0.5042   -2.7377 H       1  LIG1        0.2922
@<TRIPOS>BOND
     1     1     2    1
     2     2     3   ar
     3     3     4   ar
     4     4     5    1
     5     5     6    1
     6     6     7    1
     7     7     9    1
     8     3     9    1
     9    10    11   ar
    10    11    12   ar
    11    12    13   ar
    12    13    14   ar
    13    14    15   ar
    14    10    15   ar
    15    13    16    1
    16    16    17    1
    17     5    18    2
    18     4    19   ar
    19    19    20   ar
    20    20    21   ar
    21     2    21   ar
    22    21    22    1
    23    22    23    1
    24    19    24    1
    25     7    10    1
    26     7     8    1
    27     1    25    1
    28     1    26    1
    29     1    27    1
    30     6    28    1
    31     6    29    1
    32    11    30    1
    33    12    31    1
    34    14    32    1
    35    15    33    1
    36    17    34    1
    37    17    35    1
    38    17    36    1
    39    20    37    1
    40    23    38    1
    41    23    39    1
    42    23    40    1
    43    24    41    1
