REMARK  Name = NuBBE_64
REMARK  10 active torsions:
REMARK  status: ('A' for Active; 'I' for Inactive)
REMARK    1  A    between atoms: O_1  and  C_2
REMARK    2  A    between atoms: C_5  and  C_6
REMARK    3  A    between atoms: C_10  and  O_33
REMARK    4  A    between atoms: C_12  and  O_32
REMARK    5  A    between atoms: C_13  and  C_14
REMARK    6  A    between atoms: C_17  and  C_25
REMARK    7  A    between atoms: C_19  and  O_24
REMARK    8  A    between atoms: C_21  and  O_23
REMARK    9  A    between atoms: C_25  and  O_26
REMARK   10  A    between atoms: C_27  and  O_29
REMARK                            x       y       z     vdW  Elec       q    Type
REMARK                         _______ _______ _______ _____ _____    ______ ____
ROOT
ATOM      1  C   LIG A   1      -1.042  -2.299   0.372  0.00  0.00    +0.211 C 
ATOM      2  C   LIG A   1      -0.412  -3.456   1.130  0.00  0.00    +0.129 C 
ATOM      3  C   LIG A   1       1.042  -3.511   0.771  0.00  0.00    +0.174 C 
ATOM      4  C   LIG A   1       1.723  -2.224   0.531  0.00  0.00    +0.101 A 
ATOM      5  C   LIG A   1       3.108  -2.165   0.401  0.00  0.00    +0.134 A 
ATOM      6  C   LIG A   1       3.740  -0.936   0.283  0.00  0.00    +0.092 A 
ATOM      7  C   LIG A   1       2.989   0.246   0.286  0.00  0.00    +0.130 A 
ATOM      8  C   LIG A   1       1.587   0.229   0.367  0.00  0.00    +0.068 A 
ATOM      9  C   LIG A   1       0.968  -1.044   0.504  0.00  0.00    +0.145 A 
ATOM     10  O   LIG A   1      -0.392  -1.061   0.694  0.00  0.00    -0.482 OA
ATOM     11  O   LIG A   1       1.685  -4.557   0.749  0.00  0.00    -0.292 OA
ENDROOT
BRANCH   1  15
ATOM     12  C   LIG A   1      -5.228  -2.015   1.401  0.00  0.00    +0.117 A 
ATOM     13  C   LIG A   1      -4.294  -1.312   2.153  0.00  0.00    +0.046 A 
ATOM     14  C   LIG A   1      -2.940  -1.401   1.821  0.00  0.00    +0.011 A 
ATOM     15  C   LIG A   1      -2.514  -2.182   0.732  0.00  0.00    -0.007 A 
ATOM     16  C   LIG A   1      -3.477  -2.889  -0.005  0.00  0.00    +0.011 A 
ATOM     17  C   LIG A   1      -4.830  -2.803   0.329  0.00  0.00    +0.046 A 
BRANCH  12  18
ATOM     18  O   LIG A   1      -6.559  -1.955   1.688  0.00  0.00    -0.507 OA
ATOM     19  H   LIG A   1      -6.686  -1.351   2.438  0.00  0.00    +0.292 HD
ENDBRANCH  12  18
ENDBRANCH   1  15
BRANCH   8  20
ATOM     20  C   LIG A   1       0.686   1.470   0.353  0.00  0.00    +0.187 C 
ATOM     21  O   LIG A   1      -0.228   1.424  -0.764  0.00  0.00    -0.361 OA
ATOM     22  C   LIG A   1       0.115   2.161  -1.943  0.00  0.00    +0.175 C 
ATOM     23  C   LIG A   1       0.425   3.631  -1.618  0.00  0.00    +0.176 C 
ATOM     24  C   LIG A   1       1.573   3.724  -0.612  0.00  0.00    +0.177 C 
ATOM     25  C   LIG A   1       1.247   2.890   0.647  0.00  0.00    +0.179 C 
BRANCH  24  26
ATOM     26  O   LIG A   1       2.789   3.366  -1.267  0.00  0.00    -0.387 OA
ATOM     27  H   LIG A   1       3.333   2.882  -0.614  0.00  0.00    +0.210 HD
ENDBRANCH  24  26
BRANCH  23  28
ATOM     28  O   LIG A   1      -0.739   4.258  -1.045  0.00  0.00    -0.387 OA
ATOM     29  H   LIG A   1      -1.438   4.228  -1.724  0.00  0.00    +0.210 HD
ENDBRANCH  23  28
BRANCH  25  30
ATOM     30  O   LIG A   1       0.253   3.620   1.412  0.00  0.00    -0.386 OA
ATOM     31  H   LIG A   1      -0.457   3.862   0.776  0.00  0.00    +0.210 HD
ENDBRANCH  25  30
BRANCH  22  32
ATOM     32  C   LIG A   1       1.171   1.437  -2.791  0.00  0.00    +0.190 C 
BRANCH  32  33
ATOM     33  O   LIG A   1       1.527   2.189  -3.946  0.00  0.00    -0.392 OA
ATOM     34  H   LIG A   1       2.238   2.799  -3.667  0.00  0.00    +0.209 HD
ENDBRANCH  32  33
ENDBRANCH  22  32
ENDBRANCH   8  20
BRANCH   7  35
ATOM     35  O   LIG A   1       3.677   1.425   0.222  0.00  0.00    -0.506 OA
ATOM     36  H   LIG A   1       4.628   1.230   0.335  0.00  0.00    +0.292 HD
ENDBRANCH   7  35
BRANCH   5  37
ATOM     37  O   LIG A   1       3.916  -3.269   0.417  0.00  0.00    -0.506 OA
ATOM     38  H   LIG A   1       3.348  -4.066   0.526  0.00  0.00    +0.292 HD
ENDBRANCH   5  37
TORSDOF 10
