@<TRIPOS>MOLECULE
NuBBE_1284
 53 56 0 0 0
SMALL
GASTEIGER

@<TRIPOS>ATOM
      1 O          -6.1540   -0.1903    3.3976 O.3     1  LIG1       -0.5065
      2 C          -5.0481   -0.3734    2.6208 C.ar    1  LIG1        0.1239
      3 C          -4.8928   -1.5261    1.8530 C.ar    1  LIG1        0.0223
      4 C          -3.7745   -1.6409    1.0296 C.ar    1  LIG1        0.1348
      5 O          -3.5731   -2.7872    0.3151 O.3     1  LIG1       -0.5058
      6 C          -2.8366   -0.6046    0.9735 C.ar    1  LIG1        0.1092
      7 C          -1.7501   -0.5586   -0.0066 C.ar    1  LIG1        0.2382
      8 C          -0.5315    0.2102    0.3920 C.ar    1  LIG1        0.2138
      9 O           0.7277   -0.0609   -0.1267 O.3     1  LIG1       -0.4532
     10 C           0.8654   -1.0540   -1.1570 C.3     1  LIG1        0.2311
     11 C           2.2907   -1.6454   -1.0299 C.3     1  LIG1        0.1454
     12 H           2.3861   -2.1224   -0.0475 H       1  LIG1        0.0683
     13 O           3.2862   -0.6073   -1.0987 O.3     1  LIG1       -0.3829
     14 C           2.5448   -2.6531   -2.1515 C.3     1  LIG1        0.1151
     15 H           3.5962   -2.9625   -2.1567 H       1  LIG1        0.0648
     16 O           1.7711   -3.8428   -1.9338 O.3     1  LIG1       -0.3864
     17 C           2.1872   -2.0610   -3.5269 C.3     1  LIG1        0.1096
     18 H           2.9305   -1.2952   -3.7818 H       1  LIG1        0.0646
     19 O           2.2691   -3.1174   -4.4941 O.3     1  LIG1       -0.3866
     20 C           0.7763   -1.4401   -3.4806 C.3     1  LIG1        0.0883
     21 H           0.0253   -2.2154   -3.2804 H       1  LIG1        0.0621
     22 C           0.3887   -0.7838   -4.8011 C.3     1  LIG1       -0.0360
     23 O           0.7164   -0.4454   -2.4483 O.3     1  LIG1       -0.3339
     24 C          -0.7340    1.1880    1.3105 C.ar    1  LIG1        0.1812
     25 O          -1.9836    1.4630    1.8763 O.2     1  LIG1       -0.4507
     26 C          -2.9509    0.4920    1.8173 C.ar    1  LIG1        0.1465
     27 C          -4.0758    0.6257    2.6293 C.ar    1  LIG1        0.0231
     28 C           0.3390    2.0874    1.8333 C.ar    1  LIG1        0.0282
     29 C           1.4305    2.4997    1.0403 C.ar    1  LIG1       -0.0055
     30 C           2.4280    3.3178    1.5707 C.ar    1  LIG1        0.1626
     31 O           3.5223    3.6925    0.8409 O.3     1  LIG1       -0.5032
     32 C           2.3343    3.7804    2.8743 C.ar    1  LIG1        0.2006
     33 C           1.2498    3.4218    3.6579 C.ar    1  LIG1        0.1626
     34 O           1.1475    3.8947    4.9349 O.3     1  LIG1       -0.5032
     35 C           0.2608    2.5795    3.1543 C.ar    1  LIG1       -0.0055
     36 O           3.3010    4.5945    3.3983 O.3     1  LIG1       -0.5009
     37 O          -1.8868   -1.0775   -1.1129 O.2     1  LIG1       -0.2830
     38 H          -6.7937   -0.9004    3.2198 H       1  LIG1        0.2921
     39 H          -5.6311   -2.3196    1.8928 H       1  LIG1        0.0691
     40 H          -4.3249   -3.3915    0.4169 H       1  LIG1        0.2922
     41 H           0.1646   -1.8818   -1.0200 H       1  LIG1        0.1084
     42 H           2.9080    0.1431   -0.6048 H       1  LIG1        0.2102
     43 H           1.8329   -4.3353   -2.7794 H       1  LIG1        0.2100
     44 H           2.3365   -2.6984   -5.3709 H       1  LIG1        0.2100
     45 H           0.3918   -1.5035   -5.6255 H       1  LIG1        0.0255
     46 H           1.0627    0.0426   -5.0491 H       1  LIG1        0.0255
     47 H          -0.6186   -0.3589   -4.7264 H       1  LIG1        0.0255
     48 H          -4.2033    1.5023    3.2584 H       1  LIG1        0.0691
     49 H           1.4967    2.1916    0.0019 H       1  LIG1        0.0662
     50 H           3.4778    3.2553   -0.0278 H       1  LIG1        0.2923
     51 H           1.9367    4.4625    5.0518 H       1  LIG1        0.2923
     52 H          -0.5681    2.3131    3.8059 H       1  LIG1        0.0662
     53 H           3.9488    4.6970    2.6706 H       1  LIG1        0.2924
@<TRIPOS>BOND
     1     1     2    1
     2     2     3   ar
     3     3     4   ar
     4     4     5    1
     5     4     6   ar
     6     6     7   ar
     7     7     8   ar
     8     8     9    1
     9     9    10    1
    10    10    11    1
    11    11    14    1
    12    14    17    1
    13    17    20    1
    14    20    21    1
    15    20    22    1
    16    20    23    1
    17    10    23    1
    18     8    24   ar
    19    24    25   ar
    20    25    26   ar
    21     6    26   ar
    22    26    27   ar
    23     2    27   ar
    24    24    28    1
    25    28    29   ar
    26    29    30   ar
    27    30    31    1
    28    30    32   ar
    29    32    33   ar
    30    33    34    1
    31    33    35   ar
    32    28    35   ar
    33    32    36    1
    34     7    37    2
    35    11    13    1
    36    11    12    1
    37    14    16    1
    38    14    15    1
    39    17    19    1
    40    17    18    1
    41     1    38    1
    42     3    39    1
    43     5    40    1
    44    10    41    1
    45    13    42    1
    46    16    43    1
    47    19    44    1
    48    22    45    1
    49    22    46    1
    50    22    47    1
    51    27    48    1
    52    29    49    1
    53    31    50    1
    54    34    51    1
    55    35    52    1
    56    36    53    1
