REMARK  Name = NuBBE_2373
REMARK  7 active torsions:
REMARK  status: ('A' for Active; 'I' for Inactive)
REMARK    1  A    between atoms: O_1  and  C_2
REMARK    2  A    between atoms: C_6  and  C_9
REMARK    3  A    between atoms: C_7  and  O_8
REMARK    4  A    between atoms: C_9  and  C_10
REMARK    5  A    between atoms: C_9  and  C_11
REMARK    6  A    between atoms: C_20  and  C_21
REMARK    7  A    between atoms: C_20  and  C_22
REMARK                            x       y       z     vdW  Elec       q    Type
REMARK                         _______ _______ _______ _____ _____    ______ ____
ROOT
ATOM      1  C   LIG A   1      -1.562   2.072  -0.162  0.00  0.00    +0.162 A 
ATOM      2  C   LIG A   1      -0.917   0.984  -0.758  0.00  0.00    +0.005 A 
ATOM      3  C   LIG A   1       0.484   1.039  -0.886  0.00  0.00    -0.040 A 
ATOM      4  C   LIG A   1       1.187   2.191  -0.479  0.00  0.00    +0.011 A 
ATOM      5  C   LIG A   1       0.530   3.300   0.080  0.00  0.00    +0.001 A 
ATOM      6  C   LIG A   1      -0.853   3.214   0.229  0.00  0.00    +0.162 A 
ATOM      7  C   LIG A   1       1.252  -0.150  -1.415  0.00  0.00    +0.036 C 
ATOM      8  C   LIG A   1       1.124  -1.357  -0.478  0.00  0.00    +0.013 C 
ATOM      9  C   LIG A   1      -0.147  -2.235  -0.665  0.00  0.00    +0.021 C 
ATOM     10  C   LIG A   1      -1.471  -1.475  -0.496  0.00  0.00    -0.065 C 
ATOM     11  C   LIG A   1      -2.510  -1.973   0.204  0.00  0.00    -0.027 C 
ATOM     12  C   LIG A   1      -2.529  -3.328   0.837  0.00  0.00    +0.028 C 
ATOM     13  C   LIG A   1      -1.446  -4.236   0.263  0.00  0.00    +0.011 C 
ATOM     14  C   LIG A   1      -0.062  -3.547   0.221  0.00  0.00    -0.028 C 
ATOM     15  C   LIG A   1       0.935  -4.550  -0.404  0.00  0.00    +0.011 C 
ATOM     16  C   LIG A   1       0.402  -3.262   1.668  0.00  0.00    +0.011 C 
ATOM     17  C   LIG A   1      -1.661  -0.208  -1.302  0.00  0.00    +0.070 C 
ENDROOT
BRANCH   5  18
ATOM     18  C   LIG A   1       1.297   4.543   0.498  0.00  0.00    +0.017 C 
ATOM     19  C   LIG A   1       1.836   5.289  -0.725  0.00  0.00    +0.012 C 
ATOM     20  C   LIG A   1       2.428   4.223   1.482  0.00  0.00    +0.012 C 
ENDBRANCH   5  18
BRANCH   1  21
ATOM     21  O   LIG A   1      -2.912   2.092   0.090  0.00  0.00    -0.503 OA
ATOM     22  H   LIG A   1      -3.189   1.171   0.237  0.00  0.00    +0.292 HD
ENDBRANCH   1  21
BRANCH   6  23
ATOM     23  O   LIG A   1      -1.558   4.255   0.774  0.00  0.00    -0.503 OA
ATOM     24  H   LIG A   1      -2.490   3.959   0.740  0.00  0.00    +0.292 HD
ENDBRANCH   6  23
TORSDOF 3
