REMARK  Name = NuBBE_306
REMARK  17 active torsions:
REMARK  status: ('A' for Active; 'I' for Inactive)
REMARK    1  A    between atoms: CA_3  and  C_5
REMARK    2  A    between atoms: C_5  and  O_6
REMARK    3  A    between atoms: C_7  and  O_9
REMARK    4  A    between atoms: C_12  and  C_14
REMARK    5  A    between atoms: C_14  and  C_15
REMARK    6  A    between atoms: C_15  and  C_16
REMARK    7  A    between atoms: C_16  and  C_17
REMARK    8  A    between atoms: C_17  and  C_18
REMARK    9  A    between atoms: C_18  and  C_19
REMARK   10  A    between atoms: C_19  and  C_20
REMARK   11  A    between atoms: C_20  and  C_21
REMARK   12  A    between atoms: C_21  and  C_22
REMARK   13  A    between atoms: C_22  and  C_23
REMARK   14  A    between atoms: C_23  and  C_24
REMARK   15  A    between atoms: C_24  and  C_25
REMARK   16  A    between atoms: C_25  and  C_26
REMARK   17  A    between atoms: C_26  and  C_27
REMARK                            x       y       z     vdW  Elec       q    Type
REMARK                         _______ _______ _______ _____ _____    ______ ____
ROOT
ATOM      1  C   LIG A   1      -3.756  -0.580  -1.116  0.00  0.00    +0.002 C 
ENDROOT
BRANCH   1   2
ATOM      2  C   LIG A   1      -2.742  -0.665   0.015  0.00  0.00    +0.000 C 
BRANCH   2   3
ATOM      3  C   LIG A   1      -2.462  -2.029   0.634  0.00  0.00    -0.000 C 
BRANCH   3   4
ATOM      4  C   LIG A   1      -1.162  -1.993   1.457  0.00  0.00    -0.000 C 
BRANCH   4   5
ATOM      5  C   LIG A   1      -1.145  -0.919   2.555  0.00  0.00    -0.000 C 
BRANCH   5   6
ATOM      6  C   LIG A   1       0.140  -0.967   3.394  0.00  0.00    -0.000 C 
BRANCH   6   7
ATOM      7  C   LIG A   1       1.371  -0.775   2.507  0.00  0.00    -0.000 C 
BRANCH   7   8
ATOM      8  C   LIG A   1       2.696  -0.785   3.256  0.00  0.00    +0.000 C 
BRANCH   8   9
ATOM      9  C   LIG A   1       3.877  -0.582   2.299  0.00  0.00    +0.000 C 
BRANCH   9  10
ATOM     10  C   LIG A   1       3.955   0.765   1.566  0.00  0.00    +0.007 C 
BRANCH  10  11
ATOM     11  C   LIG A   1       3.979   2.030   2.429  0.00  0.00    +0.074 C 
BRANCH  11  12
ATOM     12  C   LIG A   1       5.194   2.152   3.350  0.00  0.00    +0.130 C 
ATOM     13  C   LIG A   1       5.350   3.493   4.043  0.00  0.00    +0.086 C 
ATOM     14  O   LIG A   1       5.974   1.264   3.549  0.00  0.00    -0.298 OA
ENDBRANCH  11  12
ENDBRANCH  10  11
ENDBRANCH   9  10
ENDBRANCH   8   9
ENDBRANCH   7   8
ENDBRANCH   6   7
ENDBRANCH   5   6
ENDBRANCH   4   5
ENDBRANCH   3   4
ENDBRANCH   2   3
ENDBRANCH   1   2
BRANCH   1  15
ATOM     15  C   LIG A   1      -3.846   0.834  -1.729  0.00  0.00    +0.019 C 
BRANCH  15  22
ATOM     16  H   LIG A   1      -2.309   1.814  -4.582  0.00  0.00    +0.123 HD
ATOM     17  N   LIG A   1      -2.697   1.030  -4.050  0.00  0.00    -0.306 NA
ATOM     18  CA  LIG A   1      -1.861  -0.141  -4.385  0.00  0.00    +0.108 C 
ATOM     19  C   LIG A   1      -0.593  -0.430  -3.518  0.00  0.00    +0.134 C 
ATOM     20  C   LIG A   1      -0.493   0.288  -2.187  0.00  0.00    +0.034 C 
ATOM     21  C   LIG A   1      -1.330   1.553  -2.070  0.00  0.00    +0.021 C 
ATOM     22  C   LIG A   1      -2.740   1.446  -2.644  0.00  0.00    +0.054 C 
BRANCH  19  23
ATOM     23  O   LIG A   1      -0.364  -1.811  -3.230  0.00  0.00    -0.390 OA
ATOM     24  H   LIG A   1      -0.274  -2.276  -4.081  0.00  0.00    +0.210 HD
ENDBRANCH  19  23
BRANCH  18  25
ATOM     25  C   LIG A   1      -2.801  -1.262  -4.889  0.00  0.00    +0.177 C 
BRANCH  25  26
ATOM     26  O   LIG A   1      -2.122  -2.468  -5.215  0.00  0.00    -0.393 OA
ATOM     27  H   LIG A   1      -2.799  -3.168  -5.164  0.00  0.00    +0.209 HD
ENDBRANCH  25  26
ENDBRANCH  18  25
ENDBRANCH  15  22
ENDBRANCH   1  15
TORSDOF 16
