REMARK  Name = NuBBE_378
REMARK  11 active torsions:
REMARK  status: ('A' for Active; 'I' for Inactive)
REMARK    1  A    between atoms: C_1  and  O_2
REMARK    2  A    between atoms: O_2  and  C_3
REMARK    3  A    between atoms: C_4  and  O_5
REMARK    4  A    between atoms: O_5  and  C_6
REMARK    5  A    between atoms: C_7  and  O_8
REMARK    6  A    between atoms: O_8  and  C_9
REMARK    7  A    between atoms: C_11  and  C_12
REMARK    8  A    between atoms: C_12  and  C_13
REMARK    9  A    between atoms: C_13  and  C_14
REMARK   10  A    between atoms: C_14  and  O_15
REMARK   11  A    between atoms: O_15  and  C_16
REMARK                            x       y       z     vdW  Elec       q    Type
REMARK                         _______ _______ _______ _____ _____    ______ ____
ROOT
ATOM      1  C   LIG A   1      -0.939   0.395   2.168  0.00  0.00    +0.165 A 
ATOM      2  C   LIG A   1      -0.840   1.745   1.762  0.00  0.00    +0.203 A 
ATOM      3  C   LIG A   1      -0.068   2.069   0.626  0.00  0.00    +0.165 A 
ATOM      4  C   LIG A   1       0.571   1.037  -0.081  0.00  0.00    +0.053 A 
ATOM      5  C   LIG A   1       0.445  -0.303   0.297  0.00  0.00    -0.040 A 
ATOM      6  C   LIG A   1      -0.332  -0.617   1.413  0.00  0.00    +0.053 A 
ENDROOT
BRANCH   1   8
ATOM      7  C   LIG A   1      -1.268  -1.008   4.047  0.00  0.00    +0.277 C 
ATOM      8  O   LIG A   1      -1.691   0.122   3.289  0.00  0.00    -0.491 OA
ENDBRANCH   1   8
BRANCH   2   9
ATOM      9  O   LIG A   1      -1.457   2.649   2.598  0.00  0.00    -0.488 OA
ATOM     10  C   LIG A   1      -2.000   3.823   2.008  0.00  0.00    +0.277 C 
ENDBRANCH   2   9
BRANCH   3  11
ATOM     11  O   LIG A   1       0.061   3.388   0.271  0.00  0.00    -0.491 OA
ATOM     12  C   LIG A   1       0.823   3.685  -0.894  0.00  0.00    +0.277 C 
ENDBRANCH   3  11
BRANCH   5  13
ATOM     13  C   LIG A   1       1.140  -1.387  -0.490  0.00  0.00    +0.046 C 
BRANCH  13  14
ATOM     14  C   LIG A   1       0.277  -1.918  -1.631  0.00  0.00    +0.125 C 
BRANCH  14  15
ATOM     15  C   LIG A   1       1.008  -2.981  -2.408  0.00  0.00    +0.307 C 
ATOM     16  O   LIG A   1       1.833  -3.756  -1.931  0.00  0.00    -0.251 OA
BRANCH  15  17
ATOM     17  O   LIG A   1       0.588  -2.990  -3.703  0.00  0.00    -0.468 OA
ATOM     18  C   LIG A   1       1.190  -4.007  -4.508  0.00  0.00    +0.280 C 
ENDBRANCH  15  17
ENDBRANCH  14  15
ENDBRANCH  13  14
ENDBRANCH   5  13
TORSDOF 7
