@<TRIPOS>MOLECULE
NuBBE_1328
 48 50 0 0 0
SMALL
GASTEIGER

@<TRIPOS>ATOM
      1 O          -3.3028   -1.4562   -0.3585 O.2     1  LIG1       -0.2917
      2 C          -2.1071   -1.6000   -0.0917 C.2     1  LIG1        0.1740
      3 C          -1.4146   -2.9240   -0.1703 C.3     1  LIG1        0.0520
      4 C          -0.3108   -2.9483    0.8760 C.3     1  LIG1        0.1322
      5 O           0.6249   -1.8738    0.6854 O.3     1  LIG1       -0.4828
      6 C           0.0555   -0.6370    0.5682 C.ar    1  LIG1        0.1389
      7 C          -1.2775   -0.4256    0.2296 C.ar    1  LIG1        0.1009
      8 C          -1.7833    0.8786    0.1593 C.ar    1  LIG1        0.1378
      9 O          -3.0961    1.1162   -0.1633 O.3     1  LIG1       -0.5055
     10 C          -0.9507    1.9840    0.4099 C.ar    1  LIG1        0.0402
     11 C           0.4153    1.7579    0.6822 C.ar    1  LIG1        0.1305
     12 O           1.1901    2.8657    0.9144 O.3     1  LIG1       -0.4946
     13 C           2.5605    2.7676    0.5415 C.3     1  LIG1        0.0788
     14 C           0.9042    0.4507    0.7771 C.ar    1  LIG1        0.0230
     15 C          -1.5024    3.3960    0.3654 C.3     1  LIG1       -0.0023
     16 C          -1.4081    4.0243   -1.0022 C.2     1  LIG1       -0.0807
     17 C          -0.7766    5.1669   -1.3418 C.2     1  LIG1       -0.0793
     18 C          -0.0211    6.0575   -0.3938 C.3     1  LIG1       -0.0440
     19 C          -0.7791    5.6622   -2.7643 C.3     1  LIG1       -0.0440
     20 C           0.4496   -4.2598    0.7860 C.ar    1  LIG1       -0.0067
     21 C           1.5737   -4.3882   -0.0489 C.ar    1  LIG1       -0.0516
     22 C           2.2547   -5.6010   -0.1518 C.ar    1  LIG1       -0.0198
     23 C           1.8049   -6.6974    0.5729 C.ar    1  LIG1        0.1169
     24 C           0.6891   -6.5992    1.3954 C.ar    1  LIG1       -0.0198
     25 C           0.0101   -5.3838    1.5028 C.ar    1  LIG1       -0.0516
     26 O           2.4389   -7.9017    0.4990 O.3     1  LIG1       -0.5068
     27 H          -1.0234   -3.0364   -1.1883 H       1  LIG1        0.0385
     28 H          -2.1443   -3.7205    0.0165 H       1  LIG1        0.0385
     29 H          -0.7251   -2.8483    1.8898 H       1  LIG1        0.0789
     30 H          -3.5358    0.2545   -0.3445 H       1  LIG1        0.2922
     31 H           3.0038    3.7632    0.6446 H       1  LIG1        0.0660
     32 H           2.6694    2.4584   -0.5038 H       1  LIG1        0.0660
     33 H           3.1087    2.0976    1.2102 H       1  LIG1        0.0660
     34 H           1.9369    0.2526    1.0459 H       1  LIG1        0.0691
     35 H          -0.9978    3.9928    1.1294 H       1  LIG1        0.0358
     36 H          -2.5516    3.3956    0.6863 H       1  LIG1        0.0358
     37 H          -1.9381    3.4713   -1.7786 H       1  LIG1        0.0575
     38 H          -0.0106    5.7025    0.6376 H       1  LIG1        0.0274
     39 H          -0.4667    7.0579   -0.3868 H       1  LIG1        0.0274
     40 H           1.0218    6.1461   -0.7151 H       1  LIG1        0.0274
     41 H          -1.2854    4.9736   -3.4481 H       1  LIG1        0.0274
     42 H           0.2492    5.7869   -3.1203 H       1  LIG1        0.0274
     43 H          -1.2857    6.6312   -2.8256 H       1  LIG1        0.0274
     44 H           1.9295   -3.5362   -0.6255 H       1  LIG1        0.0623
     45 H           3.1238   -5.6661   -0.7983 H       1  LIG1        0.0654
     46 H           0.3483   -7.4685    1.9509 H       1  LIG1        0.0654
     47 H          -0.8645   -5.3254    2.1473 H       1  LIG1        0.0623
     48 H           3.1964   -7.8142   -0.1026 H       1  LIG1        0.2921
@<TRIPOS>BOND
     1     1     2    2
     2     2     3    1
     3     3     4    1
     4     4     5    1
     5     5     6    1
     6     6     7   ar
     7     2     7    1
     8     7     8   ar
     9     8     9    1
    10     8    10   ar
    11    10    11   ar
    12    11    12    1
    13    12    13    1
    14    11    14   ar
    15     6    14   ar
    16    10    15    1
    17    15    16    1
    18    16    17    2
    19    17    18    1
    20    17    19    1
    21     4    20    1
    22    20    21   ar
    23    21    22   ar
    24    22    23   ar
    25    23    24   ar
    26    24    25   ar
    27    20    25   ar
    28    23    26    1
    29     3    27    1
    30     3    28    1
    31     4    29    1
    32     9    30    1
    33    13    31    1
    34    13    32    1
    35    13    33    1
    36    14    34    1
    37    15    35    1
    38    15    36    1
    39    16    37    1
    40    18    38    1
    41    18    39    1
    42    18    40    1
    43    19    41    1
    44    19    42    1
    45    19    43    1
    46    21    44    1
    47    22    45    1
    48    24    46    1
    49    25    47    1
    50    26    48    1
