@<TRIPOS>MOLECULE
NuBBE_432
 85 89 0 0 0
SMALL
GASTEIGER

@<TRIPOS>ATOM
      1 C          -5.4300   -1.4116    4.4972 C.3     1  LIG1       -0.0598
      2 C          -4.5947   -0.2882    3.8503 C.3     1  LIG1       -0.0146
      3 H          -4.3143    0.4173    4.6458 H       1  LIG1        0.0326
      4 C          -5.5342    0.4752    2.9167 C.3     1  LIG1       -0.0468
      5 C          -4.8065    1.5469    2.1364 C.3     1  LIG1       -0.0363
      6 C          -3.6675    0.9802    1.2725 C.3     1  LIG1        0.0767
      7 C          -2.9782    2.1982    0.6246 C.3     1  LIG1       -0.0358
      8 C          -1.8831    1.7909   -0.3400 C.3     1  LIG1       -0.0424
      9 C          -0.8296    0.7929    0.2237 C.3     1  LIG1       -0.0050
     10 C          -0.2113   -0.0725   -1.0043 C.3     1  LIG1       -0.0194
     11 C           0.1826    0.7740   -2.2491 C.3     1  LIG1       -0.0463
     12 C           1.6234    1.2290   -2.3414 C.3     1  LIG1       -0.0484
     13 C           2.5644    0.0209   -2.2371 C.3     1  LIG1       -0.0230
     14 H           2.1436   -0.7521   -2.9024 H       1  LIG1        0.0314
     15 C           4.0016    0.2838   -2.8346 C.3     1  LIG1        0.0485
     16 C           3.8748    0.4967   -4.3840 C.3     1  LIG1        0.0546
     17 O           5.1435    0.6979   -5.0039 O.3     1  LIG1       -0.3943
     18 C           4.8528   -1.0077   -2.6501 C.3     1  LIG1        0.0911
     19 H           4.4835   -1.7849   -3.3349 H       1  LIG1        0.0626
     20 C           4.8147   -1.5983   -1.2370 C.3     1  LIG1        0.0823
     21 H           5.3657   -0.9545   -0.5460 H       1  LIG1        0.0619
     22 C           3.3841   -1.8634   -0.7601 C.3     1  LIG1       -0.0184
     23 C           2.4730   -0.5997   -0.7901 C.3     1  LIG1       -0.0225
     24 C           0.9482   -1.0447   -0.5510 C.3     1  LIG1       -0.0257
     25 H           0.8703   -1.8862   -1.2595 H       1  LIG1        0.0315
     26 C           0.6298   -1.7167    0.8108 C.3     1  LIG1       -0.0306
     27 C          -0.6598   -1.3237    1.4951 C.2     1  LIG1       -0.0835
     28 C          -1.3647   -0.1867    1.3018 C.2     1  LIG1       -0.0602
     29 C          -2.6101    0.2340    2.1514 C.3     1  LIG1        0.0252
     30 H          -2.2041    1.0211    2.8094 H       1  LIG1        0.0384
     31 C          -3.2616   -0.7997    3.1897 C.3     1  LIG1        0.0733
     32 C          -2.2813   -1.0835    4.3591 C.3     1  LIG1       -0.0352
     33 O          -3.5185   -2.0609    2.5671 O.3     1  LIG1       -0.3880
     34 C           2.9993    0.3393    0.3180 C.3     1  LIG1       -0.0589
     35 O           5.5255   -2.8427   -1.2443 O.3     1  LIG1       -0.3892
     36 O           6.2323   -0.8210   -2.9954 O.3     1  LIG1       -0.3885
     37 C           4.6461    1.5662   -2.2415 C.3     1  LIG1        0.0546
     38 O           5.9312    1.8655   -2.7794 O.3     1  LIG1       -0.3943
     39 C          -1.3554   -1.0256   -1.5660 C.3     1  LIG1       -0.0585
     40 C           0.1849    1.6873    0.9694 C.3     1  LIG1       -0.0553
     41 C          -4.2879    0.0534    0.2172 C.2     1  LIG1        0.3116
     42 O          -4.6511    0.6727   -0.9254 O.3     1  LIG1       -0.4802
     43 O          -4.5297   -1.1260    0.3508 O.2     1  LIG1       -0.2504
     44 H          -5.8246   -2.1002    3.7410 H       1  LIG1        0.0233
     45 H          -6.2889   -0.9892    5.0313 H       1  LIG1        0.0233
     46 H          -4.8584   -1.9985    5.2193 H       1  LIG1        0.0233
     47 H          -6.3200    0.9575    3.5137 H       1  LIG1        0.0269
     48 H          -6.0552   -0.2076    2.2366 H       1  LIG1        0.0269
     49 H          -4.4063    2.2884    2.8424 H       1  LIG1        0.0276
     50 H          -5.5341    2.0797    1.5105 H       1  LIG1        0.0276
     51 H          -2.5581    2.8510    1.4008 H       1  LIG1        0.0276
     52 H          -3.7041    2.8197    0.0833 H       1  LIG1        0.0276
     53 H          -1.3825    2.7116   -0.6721 H       1  LIG1        0.0274
     54 H          -2.3577    1.4084   -1.2441 H       1  LIG1        0.0274
     55 H          -0.4641    1.6448   -2.3797 H       1  LIG1        0.0271
     56 H           0.0012    0.1771   -3.1559 H       1  LIG1        0.0271
     57 H           1.8386    1.9940   -1.5944 H       1  LIG1        0.0268
     58 H           1.7298    1.7314   -3.3069 H       1  LIG1        0.0268
     59 H           3.4216   -0.3818   -4.8585 H       1  LIG1        0.0564
     60 H           3.2507    1.3559   -4.6418 H       1  LIG1        0.0564
     61 H           5.5267    1.5011   -4.5836 H       1  LIG1        0.2094
     62 H           3.4198   -2.2918    0.2501 H       1  LIG1        0.0296
     63 H           2.9532   -2.6555   -1.3880 H       1  LIG1        0.0296
     64 H           1.4393   -1.5878    1.5344 H       1  LIG1        0.0310
     65 H           0.5805   -2.8011    0.6395 H       1  LIG1        0.0310
     66 H          -0.9935   -2.0686    2.2073 H       1  LIG1        0.0572
     67 H          -1.8364   -0.1596    4.7418 H       1  LIG1        0.0257
     68 H          -1.4811   -1.7766    4.0991 H       1  LIG1        0.0257
     69 H          -2.7851   -1.5689    5.2009 H       1  LIG1        0.0257
     70 H          -4.0113   -1.9060    1.7332 H       1  LIG1        0.2102
     71 H           2.7190    0.0005    1.3171 H       1  LIG1        0.0235
     72 H           2.6702    1.3693    0.2009 H       1  LIG1        0.0235
     73 H           4.0882    0.3842    0.3585 H       1  LIG1        0.0235
     74 H           6.3384   -2.6641   -1.7601 H       1  LIG1        0.2099
     75 H           6.2273   -0.4051   -3.8865 H       1  LIG1        0.2099
     76 H           4.0263    2.4367   -2.4788 H       1  LIG1        0.0564
     77 H           4.7483    1.5365   -1.1601 H       1  LIG1        0.0564
     78 H           6.5879    1.5166   -2.1430 H       1  LIG1        0.2094
     79 H          -2.1830   -0.4690   -2.0119 H       1  LIG1        0.0235
     80 H          -1.7775   -1.6966   -0.8136 H       1  LIG1        0.0235
     81 H          -0.9659   -1.6749   -2.3612 H       1  LIG1        0.0235
     82 H           0.7250    2.3451    0.2852 H       1  LIG1        0.0238
     83 H           0.8962    1.1119    1.5620 H       1  LIG1        0.0238
     84 H          -0.3154    2.3430    1.6930 H       1  LIG1        0.0238
     85 H          -4.9868   -0.0541   -1.4915 H       1  LIG1        0.2951
@<TRIPOS>BOND
     1     2     4    1
     2     4     5    1
     3     5     6    1
     4     6     7    1
     5     7     8    1
     6     8     9    1
     7     9    10    1
     8    10    11    1
     9    11    12    1
    10    12    13    1
    11    13    15    1
    12    16    17    1
    13    15    18    1
    14    18    20    1
    15    20    22    1
    16    22    23    1
    17    23    24    1
    18    24    26    1
    19    26    27    1
    20    27    28    2
    21    28    29    1
    22    29    31    1
    23     2    31    1
    24    13    23    1
    25    37    38    1
    26    24    10    1
    27    28     9    1
    28    29     6    1
    29    41    42    1
    30    41    43    2
    31     1     2    1
    32     2     3    1
    33     6    41    1
    34     9    40    1
    35    10    39    1
    36    13    14    1
    37    15    16    1
    38    15    37    1
    39    18    19    1
    40    18    36    1
    41    23    34    1
    42    24    25    1
    43    29    30    1
    44    20    35    1
    45    20    21    1
    46    31    33    1
    47    31    32    1
    48     1    44    1
    49     1    45    1
    50     1    46    1
    51     4    47    1
    52     4    48    1
    53     5    49    1
    54     5    50    1
    55     7    51    1
    56     7    52    1
    57     8    53    1
    58     8    54    1
    59    11    55    1
    60    11    56    1
    61    12    57    1
    62    12    58    1
    63    16    59    1
    64    16    60    1
    65    17    61    1
    66    22    62    1
    67    22    63    1
    68    26    64    1
    69    26    65    1
    70    27    66    1
    71    32    67    1
    72    32    68    1
    73    32    69    1
    74    33    70    1
    75    34    71    1
    76    34    72    1
    77    34    73    1
    78    35    74    1
    79    36    75    1
    80    37    76    1
    81    37    77    1
    82    38    78    1
    83    39    79    1
    84    39    80    1
    85    39    81    1
    86    40    82    1
    87    40    83    1
    88    40    84    1
    89    42    85    1
