REMARK  Name = NuBBE_603
REMARK  6 active torsions:
REMARK  status: ('A' for Active; 'I' for Inactive)
REMARK    1  A    between atoms: O_1  and  C_2
REMARK    2  A    between atoms: C_2  and  C_3
REMARK    3  A    between atoms: C_3  and  C_4
REMARK    4  A    between atoms: C_4  and  C_5
REMARK    5  A    between atoms: C_4  and  O_7
REMARK    6  A    between atoms: C_5  and  O_6
REMARK                            x       y       z     vdW  Elec       q    Type
REMARK                         _______ _______ _______ _____ _____    ______ ____
ROOT
ATOM      1  C   LIG A   1      -0.039  -0.685   0.954  0.00  0.00    +0.167 C 
ENDROOT
BRANCH   1   2
ATOM      2  C   LIG A   1       0.886  -0.263  -0.171  0.00  0.00    -0.021 C 
ATOM      3  C   LIG A   1       2.236  -0.363  -0.045  0.00  0.00    +0.012 C 
BRANCH   2   4
ATOM      4  C   LIG A   1       0.297   0.163  -1.477  0.00  0.00    +0.189 C 
BRANCH   4   5
ATOM      5  O   LIG A   1      -0.408   1.388  -1.301  0.00  0.00    -0.391 OA
ATOM      6  H   LIG A   1      -0.738   1.644  -2.183  0.00  0.00    +0.210 HD
ENDBRANCH   4   5
ENDBRANCH   2   4
ENDBRANCH   1   2
BRANCH   1   7
ATOM      7  O   LIG A   1      -0.778  -1.820   0.502  0.00  0.00    -0.385 OA
ATOM      8  H   LIG A   1      -1.566  -1.451   0.059  0.00  0.00    +0.210 HD
ENDBRANCH   1   7
BRANCH   1   9
ATOM      9  C   LIG A   1      -1.024   0.386   1.490  0.00  0.00    +0.191 C 
BRANCH   9  10
ATOM     10  O   LIG A   1      -2.038   0.675   0.524  0.00  0.00    -0.392 OA
ATOM     11  H   LIG A   1      -1.558   1.136  -0.200  0.00  0.00    +0.209 HD
ENDBRANCH   9  10
ENDBRANCH   1   9
TORSDOF 6
