REMARK  Name = NuBBE_387
REMARK  15 active torsions:
REMARK  status: ('A' for Active; 'I' for Inactive)
REMARK    1  A    between atoms: C_1  and  C_2
REMARK    2  A    between atoms: C_3  and  C_49
REMARK    3  A    between atoms: C_7  and  C_8
REMARK    4  A    between atoms: C_7  and  C_48
REMARK    5  A    between atoms: C_9  and  O_36
REMARK    6  A    between atoms: C_11  and  O_35
REMARK    7  A    between atoms: C_14  and  C_34
REMARK    8  A    between atoms: C_20  and  C_21
REMARK    9  A    between atoms: C_21  and  O_22
REMARK   10  A    between atoms: C_28  and  C_33
REMARK   11  A    between atoms: C_30  and  C_32
REMARK   12  A    between atoms: O_36  and  C_37
REMARK   13  A    between atoms: C_37  and  C_38
REMARK   14  A    between atoms: C_39  and  C_40
REMARK   15  A    between atoms: C_43  and  O_46
REMARK                            x       y       z     vdW  Elec       q    Type
REMARK                         _______ _______ _______ _____ _____    ______ ____
ROOT
ATOM      1  C   LIG A   1      -1.211   2.935  -0.109  0.00  0.00    +0.016 C 
ATOM      2  C   LIG A   1       0.018   2.959   0.855  0.00  0.00    -0.005 C 
ATOM      3  C   LIG A   1       0.263   1.512   1.573  0.00  0.00    -0.019 C 
ATOM      4  C   LIG A   1      -1.014   1.055   2.337  0.00  0.00    +0.008 C 
ATOM      5  C   LIG A   1      -1.081  -0.434   2.675  0.00  0.00    +0.005 C 
ATOM      6  C   LIG A   1      -0.899  -1.239   1.382  0.00  0.00    +0.004 C 
ATOM      7  C   LIG A   1      -1.479  -2.683   1.341  0.00  0.00    +0.008 C 
ATOM      8  C   LIG A   1      -0.649  -3.715   2.118  0.00  0.00    +0.015 C 
ATOM      9  C   LIG A   1      -1.632  -3.044  -0.173  0.00  0.00    +0.211 C 
ATOM     10  C   LIG A   1      -0.530  -2.499  -1.118  0.00  0.00    +0.156 C 
ATOM     11  C   LIG A   1       0.743  -2.002  -0.434  0.00  0.00    +0.042 C 
ATOM     12  C   LIG A   1       0.559  -1.074   0.819  0.00  0.00    -0.023 C 
ATOM     13  C   LIG A   1       0.681   0.475   0.449  0.00  0.00    +0.006 C 
ATOM     14  C   LIG A   1       2.009   0.931  -0.179  0.00  0.00    +0.031 C 
ATOM     15  C   LIG A   1       2.074   2.413  -0.458  0.00  0.00    -0.026 C 
ATOM     16  C   LIG A   1       1.233   3.375  -0.010  0.00  0.00    -0.063 C 
ATOM     17  C   LIG A   1       1.338   4.882  -0.442  0.00  0.00    +0.035 C 
ATOM     18  C   LIG A   1       0.884   5.911   0.663  0.00  0.00    +0.074 C 
ATOM     19  C   LIG A   1      -0.386   5.441   1.408  0.00  0.00    +0.019 C 
ATOM     20  C   LIG A   1      -0.267   4.024   1.945  0.00  0.00    +0.012 C 
ATOM     21  C   LIG A   1       2.020   6.151   1.686  0.00  0.00    +0.019 C 
ATOM     22  C   LIG A   1       3.325   6.609   1.042  0.00  0.00    +0.004 C 
ATOM     23  C   LIG A   1       3.827   5.648  -0.038  0.00  0.00    -0.011 C 
ATOM     24  C   LIG A   1       2.727   5.297  -1.074  0.00  0.00    -0.003 C 
ATOM     25  C   LIG A   1       2.598   6.441  -2.099  0.00  0.00    +0.008 C 
ATOM     26  C   LIG A   1       4.473   4.417   0.605  0.00  0.00    +0.008 C 
ATOM     27  C   LIG A   1       1.674  -1.518   1.807  0.00  0.00    +0.012 C 
ATOM     28  C   LIG A   1      -2.901  -2.722   1.965  0.00  0.00    +0.015 C 
ATOM     29  C   LIG A   1       1.391   1.657   2.647  0.00  0.00    +0.012 C 
ENDROOT
BRANCH  18  30
ATOM     30  C   LIG A   1       0.437   7.232   0.018  0.00  0.00    +0.311 C 
ATOM     31  O   LIG A   1      -0.115   7.365  -1.064  0.00  0.00    -0.250 OA
BRANCH  30  32
ATOM     32  O   LIG A   1       0.618   8.317   0.799  0.00  0.00    -0.480 OA
ATOM     33  H   LIG A   1       0.285   9.066   0.260  0.00  0.00    +0.295 HD
ENDBRANCH  30  32
ENDBRANCH  18  30
BRANCH  10  34
ATOM     34  O   LIG A   1      -1.042  -1.429  -1.919  0.00  0.00    -0.388 OA
ATOM     35  H   LIG A   1      -1.692  -1.816  -2.534  0.00  0.00    +0.210 HD
ENDBRANCH  10  34
BRANCH   9  36
ATOM     36  O   LIG A   1      -1.695  -4.476  -0.356  0.00  0.00    -0.455 OA
BRANCH  36  37
ATOM     37  C   LIG A   1      -2.813  -4.942  -0.971  0.00  0.00    +0.332 C 
ATOM     38  O   LIG A   1      -3.869  -4.340  -1.170  0.00  0.00    -0.246 OA
BRANCH  37  39
ATOM     39  C   LIG A   1      -2.493  -6.293  -1.458  0.00  0.00    +0.092 C 
ATOM     40  C   LIG A   1      -3.220  -6.810  -2.469  0.00  0.00    +0.015 C 
BRANCH  40  41
ATOM     41  C   LIG A   1      -2.967  -8.123  -3.070  0.00  0.00    -0.025 A 
ATOM     42  C   LIG A   1      -3.262  -8.325  -4.426  0.00  0.00    +0.011 A 
ATOM     43  C   LIG A   1      -3.090  -9.583  -5.013  0.00  0.00    +0.046 A 
ATOM     44  C   LIG A   1      -2.629 -10.641  -4.239  0.00  0.00    +0.117 A 
ATOM     45  C   LIG A   1      -2.333 -10.461  -2.894  0.00  0.00    +0.046 A 
ATOM     46  C   LIG A   1      -2.507  -9.207  -2.309  0.00  0.00    +0.011 A 
BRANCH  44  47
ATOM     47  O   LIG A   1      -2.460 -11.888  -4.761  0.00  0.00    -0.507 OA
ATOM     48  H   LIG A   1      -2.732 -11.872  -5.693  0.00  0.00    +0.292 HD
ENDBRANCH  44  47
ENDBRANCH  40  41
ENDBRANCH  37  39
ENDBRANCH  36  37
ENDBRANCH   9  36
TORSDOF 8
