@<TRIPOS>MOLECULE
NuBBE_867
 50 52 0 0 0
SMALL
GASTEIGER

@<TRIPOS>ATOM
      1 C           1.6828    1.0311   -6.1121 C.3     1  LIG1        0.0336
      2 C           0.6099    0.4015   -5.2743 C.2     1  LIG1        0.3092
      3 O           1.1770   -0.5943   -4.4846 O.3     1  LIG1       -0.4258
      4 C           0.6024   -0.8927   -3.2321 C.ar    1  LIG1        0.1386
      5 C           0.7405   -2.1944   -2.7592 C.ar    1  LIG1        0.0237
      6 C           0.4239   -2.4741   -1.4261 C.ar    1  LIG1        0.1419
      7 O           0.5269   -3.7885   -0.8914 O.3     1  LIG1       -0.4255
      8 C           1.2172   -4.8451   -1.5062 C.2     1  LIG1        0.3092
      9 C           0.8686   -6.1268   -0.8096 C.3     1  LIG1        0.0336
     10 O           1.9993   -4.7735   -2.4374 O.2     1  LIG1       -0.2507
     11 C          -0.0628   -1.4638   -0.5679 C.ar    1  LIG1        0.0404
     12 C          -0.2672   -0.1820   -1.0980 C.ar    1  LIG1        0.1318
     13 O          -0.7514    0.8827   -0.3845 O.3     1  LIG1       -0.4800
     14 C          -1.3153    0.5679    0.9004 C.3     1  LIG1        0.1622
     15 C          -0.4133   -0.3996    1.6877 C.3     1  LIG1        0.1480
     16 H          -0.8326   -0.6079    2.6793 H       1  LIG1        0.0778
     17 C          -0.3422   -1.7163    0.8947 C.3     1  LIG1        0.0204
     18 O           0.9501    0.0927    1.7976 O.3     1  LIG1       -0.4571
     19 C           1.4504    0.3053    3.0367 C.2     1  LIG1        0.3043
     20 C           2.9437    0.4491    2.9755 C.3     1  LIG1        0.0332
     21 O           0.7996    0.3395    4.0778 O.2     1  LIG1       -0.2512
     22 C          -1.6228    1.8542    1.6585 C.ar    1  LIG1       -0.0001
     23 C          -0.8951    3.0363    1.4250 C.ar    1  LIG1       -0.0513
     24 C          -1.1776    4.2140    2.1272 C.ar    1  LIG1       -0.0162
     25 C          -2.1912    4.2128    3.0749 C.ar    1  LIG1        0.1582
     26 C          -2.9183    3.0523    3.3192 C.ar    1  LIG1        0.1586
     27 O          -3.9103    3.0599    4.2592 O.3     1  LIG1       -0.5033
     28 C          -2.6486    1.8791    2.6219 C.ar    1  LIG1       -0.0097
     29 O          -2.5105    5.3307    3.7955 O.3     1  LIG1       -0.5033
     30 C           0.0935    0.1096   -2.4122 C.ar    1  LIG1        0.0230
     31 O          -0.5570    0.7750   -5.2500 O.2     1  LIG1       -0.2507
     32 H           2.2859    1.6952   -5.4850 H       1  LIG1        0.0342
     33 H           1.2235    1.6189   -6.9113 H       1  LIG1        0.0342
     34 H           2.3127    0.2631   -6.5662 H       1  LIG1        0.0342
     35 H           1.1160   -2.9560   -3.4328 H       1  LIG1        0.0691
     36 H          -0.1685   -6.0979   -0.4664 H       1  LIG1        0.0342
     37 H           1.5469   -6.2900    0.0293 H       1  LIG1        0.0342
     38 H           0.9549   -6.9504   -1.5256 H       1  LIG1        0.0342
     39 H          -2.2851    0.0857    0.7047 H       1  LIG1        0.0822
     40 H          -1.2950   -2.2510    0.9803 H       1  LIG1        0.0353
     41 H           0.4537   -2.3426    1.3147 H       1  LIG1        0.0353
     42 H           3.3277    0.0164    2.0461 H       1  LIG1        0.0342
     43 H           3.3884   -0.1231    3.7998 H       1  LIG1        0.0342
     44 H           3.2375    1.4962    3.0418 H       1  LIG1        0.0342
     45 H          -0.0983    3.0460    0.6835 H       1  LIG1        0.0623
     46 H          -0.5965    5.1065    1.9209 H       1  LIG1        0.0655
     47 H          -3.8944    3.9691    4.6209 H       1  LIG1        0.2923
     48 H          -3.2420    0.9948    2.8386 H       1  LIG1        0.0659
     49 H          -1.9366    6.0559    3.4941 H       1  LIG1        0.2923
     50 H          -0.0008    1.1286   -2.7731 H       1  LIG1        0.0691
@<TRIPOS>BOND
     1     1     2    1
     2     2     3    1
     3     3     4    1
     4     4     5   ar
     5     5     6   ar
     6     6     7    1
     7     7     8    1
     8     8     9    1
     9     8    10    2
    10     6    11   ar
    11    11    12   ar
    12    12    13    1
    13    13    14    1
    14    14    15    1
    15    15    17    1
    16    11    17    1
    17    18    19    1
    18    19    20    1
    19    19    21    2
    20    14    22    1
    21    22    23   ar
    22    23    24   ar
    23    24    25   ar
    24    25    26   ar
    25    26    27    1
    26    26    28   ar
    27    22    28   ar
    28    25    29    1
    29    12    30   ar
    30     4    30   ar
    31     2    31    2
    32    15    18    1
    33    15    16    1
    34     1    32    1
    35     1    33    1
    36     1    34    1
    37     5    35    1
    38     9    36    1
    39     9    37    1
    40     9    38    1
    41    14    39    1
    42    17    40    1
    43    17    41    1
    44    20    42    1
    45    20    43    1
    46    20    44    1
    47    23    45    1
    48    24    46    1
    49    27    47    1
    50    28    48    1
    51    29    49    1
    52    30    50    1
