REMARK  Name = NuBBE_215
REMARK  1 active torsions:
REMARK  status: ('A' for Active; 'I' for Inactive)
REMARK    1  A    between atoms: C_1  and  C_2
REMARK                            x       y       z     vdW  Elec       q    Type
REMARK                         _______ _______ _______ _____ _____    ______ ____
ROOT
ATOM      1  C   LIG A   1      -2.701   0.436   3.045  0.00  0.00    +0.109 C 
ATOM      2  C   LIG A   1      -1.611   1.479   3.049  0.00  0.00    +0.213 C 
ATOM      3  N   LIG A   1      -0.636   1.402   2.065  0.00  0.00    -0.294 N 
ATOM      4  C   LIG A   1      -0.551   0.336   1.052  0.00  0.00    +0.111 C 
ATOM      5  C   LIG A   1       0.137   0.761  -0.248  0.00  0.00    -0.012 A 
ATOM      6  C   LIG A   1       0.425  -0.256  -1.202  0.00  0.00    +0.033 A 
ATOM      7  C   LIG A   1       0.181  -1.675  -0.835  0.00  0.00    -0.011 A 
ATOM      8  C   LIG A   1       0.045  -2.710  -1.772  0.00  0.00    +0.009 A 
ATOM      9  C   LIG A   1      -0.148  -4.036  -1.371  0.00  0.00    +0.001 A 
ATOM     10  C   LIG A   1      -0.211  -4.358  -0.019  0.00  0.00    +0.000 A 
ATOM     11  C   LIG A   1      -0.100  -3.353   0.936  0.00  0.00    +0.004 A 
ATOM     12  C   LIG A   1       0.074  -2.020   0.537  0.00  0.00    -0.037 A 
ATOM     13  C   LIG A   1       0.163  -0.924   1.580  0.00  0.00    +0.063 C 
ATOM     14  C   LIG A   1       0.992   0.178  -2.397  0.00  0.00    +0.174 A 
ATOM     15  C   LIG A   1       1.263   1.511  -2.641  0.00  0.00    +0.167 A 
ATOM     16  O   LIG A   1       1.827   1.725  -3.862  0.00  0.00    -0.453 OA
ATOM     17  C   LIG A   1       1.899   0.381  -4.367  0.00  0.00    +0.466 C 
ATOM     18  O   LIG A   1       1.384  -0.599  -3.450  0.00  0.00    -0.452 OA
ATOM     19  C   LIG A   1       1.017   2.500  -1.715  0.00  0.00    +0.053 A 
ATOM     20  C   LIG A   1       0.471   2.120  -0.487  0.00  0.00    -0.037 A 
ATOM     21  C   LIG A   1       0.256   3.144   0.599  0.00  0.00    +0.054 C 
ATOM     22  C   LIG A   1       0.353   2.473   1.968  0.00  0.00    +0.113 C 
ATOM     23  O   LIG A   1      -1.631   2.375   3.895  0.00  0.00    -0.276 OA
ENDROOT
TORSDOF 0
