@<TRIPOS>MOLECULE
NuBBE_272
 60 62 0 0 0
SMALL
GASTEIGER

@<TRIPOS>ATOM
      1 O           6.2326    0.9243   -6.2062 O.3     1  LIG1       -0.5033
      2 C           5.1033    1.6920   -6.2616 C.ar    1  LIG1        0.1588
      3 C           3.9227    1.2480   -5.6723 C.ar    1  LIG1       -0.0094
      4 C           2.7689    2.0449   -5.7221 C.ar    1  LIG1       -0.0211
      5 C           1.5500    1.5291   -5.0982 C.2     1  LIG1       -0.0477
      6 C           0.5767    2.2837   -4.5635 C.2     1  LIG1        0.0231
      7 C          -0.5663    1.6765   -3.8541 C.2     1  LIG1        0.3342
      8 O          -0.2461    0.4227   -3.4852 O.3     1  LIG1       -0.4292
      9 C          -0.9512   -0.0790   -2.3529 C.3     1  LIG1        0.2341
     10 H          -2.0121    0.1986   -2.3946 H       1  LIG1        0.1085
     11 O          -0.3257    0.4777   -1.1937 O.3     1  LIG1       -0.3301
     12 C          -0.8802   -0.0061    0.0294 C.3     1  LIG1        0.1250
     13 H          -1.9620    0.1754    0.0395 H       1  LIG1        0.0658
     14 C          -0.6125   -1.5176    0.1456 C.3     1  LIG1        0.1130
     15 H           0.4653   -1.7245    0.1449 H       1  LIG1        0.0647
     16 C          -1.2542   -2.2171   -1.0578 C.3     1  LIG1        0.1152
     17 H          -2.3485   -2.1732   -0.9900 H       1  LIG1        0.0648
     18 C          -0.7819   -1.6070   -2.3739 C.3     1  LIG1        0.1455
     19 H           0.2718   -1.8640   -2.5441 H       1  LIG1        0.0683
     20 O          -1.5188   -2.1968   -3.4554 O.3     1  LIG1       -0.3829
     21 O          -0.9213   -3.6157   -1.0486 O.3     1  LIG1       -0.3864
     22 O          -1.1595   -2.1114    1.3255 O.3     1  LIG1       -0.3864
     23 C          -0.2356    0.8096    1.1567 C.3     1  LIG1        0.1215
     24 O          -0.6969    0.4140    2.4466 O.3     1  LIG1       -0.4589
     25 C          -1.9280    0.8728    2.7935 C.2     1  LIG1        0.3320
     26 C          -2.3383    0.2914    4.0844 C.2     1  LIG1        0.0231
     27 C          -1.4407   -0.1698    4.9684 C.2     1  LIG1       -0.0477
     28 C          -1.8319   -0.8129    6.2180 C.ar    1  LIG1       -0.0211
     29 C          -1.9866   -0.0559    7.3890 C.ar    1  LIG1       -0.0509
     30 C          -2.3297   -0.6801    8.5925 C.ar    1  LIG1       -0.0160
     31 C          -2.5128   -2.0576    8.6124 C.ar    1  LIG1        0.1582
     32 C          -2.3597   -2.8062    7.4481 C.ar    1  LIG1        0.1588
     33 O          -2.5392   -4.1594    7.4763 O.3     1  LIG1       -0.5033
     34 C          -2.0200   -2.1968    6.2497 C.ar    1  LIG1       -0.0094
     35 O          -2.8429   -2.7252    9.7586 O.3     1  LIG1       -0.5033
     36 O          -2.6496    1.5872    2.1201 O.2     1  LIG1       -0.2456
     37 O          -1.5765    2.3012   -3.5610 O.2     1  LIG1       -0.2455
     38 C           2.8094    3.2715   -6.3951 C.ar    1  LIG1       -0.0509
     39 C           3.9948    3.7148   -6.9839 C.ar    1  LIG1       -0.0160
     40 C           5.1397    2.9249   -6.9099 C.ar    1  LIG1        0.1582
     41 O           6.3078    3.3513   -7.4743 O.3     1  LIG1       -0.5033
     42 H           6.0363    0.1029   -5.7304 H       1  LIG1        0.2923
     43 H           3.8951    0.2879   -5.1640 H       1  LIG1        0.0661
     44 H           1.4882    0.4431   -5.0489 H       1  LIG1        0.0626
     45 H           0.5868    3.3661   -4.5629 H       1  LIG1        0.0689
     46 H          -1.4609   -3.1614   -3.3083 H       1  LIG1        0.2102
     47 H          -1.1221   -3.9169   -0.1393 H       1  LIG1        0.2100
     48 H          -0.6650   -1.7548    2.0878 H       1  LIG1        0.2100
     49 H          -0.3919    1.8860    1.0019 H       1  LIG1        0.0725
     50 H           0.8520    0.6702    1.1408 H       1  LIG1        0.0725
     51 H          -3.4078    0.2593    4.2571 H       1  LIG1        0.0689
     52 H          -0.3698   -0.1154    4.7900 H       1  LIG1        0.0626
     53 H          -1.8345    1.0214    7.3728 H       1  LIG1        0.0625
     54 H          -2.4445   -0.0804    9.4893 H       1  LIG1        0.0655
     55 H          -2.7700   -4.3571    8.4058 H       1  LIG1        0.2923
     56 H          -1.8990   -2.8028    5.3563 H       1  LIG1        0.0661
     57 H          -2.8971   -2.0764   10.4814 H       1  LIG1        0.2923
     58 H           1.9200    3.8914   -6.4774 H       1  LIG1        0.0625
     59 H           4.0021    4.6714   -7.4960 H       1  LIG1        0.0655
     60 H           6.1680    4.2304   -7.8568 H       1  LIG1        0.2923
@<TRIPOS>BOND
     1     1     2    1
     2     2     3   ar
     3     3     4   ar
     4     4     5    1
     5     5     6    2
     6     6     7    1
     7     7     8    1
     8     9    11    1
     9    11    12    1
    10    12    13    1
    11    12    14    1
    12    14    16    1
    13    16    17    1
    14    16    18    1
    15     9    18    1
    16    16    21    1
    17    12    23    1
    18    23    24    1
    19    24    25    1
    20    25    26    1
    21    26    27    2
    22    27    28    1
    23    28    29   ar
    24    29    30   ar
    25    30    31   ar
    26    31    32   ar
    27    32    33    1
    28    32    34   ar
    29    28    34   ar
    30    31    35    1
    31    25    36    2
    32     7    37    2
    33     4    38   ar
    34    38    39   ar
    35    39    40   ar
    36     2    40   ar
    37    40    41    1
    38     9    10    1
    39     9     8    1
    40    14    22    1
    41    14    15    1
    42    18    20    1
    43    18    19    1
    44     1    42    1
    45     3    43    1
    46     5    44    1
    47     6    45    1
    48    20    46    1
    49    21    47    1
    50    22    48    1
    51    23    49    1
    52    23    50    1
    53    26    51    1
    54    27    52    1
    55    29    53    1
    56    30    54    1
    57    33    55    1
    58    34    56    1
    59    35    57    1
    60    38    58    1
    61    39    59    1
    62    41    60    1
