@<TRIPOS>MOLECULE
NuBBE_1479
 64 65 0 0 0
SMALL
GASTEIGER

@<TRIPOS>ATOM
      1 O           5.1799   -0.3731    5.3863 O.2     1  LIG1       -0.2702
      2 C           5.3364   -0.7011    4.2277 C.2     1  LIG1        0.2441
      3 N           4.6433   -1.7420    3.6276 N.am    1  LIG1       -0.3110
      4 H           4.6498   -1.8792    2.6361 H       1  LIG1        0.1490
      5 C           3.7937   -2.6467    4.3638 C.3     1  LIG1        0.0159
      6 C           2.3687   -2.1404    4.5933 C.3     1  LIG1       -0.0120
      7 C           1.5933   -1.8896    3.3193 C.ar    1  LIG1       -0.0457
      8 C           0.4250   -2.6060    3.0336 C.ar    1  LIG1       -0.0551
      9 C          -0.3061   -2.3325    1.8715 C.ar    1  LIG1       -0.0197
     10 C           0.1286   -1.3460    0.9832 C.ar    1  LIG1        0.1210
     11 O          -0.6472   -1.1018   -0.1185 O.3     1  LIG1       -0.4880
     12 C          -0.5264    0.2365   -0.6300 C.3     1  LIG1        0.1081
     13 C          -1.7541    0.5290   -1.4338 C.2     1  LIG1       -0.0475
     14 C          -2.0557    1.6804   -2.0722 C.2     1  LIG1       -0.0629
     15 C          -1.1484    2.8932   -2.0496 C.3     1  LIG1       -0.0430
     16 C          -3.3544    1.8560   -2.8741 C.3     1  LIG1        0.0415
     17 C          -3.1075    1.4625   -4.3328 C.2     1  LIG1        0.1376
     18 C          -2.6907    0.0436   -4.6431 C.3     1  LIG1       -0.0055
     19 O          -3.2193    2.2948   -5.2374 O.2     1  LIG1       -0.2971
     20 C          -4.6000    1.1188   -2.3272 C.3     1  LIG1       -0.0213
     21 C          -5.8646    1.3382   -3.1274 C.2     1  LIG1       -0.0843
     22 C          -6.8737    0.4582   -3.2949 C.2     1  LIG1       -0.0796
     23 C          -6.8978   -0.9497   -2.7627 C.3     1  LIG1       -0.0440
     24 C          -8.1337    0.8561   -4.0231 C.3     1  LIG1       -0.0440
     25 C           1.3072   -0.6566    1.2478 C.ar    1  LIG1       -0.0197
     26 C           2.0124   -0.9052    2.4170 C.ar    1  LIG1       -0.0551
     27 C           6.3304   -0.0095    3.3407 C.ar    1  LIG1        0.0367
     28 C           7.2058    0.9341    3.9126 C.ar    1  LIG1       -0.0496
     29 C           8.1568    1.5751    3.1094 C.ar    1  LIG1       -0.0610
     30 C           8.2423    1.2789    1.7486 C.ar    1  LIG1       -0.0617
     31 C           7.3914    0.3359    1.1865 C.ar    1  LIG1       -0.0610
     32 C           6.4469   -0.3033    1.9821 C.ar    1  LIG1       -0.0496
     33 H           4.2808   -2.8479    5.3202 H       1  LIG1        0.0465
     34 H           3.7786   -3.5743    3.7798 H       1  LIG1        0.0465
     35 H           2.3746   -1.2194    5.1874 H       1  LIG1        0.0328
     36 H           1.8442   -2.8952    5.1928 H       1  LIG1        0.0328
     37 H           0.0649   -3.3688    3.7211 H       1  LIG1        0.0621
     38 H          -1.2286   -2.8769    1.6848 H       1  LIG1        0.0654
     39 H           0.3685    0.3037   -1.2629 H       1  LIG1        0.0742
     40 H          -0.4792    0.9572    0.1951 H       1  LIG1        0.0742
     41 H          -2.4446   -0.3081   -1.4735 H       1  LIG1        0.0605
     42 H          -0.2768    2.7680   -1.3983 H       1  LIG1        0.0275
     43 H          -1.6907    3.7710   -1.6807 H       1  LIG1        0.0275
     44 H          -0.7764    3.1146   -3.0551 H       1  LIG1        0.0275
     45 H          -3.5974    2.9287   -2.8678 H       1  LIG1        0.0425
     46 H          -1.6278   -0.0865   -4.4266 H       1  LIG1        0.0306
     47 H          -2.8649   -0.1564   -5.7038 H       1  LIG1        0.0306
     48 H          -3.2788   -0.6764   -4.0702 H       1  LIG1        0.0306
     49 H          -4.7963    1.4736   -1.3071 H       1  LIG1        0.0317
     50 H          -4.3926    0.0503   -2.2562 H       1  LIG1        0.0317
     51 H          -5.9684    2.3293   -3.5730 H       1  LIG1        0.0572
     52 H          -5.9597   -1.2597   -2.2990 H       1  LIG1        0.0274
     53 H          -7.0951   -1.6541   -3.5782 H       1  LIG1        0.0274
     54 H          -7.6875   -1.0586   -2.0128 H       1  LIG1        0.0274
     55 H          -8.0551    1.8449   -4.4863 H       1  LIG1        0.0274
     56 H          -8.9736    0.8840   -3.3196 H       1  LIG1        0.0274
     57 H          -8.3705    0.1360   -4.8130 H       1  LIG1        0.0274
     58 H           1.6931    0.0998    0.5738 H       1  LIG1        0.0654
     59 H           2.8930   -0.3014    2.6111 H       1  LIG1        0.0621
     60 H           7.1589    1.1677    4.9747 H       1  LIG1        0.0625
     61 H           8.8326    2.3077    3.5439 H       1  LIG1        0.0618
     62 H           8.9727    1.7816    1.1209 H       1  LIG1        0.0618
     63 H           7.4517    0.0894    0.1302 H       1  LIG1        0.0618
     64 H           5.8183   -1.0326    1.4879 H       1  LIG1        0.0625
@<TRIPOS>BOND
     1     1     2    2
     2     2     3   am
     3     3     4    1
     4     3     5    1
     5     5     6    1
     6     6     7    1
     7     7     8   ar
     8     8     9   ar
     9     9    10   ar
    10    10    11    1
    11    11    12    1
    12    12    13    1
    13    13    14    2
    14    14    15    1
    15    14    16    1
    16    16    17    1
    17    17    18    1
    18    17    19    2
    19    16    20    1
    20    20    21    1
    21    21    22    2
    22    22    23    1
    23    22    24    1
    24    10    25   ar
    25    25    26   ar
    26     7    26   ar
    27     2    27    1
    28    27    28   ar
    29    28    29   ar
    30    29    30   ar
    31    30    31   ar
    32    31    32   ar
    33    27    32   ar
    34     5    33    1
    35     5    34    1
    36     6    35    1
    37     6    36    1
    38     8    37    1
    39     9    38    1
    40    12    39    1
    41    12    40    1
    42    13    41    1
    43    15    42    1
    44    15    43    1
    45    15    44    1
    46    16    45    1
    47    18    46    1
    48    18    47    1
    49    18    48    1
    50    20    49    1
    51    20    50    1
    52    21    51    1
    53    23    52    1
    54    23    53    1
    55    23    54    1
    56    24    55    1
    57    24    56    1
    58    24    57    1
    59    25    58    1
    60    26    59    1
    61    28    60    1
    62    29    61    1
    63    30    62    1
    64    31    63    1
    65    32    64    1
