REMARK  Name = NuBBE_18
REMARK  8 active torsions:
REMARK  status: ('A' for Active; 'I' for Inactive)
REMARK    1  A    between atoms: C_2  and  C_10
REMARK    2  A    between atoms: C_11  and  C_12
REMARK    3  A    between atoms: C_14  and  O_15
REMARK    4  A    between atoms: O_15  and  C_16
REMARK    5  A    between atoms: C_17  and  O_18
REMARK    6  A    between atoms: O_18  and  C_19
REMARK    7  A    between atoms: C_20  and  O_21
REMARK    8  A    between atoms: O_21  and  C_22
REMARK                            x       y       z     vdW  Elec       q    Type
REMARK                         _______ _______ _______ _____ _____    ______ ____
ROOT
ATOM      1  C   LIG A   1       1.780  -0.134   0.233  0.00  0.00    -0.018 A 
ATOM      2  C   LIG A   1       2.150  -0.909  -0.860  0.00  0.00    +0.057 A 
ATOM      3  C   LIG A   1       2.358  -0.326  -2.116  0.00  0.00    +0.166 A 
ATOM      4  C   LIG A   1       2.187   1.067  -2.289  0.00  0.00    +0.203 A 
ATOM      5  C   LIG A   1       1.819   1.853  -1.178  0.00  0.00    +0.166 A 
ATOM      6  C   LIG A   1       1.666   1.246   0.083  0.00  0.00    +0.057 A 
ENDROOT
BRANCH   1   8
ATOM      7  C   LIG A   1       0.322  -1.220   1.966  0.00  0.00    +0.068 C 
ATOM      8  C   LIG A   1       1.512  -0.785   1.517  0.00  0.00    +0.013 C 
BRANCH   7  10
ATOM      9  O   LIG A   1      -1.000  -1.280   0.011  0.00  0.00    -0.270 OA
ATOM     10  C   LIG A   1      -0.982  -1.163   1.235  0.00  0.00    +0.246 C 
ATOM     11  N   LIG A   1      -2.153  -1.045   2.002  0.00  0.00    -0.235 N 
ATOM     12  C   LIG A   1      -3.418  -1.069   1.261  0.00  0.00    +0.121 C 
ATOM     13  C   LIG A   1      -4.495  -1.895   1.958  0.00  0.00    +0.047 C 
ATOM     14  C   LIG A   1      -4.564  -1.548   3.408  0.00  0.00    -0.020 C 
ATOM     15  C   LIG A   1      -3.527  -0.983   4.038  0.00  0.00    +0.064 C 
ATOM     16  C   LIG A   1      -2.214  -0.759   3.366  0.00  0.00    +0.246 C 
ATOM     17  O   LIG A   1      -1.282  -0.349   4.066  0.00  0.00    -0.270 OA
ENDBRANCH   7  10
ENDBRANCH   1   8
BRANCH   3  18
ATOM     18  O   LIG A   1       2.772  -1.058  -3.208  0.00  0.00    -0.491 OA
ATOM     19  C   LIG A   1       2.434  -2.442  -3.188  0.00  0.00    +0.277 C 
ENDBRANCH   3  18
BRANCH   4  20
ATOM     20  O   LIG A   1       2.290   1.502  -3.591  0.00  0.00    -0.488 OA
ATOM     21  C   LIG A   1       2.747   2.826  -3.824  0.00  0.00    +0.277 C 
ENDBRANCH   4  20
BRANCH   5  22
ATOM     22  O   LIG A   1       1.612   3.202  -1.344  0.00  0.00    -0.491 OA
ATOM     23  C   LIG A   1       0.628   3.773  -0.481  0.00  0.00    +0.277 C 
ENDBRANCH   5  22
TORSDOF 5
