REMARK  Name = NuBBE_1925
REMARK  5 active torsions:
REMARK  status: ('A' for Active; 'I' for Inactive)
REMARK    1  A    between atoms: C_1  and  C_2
REMARK    2  A    between atoms: C_10  and  C_11
REMARK    3  A    between atoms: C_10  and  C_12
REMARK    4  A    between atoms: C_17  and  C_18
REMARK    5  A    between atoms: C_17  and  C_19
REMARK                            x       y       z     vdW  Elec       q    Type
REMARK                         _______ _______ _______ _____ _____    ______ ____
ROOT
ATOM      1  C   LIG A   1      -2.052  -0.557   1.354  0.00  0.00    +0.016 C 
ATOM      2  C   LIG A   1      -0.648   0.038   1.062  0.00  0.00    -0.007 C 
ATOM      3  C   LIG A   1      -0.652   1.535   0.579  0.00  0.00    +0.012 C 
ATOM      4  C   LIG A   1      -1.601   1.708  -0.609  0.00  0.00    +0.084 C 
ATOM      5  C   LIG A   1      -1.220   0.760  -1.728  0.00  0.00    +0.160 C 
ATOM      6  C   LIG A   1      -0.387  -0.452  -1.415  0.00  0.00    -0.004 C 
ATOM      7  C   LIG A   1      -0.125  -0.799  -0.133  0.00  0.00    -0.057 C 
ATOM      8  C   LIG A   1       0.604  -2.094   0.168  0.00  0.00    +0.032 C 
ATOM      9  C   LIG A   1       0.678  -3.070  -1.011  0.00  0.00    +0.015 C 
ATOM     10  C   LIG A   1       1.057  -2.392  -2.343  0.00  0.00    -0.010 C 
ATOM     11  C   LIG A   1       0.926  -3.439  -3.473  0.00  0.00    +0.016 C 
ATOM     12  C   LIG A   1       0.043  -1.250  -2.625  0.00  0.00    +0.049 C 
ATOM     13  O   LIG A   1      -1.616   0.958  -2.877  0.00  0.00    -0.292 OA
ATOM     14  C   LIG A   1      -0.754   2.615   1.708  0.00  0.00    -0.031 C 
ATOM     15  C   LIG A   1      -0.611   4.036   1.109  0.00  0.00    +0.011 C 
ATOM     16  C   LIG A   1      -2.098   2.594   2.460  0.00  0.00    +0.011 C 
ATOM     17  C   LIG A   1       0.410   2.415   2.726  0.00  0.00    +0.007 C 
ATOM     18  C   LIG A   1       1.151   1.083   2.587  0.00  0.00    +0.001 C 
ATOM     19  C   LIG A   1       0.183  -0.073   2.377  0.00  0.00    +0.011 C 
ENDROOT
BRANCH  10  20
ATOM     20  C   LIG A   1       2.473  -1.815  -2.251  0.00  0.00    -0.028 C 
ATOM     21  C   LIG A   1       3.571  -2.224  -2.903  0.00  0.00    +0.004 C 
ENDBRANCH  10  20
TORSDOF 1
