@<TRIPOS>MOLECULE
NuBBE_192
 52 54 0 0 0
SMALL
GASTEIGER

@<TRIPOS>ATOM
      1 O          -2.0856    4.4789   -1.1267 O.3     1  LIG1       -0.3871
      2 C          -2.1787    3.6470    0.0165 C.3     1  LIG1        0.0815
      3 H          -2.2403    4.2804    0.9079 H       1  LIG1        0.0644
      4 C          -3.3969    2.8005   -0.1183 C.2     1  LIG1       -0.0534
      5 C          -3.1544    1.5111    0.1548 C.2     1  LIG1       -0.0363
      6 C          -4.1612    0.4148    0.1223 C.3     1  LIG1        0.0659
      7 O          -3.7792   -0.5508   -0.8409 O.3     1  LIG1       -0.3907
      8 C          -1.0202    2.6185    0.1472 C.3     1  LIG1        0.0357
      9 H          -0.3543    2.9249    0.9647 H       1  LIG1        0.0388
     10 C          -1.7114    1.2932    0.5721 C.3     1  LIG1        0.0546
     11 H          -1.6906    1.2243    1.6694 H       1  LIG1        0.0414
     12 C          -0.9821    0.0609   -0.0155 C.3     1  LIG1        0.2106
     13 H          -1.5886   -0.8289    0.1830 H       1  LIG1        0.1062
     14 O           0.2760   -0.1072    0.6713 O.3     1  LIG1       -0.3093
     15 C           0.9935   -1.2793    0.2416 C.3     1  LIG1        0.1918
     16 H           1.1905   -1.1971   -0.8348 H       1  LIG1        0.0939
     17 O           0.1888   -2.4320    0.5075 O.3     1  LIG1       -0.3404
     18 C           0.8331   -3.6661    0.1966 C.3     1  LIG1        0.1130
     19 H           1.1681   -3.6674   -0.8501 H       1  LIG1        0.0647
     20 C          -0.1911   -4.7947    0.3621 C.3     1  LIG1        0.0730
     21 O           0.3927   -6.0656    0.0827 O.3     1  LIG1       -0.3924
     22 C           2.0367   -3.8640    1.1267 C.3     1  LIG1        0.1119
     23 H           1.7216   -3.8766    2.1775 H       1  LIG1        0.0647
     24 O           2.7450   -5.0847    0.8787 O.3     1  LIG1       -0.3865
     25 C           3.0137   -2.7153    0.8974 C.3     1  LIG1        0.1141
     26 H           3.4921   -2.8250   -0.0843 H       1  LIG1        0.0648
     27 O           4.0921   -2.7987    1.8481 O.3     1  LIG1       -0.3864
     28 C           2.3452   -1.3411    1.0080 C.3     1  LIG1        0.1342
     29 H           2.1851   -1.0847    2.0615 H       1  LIG1        0.0671
     30 O           3.2838   -0.3680    0.5092 O.3     1  LIG1       -0.3841
     31 O          -0.8127    0.1701   -1.4408 O.2     1  LIG1       -0.4699
     32 C          -0.1928    1.3351   -1.8207 C.2     1  LIG1        0.0982
     33 C          -0.1988    2.4673   -1.1070 C.2     1  LIG1        0.0773
     34 C           0.6465    3.5978   -1.5728 C.2     1  LIG1        0.3382
     35 O           0.8873    4.4270   -0.5200 O.3     1  LIG1       -0.4646
     36 C           1.7351    5.5439   -0.7853 C.3     1  LIG1        0.0820
     37 O           1.0996    3.7080   -2.6944 O.2     1  LIG1       -0.2452
     38 H          -2.7623    5.1711   -1.0420 H       1  LIG1        0.2102
     39 H          -4.3632    3.1985   -0.3992 H       1  LIG1        0.0598
     40 H          -5.1538    0.7857   -0.1532 H       1  LIG1        0.0604
     41 H          -4.2412   -0.0702    1.0997 H       1  LIG1        0.0604
     42 H          -3.4940   -0.0665   -1.6375 H       1  LIG1        0.2098
     43 H          -1.0531   -4.6413   -0.2968 H       1  LIG1        0.0584
     44 H          -0.5765   -4.8121    1.3873 H       1  LIG1        0.0584
     45 H           0.3526   -6.1927   -0.8839 H       1  LIG1        0.2095
     46 H           2.0685   -5.7962    0.8249 H       1  LIG1        0.2100
     47 H           4.3610   -3.7410    1.8413 H       1  LIG1        0.2100
     48 H           4.1049   -0.5267    1.0178 H       1  LIG1        0.2101
     49 H           0.3123    1.2030   -2.7693 H       1  LIG1        0.1029
     50 H           1.3836    6.3808   -0.1739 H       1  LIG1        0.0661
     51 H           1.7194    5.8556   -1.8325 H       1  LIG1        0.0661
     52 H           2.7545    5.2952   -0.4775 H       1  LIG1        0.0661
@<TRIPOS>BOND
     1     1     2    1
     2     2     3    1
     3     2     4    1
     4     4     5    2
     5     5     6    1
     6     6     7    1
     7     2     8    1
     8     8     9    1
     9     8    10    1
    10    10    11    1
    11     5    10    1
    12    10    12    1
    13    12    13    1
    14    12    14    1
    15    15    17    1
    16    17    18    1
    17    18    19    1
    18    18    20    1
    19    20    21    1
    20    18    22    1
    21    22    25    1
    22    25    26    1
    23    25    27    1
    24    25    28    1
    25    15    28    1
    26    12    31    1
    27    31    32    1
    28    32    33    2
    29     8    33    1
    30    33    34    1
    31    34    35    1
    32    35    36    1
    33    34    37    2
    34    15    16    1
    35    15    14    1
    36    22    24    1
    37    22    23    1
    38    28    30    1
    39    28    29    1
    40     1    38    1
    41     4    39    1
    42     6    40    1
    43     6    41    1
    44     7    42    1
    45    20    43    1
    46    20    44    1
    47    21    45    1
    48    24    46    1
    49    27    47    1
    50    30    48    1
    51    32    49    1
    52    36    50    1
    53    36    51    1
    54    36    52    1
