REMARK  Name = NuBBE_1017
REMARK  10 active torsions:
REMARK  status: ('A' for Active; 'I' for Inactive)
REMARK    1  A    between atoms: C_1  and  C_2
REMARK    2  A    between atoms: C_2  and  C_3
REMARK    3  A    between atoms: C_7  and  O_8
REMARK    4  A    between atoms: O_8  and  C_9
REMARK    5  A    between atoms: C_10  and  O_11
REMARK    6  A    between atoms: O_11  and  C_12
REMARK    7  A    between atoms: C_14  and  C_15
REMARK    8  A    between atoms: C_15  and  C_16
REMARK    9  A    between atoms: C_16  and  C_17
REMARK   10  A    between atoms: C_17  and  O_18
REMARK                            x       y       z     vdW  Elec       q    Type
REMARK                         _______ _______ _______ _____ _____    ______ ____
ROOT
ATOM      1  C   LIG A   1      -2.474   0.778  -3.091  0.00  0.00    +0.060 C 
ATOM      2  C   LIG A   1      -1.198   1.205  -2.357  0.00  0.00    +0.123 C 
ATOM      3  C   LIG A   1      -0.150   1.696  -3.364  0.00  0.00    +0.060 C 
ATOM      4  C   LIG A   1      -1.528   2.305  -1.395  0.00  0.00    +0.020 C 
ATOM      5  C   LIG A   1      -1.060   2.331  -0.145  0.00  0.00    +0.015 C 
ATOM      6  C   LIG A   1      -0.179   1.260   0.335  0.00  0.00    +0.062 A 
ATOM      7  C   LIG A   1       0.566   1.278   1.539  0.00  0.00    +0.172 A 
ATOM      8  C   LIG A   1       1.425   0.183   1.843  0.00  0.00    +0.163 A 
ATOM      9  C   LIG A   1       1.504  -0.920   0.985  0.00  0.00    +0.056 A 
ATOM     10  C   LIG A   1       0.724  -0.987  -0.168  0.00  0.00    -0.001 A 
ATOM     11  C   LIG A   1      -0.065   0.126  -0.509  0.00  0.00    +0.136 A 
ATOM     12  O   LIG A   1      -0.707   0.018  -1.719  0.00  0.00    -0.481 OA
ENDROOT
BRANCH   7  13
ATOM     13  O   LIG A   1       0.680   2.330   2.425  0.00  0.00    -0.491 OA
ATOM     14  C   LIG A   1      -0.463   3.088   2.796  0.00  0.00    +0.277 C 
ENDBRANCH   7  13
BRANCH   8  15
ATOM     15  O   LIG A   1       2.158   0.266   3.010  0.00  0.00    -0.491 OA
ATOM     16  C   LIG A   1       2.955  -0.864   3.353  0.00  0.00    +0.277 C 
ENDBRANCH   8  15
BRANCH  10  17
ATOM     17  C   LIG A   1       0.783  -2.237  -1.023  0.00  0.00    +0.050 C 
BRANCH  17  18
ATOM     18  C   LIG A   1       0.357  -3.507  -0.277  0.00  0.00    +0.125 C 
BRANCH  18  19
ATOM     19  C   LIG A   1      -1.062  -3.476   0.163  0.00  0.00    +0.305 C 
ATOM     20  O   LIG A   1      -2.014  -3.338  -0.620  0.00  0.00    -0.251 OA
BRANCH  19  21
ATOM     21  O   LIG A   1      -1.246  -3.644   1.492  0.00  0.00    -0.481 OA
ATOM     22  H   LIG A   1      -0.428  -3.777   1.998  0.00  0.00    +0.295 HD
ENDBRANCH  19  21
ENDBRANCH  18  19
ENDBRANCH  17  18
ENDBRANCH  10  17
TORSDOF 6
