REMARK  Name = NuBBE_2092
REMARK  10 active torsions:
REMARK  status: ('A' for Active; 'I' for Inactive)
REMARK    1  A    between atoms: C_1  and  C_2
REMARK    2  A    between atoms: C_2  and  O_4
REMARK    3  A    between atoms: O_4  and  C_5
REMARK    4  A    between atoms: C_5  and  C_6
REMARK    5  A    between atoms: C_5  and  C_7
REMARK    6  A    between atoms: C_5  and  C_8
REMARK    7  A    between atoms: C_8  and  N_9
REMARK    8  A    between atoms: C_10  and  C_12
REMARK    9  A    between atoms: C_13  and  C_14
REMARK   10  A    between atoms: C_15  and  C_16
REMARK                            x       y       z     vdW  Elec       q    Type
REMARK                         _______ _______ _______ _____ _____    ______ ____
ROOT
ATOM      1  C   LIG A   1      -1.096   1.395  -0.559  0.00  0.00    +0.067 C 
ATOM      2  C   LIG A   1      -0.452   1.611   0.593  0.00  0.00    +0.005 C 
ENDROOT
BRANCH   1   4
ATOM      3  N   LIG A   1      -2.827  -0.100  -1.094  0.00  0.00    -0.308 N 
ATOM      4  C   LIG A   1      -2.553   1.115  -0.528  0.00  0.00    +0.237 C 
ATOM      5  O   LIG A   1      -3.358   1.849  -0.010  0.00  0.00    -0.271 OA
ATOM      6  H   LIG A   1      -2.018  -0.677  -1.304  0.00  0.00    +0.149 HD
BRANCH   3   7
ATOM      7  C   LIG A   1      -4.121  -0.747  -1.047  0.00  0.00    +0.151 C 
BRANCH   7   8
ATOM      8  C   LIG A   1      -4.147  -2.187  -1.651  0.00  0.00    +0.123 C 
ATOM      9  C   LIG A   1      -3.824  -2.208  -3.152  0.00  0.00    +0.057 C 
ATOM     10  C   LIG A   1      -5.578  -2.747  -1.479  0.00  0.00    +0.057 C 
BRANCH   8  11
ATOM     11  O   LIG A   1      -3.290  -3.126  -0.920  0.00  0.00    -0.457 OA
BRANCH  11  13
ATOM     12  C   LIG A   1      -1.276  -4.071  -0.127  0.00  0.00    +0.136 C 
ATOM     13  C   LIG A   1      -1.943  -2.967  -0.870  0.00  0.00    +0.304 C 
ATOM     14  O   LIG A   1      -1.300  -2.059  -1.389  0.00  0.00    -0.251 OA
ENDBRANCH  11  13
ENDBRANCH   8  11
ENDBRANCH   7   8
ENDBRANCH   3   7
ENDBRANCH   1   4
BRANCH   2  15
ATOM     15  C   LIG A   1       0.987   1.738   0.663  0.00  0.00    +0.001 C 
ATOM     16  C   LIG A   1       1.615   2.393   1.652  0.00  0.00    +0.008 C 
BRANCH  16  17
ATOM     17  C   LIG A   1       3.079   2.433   1.821  0.00  0.00    -0.021 A 
ATOM     18  C   LIG A   1       3.599   2.680   3.114  0.00  0.00    +0.012 A 
ATOM     19  C   LIG A   1       4.978   2.673   3.356  0.00  0.00    +0.050 A 
ATOM     20  C   LIG A   1       5.814   2.430   2.290  0.00  0.00    +0.166 A 
ATOM     21  O   LIG A   1       7.171   2.365   2.337  0.00  0.00    -0.453 OA
ATOM     22  C   LIG A   1       7.477   2.095   0.953  0.00  0.00    +0.466 C 
ATOM     23  O   LIG A   1       6.308   1.995   0.115  0.00  0.00    -0.453 OA
ATOM     24  C   LIG A   1       5.323   2.218   1.025  0.00  0.00    +0.167 A 
ATOM     25  C   LIG A   1       3.970   2.226   0.756  0.00  0.00    +0.057 A 
ENDBRANCH  16  17
ENDBRANCH   2  15
TORSDOF 7
