REMARK  Name = NuBBE_49
REMARK  21 active torsions:
REMARK  status: ('A' for Active; 'I' for Inactive)
REMARK    1  A    between atoms: O_1  and  C_2
REMARK    2  A    between atoms: C_6  and  O_8
REMARK    3  A    between atoms: O_8  and  C_9
REMARK    4  A    between atoms: C_9  and  C_10
REMARK    5  A    between atoms: C_10  and  C_11
REMARK    6  A    between atoms: C_11  and  C_12
REMARK    7  A    between atoms: C_15  and  O_17
REMARK    8  A    between atoms: O_17  and  C_18
REMARK    9  A    between atoms: C_18  and  C_19
REMARK   10  A    between atoms: C_22  and  O_24
REMARK   11  A    between atoms: C_25  and  O_27
REMARK   12  A    between atoms: O_27  and  C_28
REMARK   13  A    between atoms: C_28  and  C_29
REMARK   14  A    between atoms: C_29  and  C_30
REMARK   15  A    between atoms: C_30  and  C_31
REMARK   16  A    between atoms: C_33  and  C_35
REMARK   17  A    between atoms: C_36  and  C_37
REMARK   18  A    between atoms: C_36  and  C_38
REMARK   19  A    between atoms: C_38  and  C_39
REMARK   20  A    between atoms: C_40  and  C_41
REMARK   21  A    between atoms: C_40  and  C_43
REMARK                            x       y       z     vdW  Elec       q    Type
REMARK                         _______ _______ _______ _____ _____    ______ ____
ROOT
ATOM      1  C   LIG A   1      -2.465  -0.493  -0.289  0.00  0.00    +0.138 C 
ATOM      2  C   LIG A   1      -1.936  -1.063   0.962  0.00  0.00    +0.010 C 
ATOM      3  C   LIG A   1      -0.700  -0.850   1.427  0.00  0.00    +0.011 C 
ATOM      4  C   LIG A   1      -0.063  -1.544   2.602  0.00  0.00    +0.343 C 
ATOM      5  O   LIG A   1       1.340  -1.522   2.327  0.00  0.00    -0.297 OA
ATOM      6  C   LIG A   1       1.558  -0.870   1.063  0.00  0.00    +0.327 C 
ATOM      7  C   LIG A   1       0.324   0.076   0.791  0.00  0.00    +0.093 C 
ATOM      8  C   LIG A   1       0.332   1.378   1.671  0.00  0.00    +0.172 C 
ATOM      9  C   LIG A   1       0.503   2.726   0.945  0.00  0.00    +0.209 C 
ATOM     10  C   LIG A   1       1.352   2.646  -0.343  0.00  0.00    +0.036 C 
ATOM     11  C   LIG A   1       2.845   2.555   0.015  0.00  0.00    +0.012 C 
ATOM     12  C   LIG A   1       0.835   1.594  -1.409  0.00  0.00    -0.019 C 
ATOM     13  C   LIG A   1      -0.039   2.447  -2.382  0.00  0.00    +0.012 C 
ATOM     14  C   LIG A   1       0.044   0.352  -0.731  0.00  0.00    +0.017 C 
ATOM     15  C   LIG A   1      -1.425   0.114  -1.235  0.00  0.00    +0.040 C 
ENDROOT
BRANCH   1  16
ATOM     16  O   LIG A   1      -3.150  -1.552  -0.962  0.00  0.00    -0.388 OA
ATOM     17  H   LIG A   1      -2.522  -2.290  -1.065  0.00  0.00    +0.210 HD
ENDBRANCH   1  16
BRANCH   8  18
ATOM     18  O   LIG A   1       1.322   1.294   2.701  0.00  0.00    -0.387 OA
ATOM     19  H   LIG A   1       1.144   2.009   3.343  0.00  0.00    +0.210 HD
ENDBRANCH   8  18
BRANCH   4  20
ATOM     20  O   LIG A   1      -0.494  -2.899   2.708  0.00  0.00    -0.431 OA
BRANCH  20  21
ATOM     21  C   LIG A   1      -1.622  -3.111   3.442  0.00  0.00    +0.309 C 
ATOM     22  O   LIG A   1      -2.246  -2.264   4.038  0.00  0.00    -0.251 OA
BRANCH  21  23
ATOM     23  C   LIG A   1      -2.009  -4.580   3.428  0.00  0.00    +0.120 C 
BRANCH  23  24
ATOM     24  C   LIG A   1      -1.610  -5.328   2.156  0.00  0.00    +0.008 C 
ATOM     25  C   LIG A   1      -2.264  -4.776   0.896  0.00  0.00    +0.004 C 
ENDBRANCH  23  24
ENDBRANCH  21  23
ENDBRANCH  20  21
ENDBRANCH   4  20
BRANCH   6  26
ATOM     26  O   LIG A   1       1.702  -1.884   0.042  0.00  0.00    -0.434 OA
BRANCH  26  27
ATOM     27  C   LIG A   1       2.900  -2.530   0.019  0.00  0.00    +0.306 C 
ATOM     28  C   LIG A   1       2.934  -3.551  -1.085  0.00  0.00    +0.136 C 
ATOM     29  O   LIG A   1       3.834  -2.336   0.777  0.00  0.00    -0.251 OA
ENDBRANCH  26  27
ENDBRANCH   6  26
BRANCH   9  30
ATOM     30  O   LIG A   1      -0.820   3.295   0.717  0.00  0.00    -0.458 OA
BRANCH  30  31
ATOM     31  C   LIG A   1      -1.341   3.966   1.802  0.00  0.00    +0.307 C 
ATOM     32  O   LIG A   1      -0.686   4.261   2.800  0.00  0.00    -0.251 OA
BRANCH  31  33
ATOM     33  C   LIG A   1      -2.821   4.263   1.633  0.00  0.00    +0.120 C 
BRANCH  33  34
ATOM     34  C   LIG A   1      -3.633   4.219   2.943  0.00  0.00    +0.008 C 
ATOM     35  C   LIG A   1      -3.310   5.309   3.960  0.00  0.00    +0.004 C 
ENDBRANCH  33  34
ENDBRANCH  31  33
ENDBRANCH  30  31
ENDBRANCH   9  30
BRANCH  12  36
ATOM     36  C   LIG A   1       2.011   1.030  -2.340  0.00  0.00    +0.034 C 
BRANCH  36  37
ATOM     37  C   LIG A   1       1.544   0.024  -3.380  0.00  0.00    -0.023 C 
ATOM     38  C   LIG A   1       2.206  -0.598  -4.373  0.00  0.00    -0.055 C 
ATOM     39  C   LIG A   1       1.472  -1.617  -5.223  0.00  0.00    +0.043 C 
BRANCH  38  40
ATOM     40  C   LIG A   1       3.603  -0.374  -4.691  0.00  0.00    -0.005 C 
ATOM     41  C   LIG A   1       4.096  -0.559  -5.925  0.00  0.00    +0.008 C 
ENDBRANCH  38  40
ENDBRANCH  36  37
ENDBRANCH  12  36
TORSDOF 15
