REMARK  Name = NuBBE_651
REMARK  2 active torsions:
REMARK  status: ('A' for Active; 'I' for Inactive)
REMARK    1  A    between atoms: C_14  and  C_15
REMARK    2  A    between atoms: C_14  and  C_16
REMARK                            x       y       z     vdW  Elec       q    Type
REMARK                         _______ _______ _______ _____ _____    ______ ____
ROOT
ATOM      1  O   LIG A   1      -5.584   1.844  -0.027  0.00  0.00    -0.245 OA
ATOM      2  C   LIG A   1      -4.359   1.847  -0.019  0.00  0.00    +0.337 A 
ATOM      3  C   LIG A   1      -3.612   3.118  -0.017  0.00  0.00    +0.092 A 
ATOM      4  C   LIG A   1      -2.277   3.167  -0.007  0.00  0.00    +0.018 A 
ATOM      5  O   LIG A   1      -3.611   0.678  -0.012  0.00  0.00    -0.422 OA
ATOM      6  C   LIG A   1      -2.203   0.716   0.003  0.00  0.00    +0.143 A 
ATOM      7  C   LIG A   1      -1.517   1.928   0.006  0.00  0.00    +0.018 A 
ATOM      8  C   LIG A   1      -0.120   1.917   0.027  0.00  0.00    +0.023 A 
ATOM      9  C   LIG A   1      -1.531  -0.502   0.020  0.00  0.00    +0.093 A 
ATOM     10  C   LIG A   1      -0.137  -0.507   0.040  0.00  0.00    +0.132 A 
ATOM     11  C   LIG A   1       0.573   0.699   0.046  0.00  0.00    +0.017 A 
ATOM     12  C   LIG A   1       2.026   0.681   0.085  0.00  0.00    +0.011 C 
ATOM     13  C   LIG A   1       2.635  -0.508   0.069  0.00  0.00    +0.020 C 
ATOM     14  C   LIG A   1       1.892  -1.824   0.009  0.00  0.00    +0.123 C 
ATOM     15  C   LIG A   1       2.234  -2.532  -1.306  0.00  0.00    +0.060 C 
ATOM     16  C   LIG A   1       2.311  -2.693   1.200  0.00  0.00    +0.060 C 
ATOM     17  O   LIG A   1       0.453  -1.738   0.066  0.00  0.00    -0.481 OA
ENDROOT
TORSDOF 0
