REMARK  Name = NuBBE_1550
REMARK  10 active torsions:
REMARK  status: ('A' for Active; 'I' for Inactive)
REMARK    1  A    between atoms: C_5  and  C_6
REMARK    2  A    between atoms: C_9  and  O_11
REMARK    3  A    between atoms: C_12  and  C_13
REMARK    4  A    between atoms: C_17  and  C_18
REMARK    5  A    between atoms: C_22  and  C_24
REMARK    6  A    between atoms: C_24  and  C_25
REMARK    7  A    between atoms: C_25  and  C_26
REMARK    8  A    between atoms: C_26  and  O_27
REMARK    9  A    between atoms: C_30  and  C_31
REMARK   10  A    between atoms: C_30  and  C_32
REMARK                            x       y       z     vdW  Elec       q    Type
REMARK                         _______ _______ _______ _____ _____    ______ ____
ROOT
ATOM      1  O   LIG A   1       0.173  -6.039   2.438  0.00  0.00    -0.292 OA
ATOM      2  C   LIG A   1       0.118  -4.904   1.963  0.00  0.00    +0.162 C 
ATOM      3  C   LIG A   1      -0.010  -3.768   2.905  0.00  0.00    +0.043 C 
ATOM      4  C   LIG A   1       0.174  -2.499   2.519  0.00  0.00    -0.016 C 
ATOM      5  C   LIG A   1       0.518  -2.074   1.093  0.00  0.00    -0.006 C 
ATOM      6  C   LIG A   1       2.059  -2.052   1.031  0.00  0.00    +0.016 C 
ATOM      7  C   LIG A   1      -0.150  -3.137   0.147  0.00  0.00    +0.014 C 
ATOM      8  C   LIG A   1      -0.000  -2.743  -1.337  0.00  0.00    +0.037 C 
ATOM      9  C   LIG A   1      -0.686  -1.403  -1.623  0.00  0.00    +0.122 C 
ATOM     10  C   LIG A   1      -0.154  -0.228  -0.740  0.00  0.00    +0.007 C 
ATOM     11  C   LIG A   1       1.252   0.138  -1.289  0.00  0.00    +0.014 C 
ATOM     12  C   LIG A   1      -0.128  -0.659   0.772  0.00  0.00    +0.008 C 
ATOM     13  C   LIG A   1       0.409   0.519   1.619  0.00  0.00    +0.005 C 
ATOM     14  C   LIG A   1      -0.557   1.701   1.586  0.00  0.00    +0.008 C 
ATOM     15  C   LIG A   1      -1.046   2.151   0.190  0.00  0.00    -0.018 C 
ATOM     16  C   LIG A   1      -2.466   2.755   0.397  0.00  0.00    +0.012 C 
ATOM     17  C   LIG A   1      -1.150   0.989  -0.851  0.00  0.00    +0.070 C 
ATOM     18  C   LIG A   1      -1.001   1.737  -2.159  0.00  0.00    +0.138 C 
ATOM     19  C   LIG A   1      -0.494   3.138  -1.984  0.00  0.00    +0.079 C 
ATOM     20  C   LIG A   1      -0.107   3.196  -0.495  0.00  0.00    +0.010 C 
ATOM     21  O   LIG A   1      -1.261   1.251  -3.262  0.00  0.00    -0.297 OA
ATOM     22  C   LIG A   1       0.185  -4.636   0.453  0.00  0.00    +0.031 C 
ATOM     23  C   LIG A   1      -0.895  -5.545  -0.190  0.00  0.00    +0.019 C 
ATOM     24  C   LIG A   1       1.551  -5.107  -0.067  0.00  0.00    +0.019 C 
ENDROOT
BRANCH   9  25
ATOM     25  O   LIG A   1      -2.086  -1.593  -1.399  0.00  0.00    -0.391 OA
ATOM     26  H   LIG A   1      -2.449  -2.008  -2.202  0.00  0.00    +0.210 HD
ENDBRANCH   9  25
BRANCH  20  27
ATOM     27  C   LIG A   1      -0.177   4.634   0.058  0.00  0.00    +0.081 C 
BRANCH  27  28
ATOM     28  C   LIG A   1       0.765   5.607  -0.641  0.00  0.00    +0.159 C 
ATOM     29  O   LIG A   1       1.553   5.258  -1.522  0.00  0.00    -0.295 OA
BRANCH  28  30
ATOM     30  C   LIG A   1       0.724   7.054  -0.154  0.00  0.00    +0.229 C 
BRANCH  30  31
ATOM     31  O   LIG A   1       1.603   7.904  -0.871  0.00  0.00    -0.388 OA
ATOM     32  H   LIG A   1       2.378   7.363  -1.117  0.00  0.00    +0.210 HD
ENDBRANCH  30  31
ENDBRANCH  28  30
ENDBRANCH  27  28
ENDBRANCH  20  27
TORSDOF 5
