@<TRIPOS>MOLECULE
NuBBE_85
 53 57 0 0 0
SMALL
GASTEIGER

@<TRIPOS>ATOM
      1 C           0.7920   -2.1472   -3.3047 C.3     1  LIG1       -0.0594
      2 C           1.3252   -2.0900   -1.8829 C.3     1  LIG1       -0.0081
      3 H           2.1205   -2.8471   -1.8068 H       1  LIG1        0.0330
      4 C           1.9219   -0.7416   -1.5074 C.3     1  LIG1       -0.0081
      5 H           1.1614    0.0231   -1.7083 H       1  LIG1        0.0330
      6 C           3.1865   -0.3803   -2.2759 C.3     1  LIG1       -0.0594
      7 C           2.1338   -0.9215    0.0028 C.3     1  LIG1        0.0875
      8 H           3.0862   -1.4405    0.1802 H       1  LIG1        0.0649
      9 C           2.1177    0.3249    0.8678 C.ar    1  LIG1       -0.0115
     10 C           2.3153    0.2044    2.2668 C.ar    1  LIG1       -0.0104
     11 C           2.3039    1.3193    3.1250 C.ar    1  LIG1        0.1657
     12 O           2.5114    1.0522    4.4478 O.3     1  LIG1       -0.4913
     13 C           1.9413    1.9848    5.3620 C.3     1  LIG1        0.0790
     14 C           2.1197    2.5639    2.5488 C.ar    1  LIG1        0.2075
     15 O           2.1147    3.7801    3.1625 O.3     1  LIG1       -0.4489
     16 C           1.8889    4.6664    2.0506 C.3     1  LIG1        0.2334
     17 O           1.7783    3.9866    0.7931 O.3     1  LIG1       -0.4525
     18 C           1.9343    2.6895    1.1914 C.ar    1  LIG1        0.1702
     19 C           1.9238    1.6092    0.3364 C.ar    1  LIG1       -0.0103
     20 O           1.0896   -1.8236    0.4436 O.3     1  LIG1       -0.3636
     21 C           0.3631   -2.3319   -0.7067 C.3     1  LIG1        0.0875
     22 H           0.2333   -3.4089   -0.5443 H       1  LIG1        0.0649
     23 C          -1.0313   -1.7159   -0.7525 C.ar    1  LIG1       -0.0115
     24 C          -1.4743   -0.8157    0.2346 C.ar    1  LIG1       -0.0103
     25 C          -2.7557   -0.3102    0.1501 C.ar    1  LIG1        0.1702
     26 O          -3.3041    0.5762    1.0304 O.3     1  LIG1       -0.4525
     27 C          -4.6058    0.7647    0.4537 C.3     1  LIG1        0.2334
     28 O          -4.8121   -0.0056   -0.7464 O.3     1  LIG1       -0.4489
     29 C          -3.6253   -0.6602   -0.8577 C.ar    1  LIG1        0.2075
     30 C          -3.2534   -1.5708   -1.8294 C.ar    1  LIG1        0.1657
     31 O          -4.0017   -2.0001   -2.8854 O.3     1  LIG1       -0.4913
     32 C          -5.4109   -2.0032   -2.6836 C.3     1  LIG1        0.0790
     33 C          -1.9559   -2.0983   -1.7552 C.ar    1  LIG1       -0.0104
     34 H           1.6207   -2.1678   -4.0210 H       1  LIG1        0.0233
     35 H           0.1781   -1.2735   -3.5470 H       1  LIG1        0.0233
     36 H           0.2113   -3.0568   -3.4765 H       1  LIG1        0.0233
     37 H           3.9535   -1.1547   -2.1759 H       1  LIG1        0.0233
     38 H           3.6109    0.5637   -1.9209 H       1  LIG1        0.0233
     39 H           2.9678   -0.2595   -3.3421 H       1  LIG1        0.0233
     40 H           2.4661   -0.7842    2.7024 H       1  LIG1        0.0659
     41 H           2.0339    1.5654    6.3685 H       1  LIG1        0.0660
     42 H           0.8745    2.1347    5.1608 H       1  LIG1        0.0660
     43 H           2.4852    2.9336    5.3639 H       1  LIG1        0.0660
     44 H           2.7223    5.3755    1.9892 H       1  LIG1        0.1166
     45 H           0.9641    5.2259    2.2317 H       1  LIG1        0.1166
     46 H           1.7716    1.7932   -0.7188 H       1  LIG1        0.0659
     47 H          -0.8386   -0.5195    1.0636 H       1  LIG1        0.0659
     48 H          -4.7380    1.8251    0.2140 H       1  LIG1        0.1166
     49 H          -5.3672    0.4712    1.1848 H       1  LIG1        0.1166
     50 H          -5.8723   -2.4703   -3.5576 H       1  LIG1        0.0660
     51 H          -5.8182   -0.9906   -2.6189 H       1  LIG1        0.0660
     52 H          -5.6754   -2.5998   -1.8034 H       1  LIG1        0.0660
     53 H          -1.6824   -2.8446   -2.4970 H       1  LIG1        0.0659
@<TRIPOS>BOND
     1     1     2    1
     2     2     3    1
     3     2     4    1
     4     4     7    1
     5     9    10   ar
     6    10    11   ar
     7    11    12    1
     8    12    13    1
     9    11    14   ar
    10    14    15    1
    11    15    16    1
    12    16    17    1
    13    14    18   ar
    14    17    18    1
    15    18    19   ar
    16     9    19   ar
    17     7    20    1
    18    20    21    1
    19     2    21    1
    20    23    24   ar
    21    24    25   ar
    22    25    26    1
    23    26    27    1
    24    27    28    1
    25    25    29   ar
    26    28    29    1
    27    29    30   ar
    28    30    31    1
    29    31    32    1
    30    30    33   ar
    31    23    33   ar
    32     7     9    1
    33     7     8    1
    34     4     6    1
    35     4     5    1
    36    21    23    1
    37    21    22    1
    38     1    34    1
    39     1    35    1
    40     1    36    1
    41     6    37    1
    42     6    38    1
    43     6    39    1
    44    10    40    1
    45    13    41    1
    46    13    42    1
    47    13    43    1
    48    16    44    1
    49    16    45    1
    50    19    46    1
    51    24    47    1
    52    27    48    1
    53    27    49    1
    54    32    50    1
    55    32    51    1
    56    32    52    1
    57    33    53    1
