@<TRIPOS>MOLECULE
NuBBE_1853
 27 28 0 0 0
SMALL
GASTEIGER

@<TRIPOS>ATOM
      1 C          -3.0542    1.5275    2.7773 C.3     1  LIG1       -0.0158
      2 N          -1.6141    1.3049    2.7327 N.3     1  LIG1       -0.3187
      3 C          -1.1631    1.0800    1.3521 C.3     1  LIG1       -0.0003
      4 C           0.3538    0.8449    1.2942 C.3     1  LIG1       -0.0131
      5 C           0.8387    0.6122   -0.1054 C.ar    1  LIG1       -0.0212
      6 C           1.2690    1.5801   -0.9925 C.ar    1  LIG1        0.0059
      7 N           1.6296    0.9661   -2.1617 N.ar    1  LIG1       -0.3604
      8 C           1.4446   -0.3929   -2.0614 C.ar    1  LIG1        0.0467
      9 C           0.9509   -0.6468   -0.7813 C.ar    1  LIG1        0.0029
     10 C           0.6785   -1.9829   -0.4209 C.ar    1  LIG1       -0.0523
     11 C           0.9082   -3.0083   -1.3463 C.ar    1  LIG1       -0.0611
     12 C           1.4002   -2.7208   -2.6168 C.ar    1  LIG1       -0.0598
     13 C           1.6787   -1.4058   -2.9999 C.ar    1  LIG1       -0.0378
     14 H          -3.3644    1.7080    3.8113 H       1  LIG1        0.0388
     15 H          -3.6069    0.6576    2.4076 H       1  LIG1        0.0388
     16 H          -3.3382    2.4077    2.1912 H       1  LIG1        0.0388
     17 H          -1.3838    0.4906    3.3017 H       1  LIG1        0.1216
     18 H          -1.4149    1.9534    0.7376 H       1  LIG1        0.0427
     19 H          -1.6847    0.2141    0.9252 H       1  LIG1        0.0427
     20 H           0.6229   -0.0162    1.9191 H       1  LIG1        0.0326
     21 H           0.8799    1.7105    1.7176 H       1  LIG1        0.0326
     22 H           1.3501    2.6541   -0.8879 H       1  LIG1        0.0810
     23 H           1.9844    1.4363   -2.9816 H       1  LIG1        0.1653
     24 H           0.2972   -2.2200    0.5673 H       1  LIG1        0.0624
     25 H           0.7009   -4.0384   -1.0675 H       1  LIG1        0.0618
     26 H           1.5725   -3.5308   -3.3220 H       1  LIG1        0.0618
     27 H           2.0640   -1.1851   -3.9895 H       1  LIG1        0.0638
@<TRIPOS>BOND
     1     1     2    1
     2     2     3    1
     3     3     4    1
     4     4     5    1
     5     5     6   ar
     6     6     7   ar
     7     7     8   ar
     8     8     9   ar
     9     5     9   ar
    10     9    10   ar
    11    10    11   ar
    12    11    12   ar
    13    12    13   ar
    14     8    13   ar
    15     1    14    1
    16     1    15    1
    17     1    16    1
    18     2    17    1
    19     3    18    1
    20     3    19    1
    21     4    20    1
    22     4    21    1
    23     6    22    1
    24     7    23    1
    25    10    24    1
    26    11    25    1
    27    12    26    1
    28    13    27    1
