REMARK  Name = NuBBE_136
REMARK  8 active torsions:
REMARK  status: ('A' for Active; 'I' for Inactive)
REMARK    1  A    between atoms: O_1  and  C_2
REMARK    2  A    between atoms: C_2  and  C_3
REMARK    3  A    between atoms: C_4  and  C_5
REMARK    4  A    between atoms: C_7  and  O_8
REMARK    5  A    between atoms: O_8  and  C_9
REMARK    6  A    between atoms: C_10  and  O_11
REMARK    7  A    between atoms: C_12  and  O_13
REMARK    8  A    between atoms: O_13  and  C_14
REMARK                            x       y       z     vdW  Elec       q    Type
REMARK                         _______ _______ _______ _____ _____    ______ ____
ROOT
ATOM      1  C   LIG A   1      -0.409  -0.341   0.704  0.00  0.00    -0.018 A 
ATOM      2  C   LIG A   1      -0.393   1.040   0.447  0.00  0.00    +0.057 A 
ATOM      3  C   LIG A   1       0.219   1.563  -0.700  0.00  0.00    +0.166 A 
ATOM      4  C   LIG A   1       0.843   0.685  -1.585  0.00  0.00    +0.201 A 
ATOM      5  C   LIG A   1       0.853  -0.696  -1.342  0.00  0.00    +0.166 A 
ATOM      6  C   LIG A   1       0.219  -1.204  -0.205  0.00  0.00    +0.057 A 
ENDROOT
BRANCH   1   8
ATOM      7  C   LIG A   1      -1.266  -0.295   3.037  0.00  0.00    +0.092 C 
ATOM      8  C   LIG A   1      -1.117  -0.923   1.859  0.00  0.00    +0.015 C 
BRANCH   7   9
ATOM      9  C   LIG A   1      -1.997  -0.934   4.144  0.00  0.00    +0.330 C 
ATOM     10  O   LIG A   1      -2.747  -1.896   4.025  0.00  0.00    -0.246 OA
BRANCH   9  11
ATOM     11  O   LIG A   1      -1.740  -0.335   5.325  0.00  0.00    -0.477 OA
ATOM     12  H   LIG A   1      -1.074   0.377   5.290  0.00  0.00    +0.295 HD
ENDBRANCH   9  11
ENDBRANCH   7   9
ENDBRANCH   1   8
BRANCH   3  13
ATOM     13  O   LIG A   1       0.135   2.927  -0.817  0.00  0.00    -0.491 OA
ATOM     14  C   LIG A   1       0.180   3.436  -2.147  0.00  0.00    +0.277 C 
ENDBRANCH   3  13
BRANCH   4  15
ATOM     15  O   LIG A   1       1.459   1.131  -2.727  0.00  0.00    -0.501 OA
ATOM     16  H   LIG A   1       1.654   0.331  -3.249  0.00  0.00    +0.292 HD
ENDBRANCH   4  15
BRANCH   5  17
ATOM     17  O   LIG A   1       1.510  -1.433  -2.297  0.00  0.00    -0.491 OA
ATOM     18  C   LIG A   1       1.531  -2.841  -2.104  0.00  0.00    +0.277 C 
ENDBRANCH   5  17
TORSDOF 6
