REMARK  Name = NuBBE_450
REMARK  8 active torsions:
REMARK  status: ('A' for Active; 'I' for Inactive)
REMARK    1  A    between atoms: C_3  and  C_5
REMARK    2  A    between atoms: C_10  and  C_11
REMARK    3  A    between atoms: C_11  and  O_12
REMARK    4  A    between atoms: O_12  and  C_13
REMARK    5  A    between atoms: C_13  and  C_14
REMARK    6  A    between atoms: C_18  and  O_20
REMARK    7  A    between atoms: O_20  and  C_21
REMARK    8  A    between atoms: C_21  and  C_22
REMARK                            x       y       z     vdW  Elec       q    Type
REMARK                         _______ _______ _______ _____ _____    ______ ____
ROOT
ATOM      1  C   LIG A   1      -0.398   0.050   1.549  0.00  0.00    +0.081 C 
ATOM      2  C   LIG A   1       0.564  -0.060   2.742  0.00  0.00    -0.003 C 
ATOM      3  C   LIG A   1      -0.018   0.434   4.056  0.00  0.00    +0.008 C 
ATOM      4  C   LIG A   1       0.859  -1.555   2.761  0.00  0.00    +0.004 C 
ATOM      5  C   LIG A   1       0.987  -1.937   1.285  0.00  0.00    +0.009 C 
ATOM      6  C   LIG A   1       0.257  -0.845   0.472  0.00  0.00    +0.032 C 
ATOM      7  C   LIG A   1       1.168  -0.052  -0.446  0.00  0.00    +0.005 C 
ATOM      8  C   LIG A   1       1.292   1.279  -0.310  0.00  0.00    +0.194 C 
ATOM      9  O   LIG A   1       0.585   2.065   0.560  0.00  0.00    -0.461 OA
ATOM     10  C   LIG A   1      -0.633   1.465   1.023  0.00  0.00    +0.370 C 
ENDROOT
BRANCH   7  11
ATOM     11  C   LIG A   1       1.916  -0.772  -1.538  0.00  0.00    +0.266 C 
BRANCH  11  12
ATOM     12  O   LIG A   1       0.973  -1.432  -2.396  0.00  0.00    -0.460 OA
BRANCH  12  13
ATOM     13  C   LIG A   1       1.009  -1.060  -3.704  0.00  0.00    +0.304 C 
ATOM     14  C   LIG A   1       0.030  -1.850  -4.510  0.00  0.00    +0.136 C 
ATOM     15  O   LIG A   1       1.761  -0.233  -4.190  0.00  0.00    -0.251 OA
ENDBRANCH  12  13
ENDBRANCH  11  12
ENDBRANCH   7  11
BRANCH  10  16
ATOM     16  O   LIG A   1      -1.604   1.373  -0.038  0.00  0.00    -0.425 OA
BRANCH  16  17
ATOM     17  C   LIG A   1      -2.286   2.510  -0.306  0.00  0.00    +0.307 C 
ATOM     18  C   LIG A   1      -3.128   2.325  -1.531  0.00  0.00    +0.136 C 
ATOM     19  O   LIG A   1      -2.224   3.557   0.326  0.00  0.00    -0.251 OA
ENDBRANCH  16  17
ENDBRANCH  10  16
TORSDOF 5
