REMARK  Name = NuBBE_1629
REMARK  19 active torsions:
REMARK  status: ('A' for Active; 'I' for Inactive)
REMARK    1  A    between atoms: C_1  and  C_2
REMARK    2  A    between atoms: C_1  and  C_16
REMARK    3  A    between atoms: C_3  and  C_4
REMARK    4  A    between atoms: C_3  and  C_15
REMARK    5  A    between atoms: C_4  and  C_5
REMARK    6  A    between atoms: C_5  and  C_6
REMARK    7  A    between atoms: C_7  and  C_8
REMARK    8  A    between atoms: C_7  and  C_14
REMARK    9  A    between atoms: C_8  and  C_9
REMARK   10  A    between atoms: C_9  and  C_10
REMARK   11  A    between atoms: C_11  and  C_12
REMARK   12  A    between atoms: C_11  and  C_13
REMARK   13  A    between atoms: C_16  and  C_17
REMARK   14  A    between atoms: C_17  and  C_18
REMARK   15  A    between atoms: C_18  and  O_20
REMARK   16  A    between atoms: O_20  and  C_21
REMARK   17  A    between atoms: C_23  and  O_25
REMARK   18  A    between atoms: O_25  and  C_26
REMARK   19  A    between atoms: C_26  and  C_28
REMARK                            x       y       z     vdW  Elec       q    Type
REMARK                         _______ _______ _______ _____ _____    ______ ____
ROOT
ATOM      1  C   LIG A   1       0.628   0.116   3.671  0.00  0.00    +0.050 C 
ATOM      2  C   LIG A   1       1.704  -0.742   2.940  0.00  0.00    +0.064 C 
ATOM      3  C   LIG A   1       1.218  -1.737   1.871  0.00  0.00    +0.200 C 
ATOM      4  C   LIG A   1      -0.253  -1.996   1.832  0.00  0.00    +0.020 C 
ATOM      5  C   LIG A   1      -1.169  -1.435   2.622  0.00  0.00    +0.046 C 
ATOM      6  C   LIG A   1      -0.789  -0.456   3.654  0.00  0.00    +0.163 C 
ATOM      7  O   LIG A   1      -1.662  -0.073   4.435  0.00  0.00    -0.292 OA
ENDROOT
BRANCH   1   8
ATOM      8  C   LIG A   1       0.531   1.543   3.034  0.00  0.00    +0.042 C 
BRANCH   8   9
ATOM      9  C   LIG A   1       0.212   1.579   1.556  0.00  0.00    -0.027 C 
ATOM     10  C   LIG A   1      -1.002   1.665   0.973  0.00  0.00    -0.076 C 
ATOM     11  C   LIG A   1      -2.318   1.730   1.705  0.00  0.00    +0.038 C 
BRANCH  10  12
ATOM     12  C   LIG A   1      -1.129   1.683  -0.542  0.00  0.00    +0.034 C 
BRANCH  12  13
ATOM     13  C   LIG A   1      -1.271   0.265  -1.110  0.00  0.00    +0.031 C 
BRANCH  13  14
ATOM     14  C   LIG A   1      -1.367   0.264  -2.611  0.00  0.00    -0.027 C 
ATOM     15  C   LIG A   1      -0.524  -0.316  -3.491  0.00  0.00    -0.076 C 
ATOM     16  C   LIG A   1       0.686  -1.125  -3.111  0.00  0.00    +0.038 C 
BRANCH  15  17
ATOM     17  C   LIG A   1      -0.778  -0.200  -4.988  0.00  0.00    +0.034 C 
BRANCH  17  18
ATOM     18  C   LIG A   1      -0.085   0.995  -5.664  0.00  0.00    +0.031 C 
BRANCH  18  19
ATOM     19  C   LIG A   1      -0.530   2.328  -5.122  0.00  0.00    -0.028 C 
ATOM     20  C   LIG A   1      -1.542   3.101  -5.561  0.00  0.00    -0.080 C 
ATOM     21  C   LIG A   1      -2.449   2.760  -6.711  0.00  0.00    +0.038 C 
ATOM     22  C   LIG A   1      -1.861   4.404  -4.875  0.00  0.00    +0.038 C 
ENDBRANCH  18  19
ENDBRANCH  17  18
ENDBRANCH  15  17
ENDBRANCH  13  14
ENDBRANCH  12  13
ENDBRANCH  10  12
ENDBRANCH   8   9
ENDBRANCH   1   8
BRANCH   1  23
ATOM     23  C   LIG A   1       1.014   0.282   5.178  0.00  0.00    +0.135 C 
BRANCH  23  24
ATOM     24  C   LIG A   1       1.153  -1.000   5.994  0.00  0.00    +0.308 C 
ATOM     25  O   LIG A   1       1.587  -1.022   7.147  0.00  0.00    -0.251 OA
BRANCH  24  26
ATOM     26  O   LIG A   1       0.817  -2.099   5.275  0.00  0.00    -0.468 OA
ATOM     27  C   LIG A   1       1.289  -3.344   5.793  0.00  0.00    +0.280 C 
ENDBRANCH  24  26
ENDBRANCH  23  24
ENDBRANCH   1  23
BRANCH   3  28
ATOM     28  O   LIG A   1       1.816  -3.040   2.063  0.00  0.00    -0.457 OA
BRANCH  28  29
ATOM     29  C   LIG A   1       3.071  -3.189   1.610  0.00  0.00    +0.304 C 
ATOM     30  O   LIG A   1       3.795  -2.267   1.236  0.00  0.00    -0.251 OA
ATOM     31  C   LIG A   1       3.514  -4.620   1.591  0.00  0.00    +0.136 C 
ENDBRANCH  28  29
ENDBRANCH   3  28
TORSDOF 13
