@<TRIPOS>MOLECULE
NuBBE_908
 66 71 0 0 0
SMALL
GASTEIGER

@<TRIPOS>ATOM
      1 C          -2.8958   -3.1913    0.9169 C.3     1  LIG1       -0.0531
      2 C          -1.5110   -2.5397    1.2075 C.3     1  LIG1        0.0422
      3 C          -0.6837   -2.4602   -0.1006 C.3     1  LIG1        0.1283
      4 C           0.1727   -3.7184   -0.3904 C.3     1  LIG1        0.1861
      5 H           1.0530   -3.6735   -1.0128 H       1  LIG1        0.0743
      6 C           0.1465   -4.9125    0.4874 C.2     1  LIG1        0.3398
      7 O          -0.4590   -4.7737    1.6967 O.3     1  LIG1       -0.4539
      8 C          -0.7381   -3.4609    2.2219 C.3     1  LIG1        0.1391
      9 H          -1.4395   -3.6527    3.0471 H       1  LIG1        0.0793
     10 C           0.4969   -2.8808    2.8713 C.ar    1  LIG1        0.0310
     11 C           1.6432   -2.3726    2.2884 C.ar    1  LIG1        0.0984
     12 O           2.5180   -1.9367    3.2303 O.2     1  LIG1       -0.4706
     13 C           1.9575   -2.1848    4.4379 C.ar    1  LIG1        0.0921
     14 C           0.7223   -2.7643    4.2786 C.ar    1  LIG1       -0.0172
     15 O           0.6013   -5.9817    0.1044 O.2     1  LIG1       -0.2478
     16 O          -1.0661   -3.5082   -1.0409 O.3     1  LIG1       -0.3512
     17 C          -0.5542   -1.0892   -0.8827 C.3     1  LIG1        0.0620
     18 C          -1.5994   -1.1041   -2.0268 C.3     1  LIG1       -0.0498
     19 C           0.8361   -0.8626   -1.5042 C.2     1  LIG1        0.1426
     20 C           1.0528    0.4507   -2.2328 C.3     1  LIG1        0.0104
     21 C           0.9769    1.5691   -1.1819 C.3     1  LIG1       -0.0212
     22 C           1.5521    2.9594   -1.6362 C.3     1  LIG1       -0.0052
     23 C           3.0328    2.7915   -2.0768 C.3     1  LIG1       -0.0572
     24 C           0.8160    3.5718   -2.8440 C.3     1  LIG1       -0.0572
     25 C           1.5319    3.9199   -0.4092 C.3     1  LIG1        0.0606
     26 H           2.2767    3.5876    0.3264 H       1  LIG1        0.0599
     27 O           1.8751    5.2539   -0.7794 O.3     1  LIG1       -0.3912
     28 C           0.1819    3.9835    0.2976 C.3     1  LIG1       -0.0258
     29 C          -0.3467    2.6068    0.6979 C.3     1  LIG1       -0.0447
     30 C          -0.4390    1.5889   -0.4819 C.3     1  LIG1       -0.0244
     31 C          -1.5952    2.0424   -1.4026 C.3     1  LIG1       -0.0590
     32 C          -0.7005    0.1250    0.1072 C.3     1  LIG1       -0.0205
     33 C          -1.9955   -0.0236    0.9149 C.3     1  LIG1       -0.0480
     34 C          -1.8047   -1.1766    1.8852 C.3     1  LIG1       -0.0408
     35 O           1.7962   -1.6087   -1.3127 O.2     1  LIG1       -0.2967
     36 H          -2.8052   -4.2137    0.5347 H       1  LIG1        0.0237
     37 H          -3.4585   -2.6128    0.1769 H       1  LIG1        0.0237
     38 H          -3.5051   -3.2509    1.8263 H       1  LIG1        0.0237
     39 H           1.9848   -2.2474    1.2699 H       1  LIG1        0.1033
     40 H           2.5503   -1.9033    5.2972 H       1  LIG1        0.1029
     41 H           0.0618   -3.0710    5.0784 H       1  LIG1        0.0653
     42 H          -1.3547   -1.8752   -2.7681 H       1  LIG1        0.0240
     43 H          -1.6516   -0.1839   -2.6004 H       1  LIG1        0.0240
     44 H          -2.6065   -1.3168   -1.6562 H       1  LIG1        0.0240
     45 H           0.3381    0.5645   -3.0488 H       1  LIG1        0.0345
     46 H           2.0421    0.3919   -2.6959 H       1  LIG1        0.0345
     47 H           1.6717    1.2495   -0.3850 H       1  LIG1        0.0316
     48 H           3.6225    2.2897   -1.3017 H       1  LIG1        0.0236
     49 H           3.5087    3.7572   -2.2787 H       1  LIG1        0.0236
     50 H           3.1209    2.2096   -2.9997 H       1  LIG1        0.0236
     51 H           0.7183    2.8512   -3.6623 H       1  LIG1        0.0236
     52 H           1.3638    4.4334   -3.2444 H       1  LIG1        0.0236
     53 H          -0.1805    3.9366   -2.5920 H       1  LIG1        0.0236
     54 H           2.8307    5.2809   -0.9549 H       1  LIG1        0.2098
     55 H           0.2824    4.6017    1.1997 H       1  LIG1        0.0290
     56 H          -0.5444    4.5231   -0.3201 H       1  LIG1        0.0290
     57 H          -1.3286    2.7520    1.1621 H       1  LIG1        0.0271
     58 H           0.3093    2.2031    1.4804 H       1  LIG1        0.0271
     59 H          -1.7875    3.1167   -1.3435 H       1  LIG1        0.0235
     60 H          -2.5446    1.5715   -1.1324 H       1  LIG1        0.0235
     61 H          -1.4051    1.8307   -2.4562 H       1  LIG1        0.0235
     62 H           0.1211   -0.0025    0.8325 H       1  LIG1        0.0316
     63 H          -2.8687   -0.1922    0.2785 H       1  LIG1        0.0269
     64 H          -2.2112    0.8705    1.5051 H       1  LIG1        0.0269
     65 H          -2.6891   -1.2529    2.5313 H       1  LIG1        0.0273
     66 H          -0.9968   -0.8851    2.5653 H       1  LIG1        0.0273
@<TRIPOS>BOND
     1     2     3    1
     2     3     4    1
     3     4     6    1
     4     6     7    1
     5     7     8    1
     6     2     8    1
     7    10    11   ar
     8    11    12   ar
     9    12    13   ar
    10    13    14   ar
    11    10    14   ar
    12     3    16    1
    13     4    16    1
    14     3    17    1
    15    17    19    1
    16    19    20    1
    17    20    21    1
    18    21    22    1
    19    22    25    1
    20    25    28    1
    21    28    29    1
    22    29    30    1
    23    21    30    1
    24    30    32    1
    25    17    32    1
    26    32    33    1
    27    33    34    1
    28     2    34    1
    29     1     2    1
    30     4     5    1
    31     6    15    2
    32    17    18    1
    33    19    35    2
    34    22    23    1
    35    22    24    1
    36    30    31    1
    37     8    10    1
    38     8     9    1
    39    25    27    1
    40    25    26    1
    41     1    36    1
    42     1    37    1
    43     1    38    1
    44    11    39    1
    45    13    40    1
    46    14    41    1
    47    18    42    1
    48    18    43    1
    49    18    44    1
    50    20    45    1
    51    20    46    1
    52    21    47    1
    53    23    48    1
    54    23    49    1
    55    23    50    1
    56    24    51    1
    57    24    52    1
    58    24    53    1
    59    27    54    1
    60    28    55    1
    61    28    56    1
    62    29    57    1
    63    29    58    1
    64    31    59    1
    65    31    60    1
    66    31    61    1
    67    32    62    1
    68    33    63    1
    69    33    64    1
    70    34    65    1
    71    34    66    1
