REMARK  Name = NuBBE_1350
REMARK  6 active torsions:
REMARK  status: ('A' for Active; 'I' for Inactive)
REMARK    1  A    between atoms: C_1  and  C_2
REMARK    2  A    between atoms: C_9  and  C_11
REMARK    3  A    between atoms: C_11  and  C_12
REMARK    4  A    between atoms: C_11  and  C_13
REMARK    5  A    between atoms: C_11  and  O_14
REMARK    6  A    between atoms: C_17  and  C_19
REMARK                            x       y       z     vdW  Elec       q    Type
REMARK                         _______ _______ _______ _____ _____    ______ ____
ROOT
ATOM      1  C   LIG A   1      -2.735  -2.060   1.137  0.00  0.00    +0.012 C 
ATOM      2  C   LIG A   1      -1.234  -1.998   1.403  0.00  0.00    +0.012 C 
ATOM      3  C   LIG A   1      -0.550  -3.349   1.169  0.00  0.00    +0.012 C 
ATOM      4  C   LIG A   1       0.021  -3.288  -0.244  0.00  0.00    +0.031 C 
ATOM      5  C   LIG A   1       0.167  -1.813  -0.485  0.00  0.00    -0.067 C 
ATOM      6  C   LIG A   1      -0.517  -1.100   0.423  0.00  0.00    -0.067 C 
ATOM      7  C   LIG A   1      -0.698   0.385   0.506  0.00  0.00    +0.037 C 
ATOM      8  C   LIG A   1       0.600   1.224   0.414  0.00  0.00    +0.024 C 
ATOM      9  C   LIG A   1       1.200   1.185  -1.008  0.00  0.00    +0.007 C 
ATOM     10  C   LIG A   1       1.864  -0.142  -1.381  0.00  0.00    +0.008 C 
ATOM     11  C   LIG A   1       0.940  -1.333  -1.676  0.00  0.00    +0.012 C 
ATOM     12  C   LIG A   1       0.006  -1.074  -2.861  0.00  0.00    +0.012 C 
ENDROOT
BRANCH   8  13
ATOM     13  C   LIG A   1       0.360   2.689   0.923  0.00  0.00    +0.064 C 
ATOM     14  C   LIG A   1       1.664   3.494   1.026  0.00  0.00    +0.041 C 
ATOM     15  C   LIG A   1      -0.654   3.469   0.081  0.00  0.00    +0.041 C 
BRANCH  13  16
ATOM     16  O   LIG A   1      -0.173   2.631   2.256  0.00  0.00    -0.389 OA
ATOM     17  H   LIG A   1       0.466   2.153   2.811  0.00  0.00    +0.210 HD
ENDBRANCH  13  16
ENDBRANCH   8  13
TORSDOF 2
