REMARK  Name = NuBBE_1724
REMARK  8 active torsions:
REMARK  status: ('A' for Active; 'I' for Inactive)
REMARK    1  A    between atoms: O_1  and  C_2
REMARK    2  A    between atoms: O_1  and  C_3
REMARK    3  A    between atoms: C_10  and  C_13
REMARK    4  A    between atoms: C_10  and  C_14
REMARK    5  A    between atoms: C_21  and  O_26
REMARK    6  A    between atoms: C_22  and  O_24
REMARK    7  A    between atoms: O_24  and  C_25
REMARK    8  A    between atoms: O_26  and  C_27
REMARK                            x       y       z     vdW  Elec       q    Type
REMARK                         _______ _______ _______ _____ _____    ______ ____
ROOT
ATOM      1  C   LIG A   1      -1.630  -1.952  -0.585  0.00  0.00    +0.138 A 
ATOM      2  C   LIG A   1      -1.001  -0.710  -0.778  0.00  0.00    +0.107 A 
ATOM      3  C   LIG A   1       0.385  -0.572  -0.586  0.00  0.00    +0.153 A 
ATOM      4  C   LIG A   1       1.166  -1.689  -0.260  0.00  0.00    +0.060 A 
ATOM      5  C   LIG A   1       0.538  -2.924  -0.102  0.00  0.00    +0.136 A 
ATOM      6  C   LIG A   1      -0.839  -3.060  -0.273  0.00  0.00    +0.092 A 
ATOM      7  O   LIG A   1       1.201  -4.077   0.211  0.00  0.00    -0.481 OA
ATOM      8  C   LIG A   1       2.531  -3.958   0.753  0.00  0.00    +0.123 C 
ATOM      9  C   LIG A   1       3.248  -2.677   0.395  0.00  0.00    +0.020 C 
ATOM     10  C   LIG A   1       2.612  -1.605  -0.086  0.00  0.00    +0.015 C 
ATOM     11  C   LIG A   1       3.304  -5.150   0.184  0.00  0.00    +0.060 C 
ATOM     12  C   LIG A   1       2.416  -4.079   2.277  0.00  0.00    +0.060 C 
ATOM     13  O   LIG A   1       1.046   0.637  -0.678  0.00  0.00    -0.454 OA
ATOM     14  C   LIG A   1       0.294   1.778  -0.628  0.00  0.00    +0.143 A 
ATOM     15  C   LIG A   1      -1.068   1.786  -0.864  0.00  0.00    +0.068 A 
ATOM     16  C   LIG A   1      -1.748   0.514  -1.139  0.00  0.00    +0.204 A 
ATOM     17  O   LIG A   1      -2.864   0.517  -1.629  0.00  0.00    -0.286 OA
ATOM     18  C   LIG A   1      -1.797   2.971  -0.792  0.00  0.00    +0.064 A 
ATOM     19  C   LIG A   1      -1.162   4.169  -0.445  0.00  0.00    +0.162 A 
ATOM     20  C   LIG A   1       0.234   4.179  -0.262  0.00  0.00    +0.165 A 
ATOM     21  C   LIG A   1       0.950   2.974  -0.341  0.00  0.00    +0.096 A 
ENDROOT
BRANCH   1  22
ATOM     22  O   LIG A   1      -2.992  -2.031  -0.701  0.00  0.00    -0.494 OA
ATOM     23  C   LIG A   1      -3.632  -3.101  -0.010  0.00  0.00    +0.277 C 
ENDBRANCH   1  22
BRANCH  20  24
ATOM     24  O   LIG A   1       1.018   5.256   0.066  0.00  0.00    -0.491 OA
ATOM     25  C   LIG A   1       0.593   6.524  -0.420  0.00  0.00    +0.277 C 
ENDBRANCH  20  24
BRANCH  19  26
ATOM     26  O   LIG A   1      -1.871   5.330  -0.276  0.00  0.00    -0.491 OA
ATOM     27  C   LIG A   1      -3.216   5.167   0.173  0.00  0.00    +0.277 C 
ENDBRANCH  19  26
TORSDOF 3
