@<TRIPOS>MOLECULE
NuBBE_2190
 52 54 0 0 0
SMALL
GASTEIGER

@<TRIPOS>ATOM
      1 C          -2.2135   -0.4468    1.2924 C.3     1  LIG1       -0.0555
      2 C          -0.7659    0.0513    1.0289 C.3     1  LIG1       -0.0043
      3 C          -0.6798    1.5472    0.5372 C.3     1  LIG1       -0.0197
      4 C          -1.6245    1.7655   -0.6461 C.3     1  LIG1        0.0142
      5 C          -1.2889    0.7929   -1.7571 C.2     1  LIG1        0.1596
      6 C          -0.4772   -0.4334   -1.4430 C.2     1  LIG1       -0.0020
      7 C          -0.2511   -0.8111   -0.1595 C.2     1  LIG1       -0.0288
      8 C           0.4855   -2.1084    0.1249 C.3     1  LIG1        0.0782
      9 H           1.4551   -1.8670    0.5765 H       1  LIG1        0.0641
     10 O          -0.2602   -2.8736    1.0678 O.3     1  LIG1       -0.3874
     11 C           0.7075   -3.0091   -1.0989 C.3     1  LIG1       -0.0138
     12 C           1.1136   -2.2399   -2.3672 C.3     1  LIG1       -0.0076
     13 C           2.4634   -1.5475   -2.1539 C.2     1  LIG1       -0.0848
     14 C           3.6383   -1.8482   -2.7251 C.2     1  LIG1       -0.1021
     15 C           1.1484   -3.2335   -3.5500 C.3     1  LIG1       -0.0557
     16 C           0.0131   -1.1867   -2.6583 C.3     1  LIG1       -0.0154
     17 O          -1.6892    0.9905   -2.9049 O.2     1  LIG1       -0.2924
     18 H           0.3289    1.6640    0.1007 H       1  LIG1        0.0318
     19 C          -0.7062    2.6405    1.6571 C.3     1  LIG1       -0.0309
     20 C          -0.5121    4.0497    1.0456 C.3     1  LIG1       -0.0595
     21 C          -2.0284    2.6876    2.4447 C.3     1  LIG1       -0.0595
     22 C           0.4761    2.3905    2.6426 C.3     1  LIG1       -0.0476
     23 C           1.0919    0.9922    2.5517 C.3     1  LIG1       -0.0518
     24 C           0.0274   -0.0798    2.3661 C.3     1  LIG1       -0.0435
     25 H          -2.7703    0.2089    1.9620 H       1  LIG1        0.0238
     26 H          -2.2123   -1.4368    1.7625 H       1  LIG1        0.0238
     27 H          -2.8045   -0.5390    0.3743 H       1  LIG1        0.0238
     28 H          -1.4884    2.7671   -1.0659 H       1  LIG1        0.0348
     29 H          -2.6768    1.6506   -0.3723 H       1  LIG1        0.0348
     30 H           0.2659   -3.6632    1.2792 H       1  LIG1        0.2102
     31 H          -0.2141   -3.5781   -1.2932 H       1  LIG1        0.0302
     32 H           1.4594   -3.7704   -0.8477 H       1  LIG1        0.0302
     33 H           2.4662   -0.7048   -1.4613 H       1  LIG1        0.0572
     34 H           3.7614   -2.6608   -3.4328 H       1  LIG1        0.0532
     35 H           4.5276   -1.2692   -2.4911 H       1  LIG1        0.0532
     36 H           1.8583   -4.0494   -3.3722 H       1  LIG1        0.0238
     37 H           1.4267   -2.7331   -4.4848 H       1  LIG1        0.0238
     38 H           0.1666   -3.6957   -3.7082 H       1  LIG1        0.0238
     39 H          -0.8611   -1.6765   -3.1091 H       1  LIG1        0.0323
     40 H           0.3929   -0.4765   -3.4058 H       1  LIG1        0.0323
     41 H          -1.3832    4.3633    0.4608 H       1  LIG1        0.0235
     42 H           0.3669    4.0812    0.3922 H       1  LIG1        0.0235
     43 H          -0.3677    4.8026    1.8298 H       1  LIG1        0.0235
     44 H          -2.8956    2.7168    1.7776 H       1  LIG1        0.0235
     45 H          -2.0758    3.5834    3.0761 H       1  LIG1        0.0235
     46 H          -2.1363    1.8368    3.1218 H       1  LIG1        0.0235
     47 H           0.1447    2.5643    3.6748 H       1  LIG1        0.0271
     48 H           1.2851    3.1130    2.4729 H       1  LIG1        0.0271
     49 H           1.6619    0.7946    3.4673 H       1  LIG1        0.0266
     50 H           1.8131    0.9487    1.7265 H       1  LIG1        0.0266
     51 H          -0.6647   -0.0076    3.2159 H       1  LIG1        0.0274
     52 H           0.5018   -1.0571    2.4786 H       1  LIG1        0.0274
@<TRIPOS>BOND
     1     1     2    1
     2     2     3    1
     3     3     4    1
     4     4     5    1
     5     5     6    1
     6     6     7    2
     7     2     7    1
     8     7     8    1
     9     8     9    1
    10     8    10    1
    11     8    11    1
    12    11    12    1
    13    12    13    1
    14    13    14    2
    15    12    15    1
    16    12    16    1
    17     6    16    1
    18     5    17    2
    19     3    18    1
    20     3    19    1
    21    19    20    1
    22    19    21    1
    23    19    22    1
    24    22    23    1
    25    23    24    1
    26     2    24    1
    27     1    25    1
    28     1    26    1
    29     1    27    1
    30     4    28    1
    31     4    29    1
    32    10    30    1
    33    11    31    1
    34    11    32    1
    35    13    33    1
    36    14    34    1
    37    14    35    1
    38    15    36    1
    39    15    37    1
    40    15    38    1
    41    16    39    1
    42    16    40    1
    43    20    41    1
    44    20    42    1
    45    20    43    1
    46    21    44    1
    47    21    45    1
    48    21    46    1
    49    22    47    1
    50    22    48    1
    51    23    49    1
    52    23    50    1
    53    24    51    1
    54    24    52    1
