REMARK  Name = NuBBE_1949
REMARK  13 active torsions:
REMARK  status: ('A' for Active; 'I' for Inactive)
REMARK    1  A    between atoms: C_1  and  C_2
REMARK    2  A    between atoms: C_12  and  C_13
REMARK    3  A    between atoms: C_12  and  C_14
REMARK    4  A    between atoms: C_15  and  O_19
REMARK    5  A    between atoms: C_22  and  C_23
REMARK    6  A    between atoms: C_24  and  C_28
REMARK    7  A    between atoms: C_28  and  C_30
REMARK    8  A    between atoms: C_28  and  C_37
REMARK    9  A    between atoms: C_30  and  C_31
REMARK   10  A    between atoms: C_31  and  C_32
REMARK   11  A    between atoms: C_32  and  C_34
REMARK   12  A    between atoms: C_34  and  C_35
REMARK   13  A    between atoms: C_34  and  C_36
REMARK                            x       y       z     vdW  Elec       q    Type
REMARK                         _______ _______ _______ _____ _____    ______ ____
ROOT
ATOM      1  C   LIG A   1      -3.444   0.481   1.947  0.00  0.00    +0.012 C 
ATOM      2  C   LIG A   1      -2.147   0.894   1.215  0.00  0.00    -0.023 C 
ATOM      3  C   LIG A   1      -1.615  -0.302   0.316  0.00  0.00    +0.002 C 
ATOM      4  C   LIG A   1      -0.999  -1.424   1.169  0.00  0.00    -0.019 C 
ATOM      5  C   LIG A   1      -0.991  -2.874   0.605  0.00  0.00    -0.019 C 
ATOM      6  C   LIG A   1      -1.798  -2.519   1.838  0.00  0.00    +0.015 C 
ATOM      7  C   LIG A   1      -1.859  -3.228  -0.622  0.00  0.00    +0.004 C 
ATOM      8  C   LIG A   1      -2.019  -2.001  -1.528  0.00  0.00    +0.005 C 
ATOM      9  C   LIG A   1      -2.613  -0.835  -0.731  0.00  0.00    +0.005 C 
ATOM     10  C   LIG A   1      -1.449  -4.550  -1.358  0.00  0.00    -0.006 C 
ATOM     11  C   LIG A   1      -0.331  -4.358  -2.404  0.00  0.00    +0.014 C 
ATOM     12  C   LIG A   1      -2.676  -5.108  -2.128  0.00  0.00    +0.014 C 
ATOM     13  C   LIG A   1      -1.054  -5.589  -0.279  0.00  0.00    +0.120 C 
ATOM     14  C   LIG A   1       0.132  -5.164   0.580  0.00  0.00    +0.032 C 
ATOM     15  C   LIG A   1       0.294  -3.661   0.747  0.00  0.00    +0.010 C 
ATOM     16  C   LIG A   1       0.157  -0.889   1.987  0.00  0.00    +0.008 C 
ATOM     17  C   LIG A   1      -0.324   0.233   2.899  0.00  0.00    +0.008 C 
ATOM     18  C   LIG A   1      -1.024   1.426   2.205  0.00  0.00    -0.023 C 
ATOM     19  C   LIG A   1      -1.623   2.276   3.375  0.00  0.00    +0.012 C 
ATOM     20  C   LIG A   1      -0.171   2.466   1.342  0.00  0.00    -0.002 C 
ATOM     21  C   LIG A   1      -1.091   2.840   0.157  0.00  0.00    +0.005 C 
ATOM     22  C   LIG A   1      -2.435   2.152   0.371  0.00  0.00    +0.008 C 
ENDROOT
BRANCH  13  23
ATOM     23  O   LIG A   1      -0.759  -6.857  -0.867  0.00  0.00    -0.391 OA
ATOM     24  H   LIG A   1      -0.563  -7.477  -0.144  0.00  0.00    +0.210 HD
ENDBRANCH  13  23
BRANCH  20  25
ATOM     25  C   LIG A   1       1.308   2.165   0.915  0.00  0.00    -0.010 C 
ATOM     26  C   LIG A   1       2.173   1.910   2.162  0.00  0.00    +0.008 C 
BRANCH  25  27
ATOM     27  C   LIG A   1       1.956   3.320   0.070  0.00  0.00    +0.008 C 
BRANCH  27  28
ATOM     28  C   LIG A   1       3.338   2.960  -0.542  0.00  0.00    +0.030 C 
BRANCH  28  29
ATOM     29  C   LIG A   1       4.029   4.069  -1.334  0.00  0.00    -0.074 C 
ATOM     30  C   LIG A   1       4.978   4.841  -0.747  0.00  0.00    +0.008 C 
BRANCH  29  31
ATOM     31  C   LIG A   1       3.746   4.269  -2.822  0.00  0.00    +0.008 C 
ATOM     32  C   LIG A   1       4.027   3.030  -3.677  0.00  0.00    +0.012 C 
ATOM     33  C   LIG A   1       2.339   4.799  -3.088  0.00  0.00    +0.012 C 
ENDBRANCH  29  31
ENDBRANCH  28  29
ENDBRANCH  27  28
ENDBRANCH  25  27
ENDBRANCH  20  25
TORSDOF 6
