REMARK  Name = NuBBE_168
REMARK  21 active torsions:
REMARK  status: ('A' for Active; 'I' for Inactive)
REMARK    1  A    between atoms: O_1  and  C_2
REMARK    2  A    between atoms: C_4  and  C_6
REMARK    3  A    between atoms: C_8  and  O_9
REMARK    4  A    between atoms: O_9  and  C_10
REMARK    5  A    between atoms: C_10  and  C_11
REMARK    6  A    between atoms: C_10  and  C_12
REMARK    7  A    between atoms: C_10  and  C_13
REMARK    8  A    between atoms: C_15  and  C_17
REMARK    9  A    between atoms: C_17  and  C_18
REMARK   10  A    between atoms: C_18  and  C_19
REMARK   11  A    between atoms: C_19  and  C_20
REMARK   12  A    between atoms: C_20  and  C_21
REMARK   13  A    between atoms: C_21  and  C_22
REMARK   14  A    between atoms: C_22  and  C_23
REMARK   15  A    between atoms: C_23  and  C_24
REMARK   16  A    between atoms: C_24  and  C_25
REMARK   17  A    between atoms: C_25  and  C_26
REMARK   18  A    between atoms: C_26  and  C_27
REMARK   19  A    between atoms: C_27  and  C_28
REMARK   20  A    between atoms: C_28  and  C_29
REMARK   21  A    between atoms: C_29  and  C_30
REMARK                            x       y       z     vdW  Elec       q    Type
REMARK                         _______ _______ _______ _____ _____    ______ ____
ROOT
ATOM      1  C   LIG A   1       5.411   4.077  -0.024  0.00  0.00    +0.135 C 
ATOM      2  C   LIG A   1       4.921   3.197  -1.205  0.00  0.00    +0.105 C 
ATOM      3  C   LIG A   1       6.059   2.805  -2.153  0.00  0.00    +0.030 C 
ATOM      4  N   LIG A   1       4.057   2.095  -0.693  0.00  0.00    -0.259 N 
ATOM      5  C   LIG A   1       4.565   0.876  -0.267  0.00  0.00    +0.404 C 
ATOM      6  O   LIG A   1       3.880  -0.004   0.265  0.00  0.00    -0.226 OA
ATOM      7  C   LIG A   1       2.849   2.617  -0.028  0.00  0.00    +0.080 C 
ATOM      8  C   LIG A   1       3.311   3.360   1.244  0.00  0.00    +0.025 C 
ATOM      9  C   LIG A   1       4.245   4.519   0.873  0.00  0.00    +0.035 C 
ENDROOT
BRANCH   1  10
ATOM     10  O   LIG A   1       6.368   3.394   0.785  0.00  0.00    -0.390 OA
ATOM     11  H   LIG A   1       6.100   2.459   0.824  0.00  0.00    +0.210 HD
ENDBRANCH   1  10
BRANCH   5  12
ATOM     12  O   LIG A   1       5.904   0.764  -0.425  0.00  0.00    -0.445 OA
BRANCH  12  13
ATOM     13  C   LIG A   1       6.621  -0.426  -0.012  0.00  0.00    +0.107 C 
ATOM     14  C   LIG A   1       6.537  -0.604   1.507  0.00  0.00    +0.055 C 
ATOM     15  C   LIG A   1       6.098  -1.652  -0.762  0.00  0.00    +0.055 C 
ATOM     16  C   LIG A   1       8.093  -0.205  -0.416  0.00  0.00    +0.055 C 
ENDBRANCH  12  13
ENDBRANCH   5  12
BRANCH   7  17
ATOM     17  C   LIG A   1       1.675   1.681   0.321  0.00  0.00    +0.022 C 
BRANCH  17  18
ATOM     18  C   LIG A   1       1.041   0.956  -0.867  0.00  0.00    +0.002 C 
BRANCH  18  19
ATOM     19  C   LIG A   1      -0.160   0.075  -0.479  0.00  0.00    +0.000 C 
BRANCH  19  20
ATOM     20  C   LIG A   1      -1.326   0.830   0.179  0.00  0.00    -0.000 C 
BRANCH  20  21
ATOM     21  C   LIG A   1      -2.517  -0.064   0.560  0.00  0.00    -0.000 C 
BRANCH  21  22
ATOM     22  C   LIG A   1      -3.077  -0.865  -0.622  0.00  0.00    -0.000 C 
BRANCH  22  23
ATOM     23  C   LIG A   1      -4.272  -1.725  -0.201  0.00  0.00    -0.000 C 
BRANCH  23  24
ATOM     24  C   LIG A   1      -4.831  -2.540  -1.375  0.00  0.00    -0.000 C 
BRANCH  24  25
ATOM     25  C   LIG A   1      -6.042  -3.423  -1.013  0.00  0.00    +0.000 C 
BRANCH  25  26
ATOM     26  C   LIG A   1      -7.253  -2.621  -0.503  0.00  0.00    +0.000 C 
BRANCH  26  27
ATOM     27  C   LIG A   1      -8.475  -3.487  -0.164  0.00  0.00    +0.007 C 
BRANCH  27  28
ATOM     28  C   LIG A   1      -9.688  -2.687   0.335  0.00  0.00    +0.074 C 
BRANCH  28  29
ATOM     29  C   LIG A   1      -9.464  -1.875   1.601  0.00  0.00    +0.130 C 
ATOM     30  C   LIG A   1      -9.805  -2.518   2.921  0.00  0.00    +0.086 C 
ATOM     31  O   LIG A   1      -9.073  -0.707   1.551  0.00  0.00    -0.298 OA
ENDBRANCH  28  29
ENDBRANCH  27  28
ENDBRANCH  26  27
ENDBRANCH  25  26
ENDBRANCH  24  25
ENDBRANCH  23  24
ENDBRANCH  22  23
ENDBRANCH  21  22
ENDBRANCH  20  21
ENDBRANCH  19  20
ENDBRANCH  18  19
ENDBRANCH  17  18
ENDBRANCH   7  17
TORSDOF 16
