REMARK  Name = NuBBE_1948
REMARK  6 active torsions:
REMARK  status: ('A' for Active; 'I' for Inactive)
REMARK    1  A    between atoms: O_1  and  C_2
REMARK    2  A    between atoms: C_5  and  C_7
REMARK    3  A    between atoms: C_7  and  C_8
REMARK    4  A    between atoms: C_7  and  C_9
REMARK    5  A    between atoms: C_12  and  C_14
REMARK    6  A    between atoms: C_16  and  C_19
REMARK                            x       y       z     vdW  Elec       q    Type
REMARK                         _______ _______ _______ _____ _____    ______ ____
ROOT
ATOM      1  C   LIG A   1       1.054   0.675   0.597  0.00  0.00    +0.075 C 
ATOM      2  C   LIG A   1      -0.322   0.017   0.188  0.00  0.00    +0.047 C 
ATOM      3  C   LIG A   1      -0.175  -1.054  -0.941  0.00  0.00    +0.001 C 
ATOM      4  C   LIG A   1       0.614  -0.436  -2.124  0.00  0.00    +0.005 C 
ATOM      5  C   LIG A   1       1.916   0.253  -1.734  0.00  0.00    +0.006 C 
ATOM      6  C   LIG A   1       1.708   1.318  -0.651  0.00  0.00    +0.018 C 
ATOM      7  C   LIG A   1       3.047   2.011  -0.374  0.00  0.00    +0.010 C 
ATOM      8  C   LIG A   1      -0.972  -0.508   1.479  0.00  0.00    -0.021 C 
ATOM      9  C   LIG A   1      -1.200   0.445   2.407  0.00  0.00    -0.076 C 
ATOM     10  C   LIG A   1       0.037   1.136   2.928  0.00  0.00    +0.033 C 
ATOM     11  C   LIG A   1       0.845   1.705   1.746  0.00  0.00    +0.040 C 
ATOM     12  C   LIG A   1      -2.449   1.280   2.369  0.00  0.00    +0.038 C 
ENDROOT
BRANCH   3  13
ATOM     13  C   LIG A   1      -1.542  -1.628  -1.473  0.00  0.00    -0.013 C 
ATOM     14  C   LIG A   1      -1.344  -2.600  -2.650  0.00  0.00    +0.007 C 
ATOM     15  C   LIG A   1      -2.378  -2.359  -0.415  0.00  0.00    +0.007 C 
ENDBRANCH   3  13
BRANCH   1  16
ATOM     16  O   LIG A   1       1.928  -0.361   1.084  0.00  0.00    -0.388 OA
ATOM     17  H   LIG A   1       2.711   0.059   1.477  0.00  0.00    +0.210 HD
ENDBRANCH   1  16
TORSDOF 2
