REMARK  Name = NuBBE_1741
REMARK  5 active torsions:
REMARK  status: ('A' for Active; 'I' for Inactive)
REMARK    1  A    between atoms: C_1  and  C_2
REMARK    2  A    between atoms: C_1  and  C_3
REMARK    3  A    between atoms: C_1  and  C_4
REMARK    4  A    between atoms: C_4  and  O_5
REMARK    5  A    between atoms: C_8  and  C_11
REMARK                            x       y       z     vdW  Elec       q    Type
REMARK                         _______ _______ _______ _____ _____    ______ ____
ROOT
ATOM      1  C   LIG A   1      -0.037   0.082   1.183  0.00  0.00    +0.072 C 
ATOM      2  C   LIG A   1       0.752   1.328   0.726  0.00  0.00    +0.039 C 
ATOM      3  C   LIG A   1       1.167   1.355  -0.745  0.00  0.00    +0.033 C 
ATOM      4  C   LIG A   1       1.536   0.009  -1.309  0.00  0.00    -0.076 C 
ATOM      5  C   LIG A   1       1.335  -1.132  -0.629  0.00  0.00    -0.025 C 
ATOM      6  C   LIG A   1       0.704  -1.200   0.732  0.00  0.00    +0.062 C 
ATOM      7  C   LIG A   1       2.148   0.019  -2.681  0.00  0.00    +0.038 C 
ENDROOT
BRANCH   1   8
ATOM      8  C   LIG A   1      -1.558   0.123   0.805  0.00  0.00    +0.015 C 
ATOM      9  C   LIG A   1      -1.884  -0.038  -0.681  0.00  0.00    +0.010 C 
ATOM     10  C   LIG A   1      -2.389  -0.909   1.592  0.00  0.00    +0.010 C 
ENDBRANCH   1   8
BRANCH   1  11
ATOM     11  O   LIG A   1       0.028   0.104   2.628  0.00  0.00    -0.388 OA
ATOM     12  H   LIG A   1      -0.391   0.928   2.931  0.00  0.00    +0.210 HD
ENDBRANCH   1  11
TORSDOF 2
