@<TRIPOS>MOLECULE
NuBBE_677
 58 60 0 0 0
SMALL
GASTEIGER

@<TRIPOS>ATOM
      1 O           4.3264    1.9821    3.6390 O.2     1  LIG1       -0.2500
      2 C           3.5155    2.1372    2.7258 C.2     1  LIG1        0.3191
      3 C           2.4870    1.1218    2.3248 C.3     1  LIG1        0.1257
      4 H           2.9081    0.1109    2.3708 H       1  LIG1        0.0499
      5 C           1.2458    1.1691    3.2043 C.2     1  LIG1        0.1530
      6 C           1.2119    0.3291    4.4931 C.3     1  LIG1        0.0412
      7 H           2.2088   -0.1057    4.6440 H       1  LIG1        0.0400
      8 C           0.9445    1.2107    5.7187 C.3     1  LIG1       -0.0533
      9 C           0.1967   -0.8352    4.3823 C.3     1  LIG1        0.0617
     10 H           0.5217   -1.5143    3.5863 H       1  LIG1        0.0597
     11 O           0.2246   -1.5918    5.5984 O.3     1  LIG1       -0.3914
     12 C          -1.2497   -0.4243    4.1078 C.3     1  LIG1       -0.0383
     13 O           0.2770    1.8587    2.8850 O.2     1  LIG1       -0.2961
     14 O           3.4861    3.2433    1.9176 O.3     1  LIG1       -0.4491
     15 C           2.5165    3.0595    0.8882 C.3     1  LIG1        0.1813
     16 C           2.3770    1.5418    0.8592 C.3     1  LIG1        0.0544
     17 H           3.3309    1.1669    0.4342 H       1  LIG1        0.0405
     18 C           1.3908    1.0446   -0.1484 C.2     1  LIG1        0.0047
     19 C           0.7179   -0.1143   -0.0642 C.2     1  LIG1        0.0966
     20 O          -0.0996   -0.6100   -1.0628 O.2     1  LIG1       -0.4632
     21 C          -0.2979    0.1611   -2.2065 C.2     1  LIG1        0.1279
     22 C          -1.2531   -0.3713   -3.1540 C.2     1  LIG1       -0.0229
     23 C          -1.4812   -1.6806   -3.3492 C.2     1  LIG1       -0.0753
     24 C          -2.4882   -2.2316   -4.3422 C.3     1  LIG1        0.0004
     25 H          -3.2841   -1.4853   -4.4712 H       1  LIG1        0.0365
     26 C          -1.8154   -2.4399   -5.7037 C.3     1  LIG1       -0.0566
     27 C          -3.1403   -3.5299   -3.7947 C.3     1  LIG1        0.0584
     28 H          -3.5915   -3.3235   -2.8158 H       1  LIG1        0.0596
     29 O          -2.1418   -4.5368   -3.5998 O.3     1  LIG1       -0.3915
     30 C          -4.2092   -4.1047   -4.7201 C.3     1  LIG1       -0.0384
     31 C           0.3158    1.3426   -2.3970 C.2     1  LIG1       -0.0104
     32 C           1.2761    1.8261   -1.4061 C.2     1  LIG1        0.0068
     33 C           2.0298    2.9321   -1.6204 C.2     1  LIG1        0.0949
     34 CL          1.9840    3.8936   -3.0571 Cl      1  LIG1       -0.0792
     35 C           1.2992    3.9488    1.1845 C.3     1  LIG1       -0.0167
     36 C           2.9435    3.4386   -0.5351 C.2     1  LIG1        0.2184
     37 O           3.9265    4.1323   -0.7798 O.2     1  LIG1       -0.2868
     38 H           1.6739    2.0240    5.7835 H       1  LIG1        0.0237
     39 H           1.0172    0.6286    6.6454 H       1  LIG1        0.0237
     40 H          -0.0510    1.6649    5.6887 H       1  LIG1        0.0237
     41 H          -0.5637   -2.1638    5.6269 H       1  LIG1        0.2098
     42 H          -1.3506    0.1271    3.1711 H       1  LIG1        0.0255
     43 H          -1.6613    0.1755    4.9256 H       1  LIG1        0.0255
     44 H          -1.8878   -1.3117    4.0280 H       1  LIG1        0.0255
     45 H           0.7666   -0.8203    0.7530 H       1  LIG1        0.1032
     46 H          -1.7826    0.3597   -3.7612 H       1  LIG1        0.0651
     47 H          -0.9057   -2.4172   -2.7885 H       1  LIG1        0.0577
     48 H          -1.3265   -1.5226   -6.0495 H       1  LIG1        0.0236
     49 H          -2.5535   -2.7049   -6.4678 H       1  LIG1        0.0236
     50 H          -1.0621   -3.2339   -5.6711 H       1  LIG1        0.0236
     51 H          -2.5840   -5.3196   -3.2291 H       1  LIG1        0.2098
     52 H          -4.5668   -5.0682   -4.3406 H       1  LIG1        0.0255
     53 H          -3.8108   -4.3128   -5.7179 H       1  LIG1        0.0255
     54 H          -5.0610   -3.4261   -4.8156 H       1  LIG1        0.0255
     55 H           0.1174    1.9272   -3.2889 H       1  LIG1        0.0661
     56 H           1.0040    3.9364    2.2335 H       1  LIG1        0.0273
     57 H           0.4294    3.7079    0.5629 H       1  LIG1        0.0273
     58 H           1.5484    4.9982    0.9753 H       1  LIG1        0.0273
@<TRIPOS>BOND
     1     2     3    1
     2     5     6    1
     3     6     7    1
     4     6     8    1
     5     6     9    1
     6     9    10    1
     7     9    11    1
     8     9    12    1
     9     5    13    2
    10     2    14    1
    11    14    15    1
    12    15    16    1
    13     3    16    1
    14    16    18    1
    15    18    19    2
    16    19    20    1
    17    20    21    1
    18    22    23    2
    19    23    24    1
    20    24    25    1
    21    24    26    1
    22    27    29    1
    23    27    30    1
    24    21    31    2
    25    31    32    1
    26    18    32    1
    27    32    33    2
    28    15    36    1
    29    33    36    1
    30     1     2    2
    31    15    35    1
    32    16    17    1
    33    21    22    1
    34    33    34    1
    35    36    37    2
    36     3     5    1
    37     3     4    1
    38    27    28    1
    39    27    24    1
    40     8    38    1
    41     8    39    1
    42     8    40    1
    43    11    41    1
    44    12    42    1
    45    12    43    1
    46    12    44    1
    47    19    45    1
    48    22    46    1
    49    23    47    1
    50    26    48    1
    51    26    49    1
    52    26    50    1
    53    29    51    1
    54    30    52    1
    55    30    53    1
    56    30    54    1
    57    31    55    1
    58    35    56    1
    59    35    57    1
    60    35    58    1
