REMARK  Name = NuBBE_1636
REMARK  13 active torsions:
REMARK  status: ('A' for Active; 'I' for Inactive)
REMARK    1  A    between atoms: C_1  and  C_2
REMARK    2  A    between atoms: C_4  and  C_5
REMARK    3  A    between atoms: C_6  and  C_14
REMARK    4  A    between atoms: C_23  and  C_24
REMARK    5  A    between atoms: C_23  and  C_30
REMARK    6  A    between atoms: C_25  and  C_26
REMARK    7  A    between atoms: C_26  and  O_28
REMARK    8  A    between atoms: O_28  and  C_29
REMARK    9  A    between atoms: C_34  and  O_35
REMARK   10  A    between atoms: O_35  and  C_36
REMARK   11  A    between atoms: C_36  and  C_38
REMARK   12  A    between atoms: C_39  and  C_41
REMARK   13  A    between atoms: C_39  and  C_42
REMARK                            x       y       z     vdW  Elec       q    Type
REMARK                         _______ _______ _______ _____ _____    ______ ____
ROOT
ATOM      1  C   LIG A   1       0.310   0.161  -2.446  0.00  0.00    +0.018 C 
ATOM      2  C   LIG A   1       0.841  -0.200  -1.029  0.00  0.00    +0.048 C 
ATOM      3  C   LIG A   1       1.211  -1.746  -1.030  0.00  0.00    +0.125 C 
ATOM      4  C   LIG A   1       0.346  -2.824  -0.308  0.00  0.00    +0.042 C 
ATOM      5  C   LIG A   1       1.239  -3.766   0.554  0.00  0.00    +0.018 C 
ATOM      6  C   LIG A   1      -0.345  -3.638  -1.463  0.00  0.00    +0.218 C 
ATOM      7  O   LIG A   1       0.646  -4.340  -2.255  0.00  0.00    -0.454 OA
ATOM      8  C   LIG A   1       1.790  -3.720  -2.663  0.00  0.00    +0.340 C 
ATOM      9  O   LIG A   1       2.619  -4.271  -3.359  0.00  0.00    -0.248 OA
ATOM     10  C   LIG A   1       1.947  -2.300  -2.267  0.00  0.00    +0.260 C 
ATOM     11  O   LIG A   1       2.618  -2.051  -1.034  0.00  0.00    -0.351 OA
ATOM     12  C   LIG A   1      -0.662  -2.200   0.674  0.00  0.00    +0.014 C 
ATOM     13  C   LIG A   1      -1.310  -0.939   0.139  0.00  0.00    +0.006 C 
ATOM     14  C   LIG A   1      -0.218   0.150   0.070  0.00  0.00    +0.015 C 
ATOM     15  C   LIG A   1      -0.772   1.643   0.064  0.00  0.00    +0.029 C 
ATOM     16  C   LIG A   1      -1.981   1.776  -0.913  0.00  0.00    +0.019 C 
ATOM     17  C   LIG A   1       0.362   2.656  -0.354  0.00  0.00    +0.169 C 
ATOM     18  C   LIG A   1       1.795   2.167  -0.531  0.00  0.00    +0.209 C 
ATOM     19  O   LIG A   1       2.716   2.981  -0.457  0.00  0.00    -0.290 OA
ATOM     20  C   LIG A   1       2.098   0.680  -0.722  0.00  0.00    +0.254 C 
ATOM     21  C   LIG A   1       0.007   4.128  -0.931  0.00  0.00    +0.102 C 
ATOM     22  O   LIG A   1       0.378   3.878   0.415  0.00  0.00    -0.353 OA
ATOM     23  C   LIG A   1       1.046   4.881  -1.729  0.00  0.00    +0.044 C 
ATOM     24  C   LIG A   1      -1.342   4.798  -0.943  0.00  0.00    +0.044 C 
ENDROOT
BRANCH   6  25
ATOM     25  C   LIG A   1      -1.399  -4.626  -1.029  0.00  0.00    +0.031 A 
ATOM     26  C   LIG A   1      -2.801  -4.398  -0.867  0.00  0.00    +0.048 A 
ATOM     27  C   LIG A   1      -3.358  -5.598  -0.491  0.00  0.00    +0.195 A 
ATOM     28  O   LIG A   1      -2.404  -6.558  -0.421  0.00  0.00    -0.471 OA
ATOM     29  C   LIG A   1      -1.227  -5.971  -0.755  0.00  0.00    +0.202 A 
ENDBRANCH   6  25
BRANCH  15  30
ATOM     30  C   LIG A   1      -1.342   1.885   1.481  0.00  0.00    -0.010 C 
ATOM     31  C   LIG A   1      -0.668   2.364   2.545  0.00  0.00    +0.088 C 
BRANCH  31  32
ATOM     32  C   LIG A   1      -1.291   2.738   3.837  0.00  0.00    +0.331 C 
ATOM     33  O   LIG A   1      -0.659   3.246   4.749  0.00  0.00    -0.246 OA
BRANCH  32  34
ATOM     34  O   LIG A   1      -2.630   2.543   3.798  0.00  0.00    -0.465 OA
ATOM     35  C   LIG A   1      -3.349   3.275   4.787  0.00  0.00    +0.280 C 
ENDBRANCH  32  34
ENDBRANCH  31  32
ENDBRANCH  15  30
BRANCH  20  36
ATOM     36  O   LIG A   1       2.735   0.237   0.506  0.00  0.00    -0.453 OA
BRANCH  36  37
ATOM     37  C   LIG A   1       4.078   0.476   0.611  0.00  0.00    +0.305 C 
ATOM     38  O   LIG A   1       4.769   1.043  -0.224  0.00  0.00    -0.251 OA
ATOM     39  C   LIG A   1       4.643  -0.147   1.854  0.00  0.00    +0.136 C 
ENDBRANCH  36  37
ENDBRANCH  20  36
TORSDOF 6
