REMARK  Name = NuBBE_931
REMARK  8 active torsions:
REMARK  status: ('A' for Active; 'I' for Inactive)
REMARK    1  A    between atoms: C_1  and  C_3
REMARK    2  A    between atoms: C_1  and  O_9
REMARK    3  A    between atoms: C_1  and  C_10
REMARK    4  A    between atoms: C_3  and  C_5
REMARK    5  A    between atoms: C_3  and  O_8
REMARK    6  A    between atoms: C_5  and  C_7
REMARK    7  A    between atoms: C_15  and  O_16
REMARK    8  A    between atoms: O_16  and  C_17
REMARK                            x       y       z     vdW  Elec       q    Type
REMARK                         _______ _______ _______ _____ _____    ______ ____
ROOT
ATOM      1  C   LIG A   1      -0.291  -0.016  -0.692  0.00  0.00    +0.068 A 
ATOM      2  C   LIG A   1      -0.578   1.325  -1.034  0.00  0.00    +0.148 A 
ATOM      3  C   LIG A   1      -1.778   1.715  -1.646  0.00  0.00    +0.018 A 
ATOM      4  C   LIG A   1      -2.731   0.750  -1.947  0.00  0.00    +0.015 A 
ATOM      5  C   LIG A   1      -2.487  -0.581  -1.619  0.00  0.00    +0.047 A 
ATOM      6  C   LIG A   1      -1.282  -0.973  -1.004  0.00  0.00    +0.129 A 
ATOM      7  C   LIG A   1      -2.036   3.117  -1.928  0.00  0.00    +0.018 A 
ATOM      8  C   LIG A   1      -1.120   4.026  -1.597  0.00  0.00    +0.092 A 
ATOM      9  C   LIG A   1       0.154   3.668  -0.968  0.00  0.00    +0.337 A 
ATOM     10  O   LIG A   1       0.970   4.536  -0.660  0.00  0.00    -0.245 OA
ATOM     11  O   LIG A   1       0.387   2.322  -0.733  0.00  0.00    -0.422 OA
ENDROOT
BRANCH   6  12
ATOM     12  O   LIG A   1      -1.057  -2.282  -0.651  0.00  0.00    -0.495 OA
ATOM     13  C   LIG A   1      -1.675  -3.255  -1.492  0.00  0.00    +0.277 C 
ENDBRANCH   6  12
BRANCH   1  14
ATOM     14  C   LIG A   1       1.034  -0.363   0.004  0.00  0.00    +0.184 C 
BRANCH  14  15
ATOM     15  O   LIG A   1       1.488  -1.671  -0.370  0.00  0.00    -0.384 OA
ATOM     16  H   LIG A   1       0.966  -2.270   0.200  0.00  0.00    +0.210 HD
ENDBRANCH  14  15
BRANCH  14  17
ATOM     17  C   LIG A   1       0.973  -0.235   1.565  0.00  0.00    +0.173 C 
BRANCH  17  18
ATOM     18  C   LIG A   1       2.303  -0.449   2.291  0.00  0.00    -0.049 C 
ATOM     19  C   LIG A   1       3.135   0.572   2.568  0.00  0.00    +0.010 C 
ATOM     20  C   LIG A   1       2.666  -1.847   2.733  0.00  0.00    +0.041 C 
ENDBRANCH  17  18
BRANCH  17  21
ATOM     21  O   LIG A   1       0.033  -1.179   2.093  0.00  0.00    -0.385 OA
ATOM     22  H   LIG A   1      -0.072  -0.963   3.035  0.00  0.00    +0.210 HD
ENDBRANCH  17  21
ENDBRANCH  14  17
ENDBRANCH   1  14
TORSDOF 6
