REMARK  Name = NuBBE_2287
REMARK  4 active torsions:
REMARK  status: ('A' for Active; 'I' for Inactive)
REMARK    1  A    between atoms: C_1  and  C_2
REMARK    2  A    between atoms: C_5  and  O_24
REMARK    3  A    between atoms: C_18  and  C_19
REMARK    4  A    between atoms: C_18  and  C_20
REMARK                            x       y       z     vdW  Elec       q    Type
REMARK                         _______ _______ _______ _____ _____    ______ ____
ROOT
ATOM      1  C   LIG A   1       1.186   2.844   0.063  0.00  0.00    +0.016 C 
ATOM      2  C   LIG A   1       0.879   1.370   0.505  0.00  0.00    -0.007 C 
ATOM      3  C   LIG A   1      -0.653   1.173   0.330  0.00  0.00    -0.058 C 
ATOM      4  C   LIG A   1      -1.534   1.062   1.353  0.00  0.00    +0.005 C 
ATOM      5  C   LIG A   1      -2.558  -0.062   1.313  0.00  0.00    +0.145 C 
ATOM      6  C   LIG A   1      -2.667  -0.831  -0.050  0.00  0.00    +0.048 C 
ATOM      7  C   LIG A   1      -1.342  -0.817  -0.770  0.00  0.00    +0.022 C 
ATOM      8  C   LIG A   1      -1.128   0.664  -1.045  0.00  0.00    -0.003 C 
ATOM      9  C   LIG A   1      -2.562   1.124  -1.475  0.00  0.00    +0.041 C 
ATOM     10  C   LIG A   1      -3.395  -0.079  -1.106  0.00  0.00    -0.070 C 
ATOM     11  C   LIG A   1      -4.421  -0.604  -1.819  0.00  0.00    +0.008 C 
ATOM     12  C   LIG A   1      -0.117   0.933  -2.149  0.00  0.00    +0.012 C 
ATOM     13  C   LIG A   1       1.254   0.337  -1.854  0.00  0.00    +0.006 C 
ATOM     14  C   LIG A   1       1.671   0.281  -0.361  0.00  0.00    +0.005 C 
ATOM     15  C   LIG A   1       1.990  -1.230   0.223  0.00  0.00    -0.031 C 
ATOM     16  C   LIG A   1       2.973  -1.955  -0.770  0.00  0.00    +0.011 C 
ATOM     17  C   LIG A   1       0.961  -2.371   0.536  0.00  0.00    +0.011 C 
ATOM     18  C   LIG A   1       2.673  -1.040   1.588  0.00  0.00    +0.007 C 
ATOM     19  C   LIG A   1       2.250   0.145   2.439  0.00  0.00    +0.001 C 
ATOM     20  C   LIG A   1       1.413   1.320   1.955  0.00  0.00    +0.011 C 
ENDROOT
BRANCH   5  21
ATOM     21  O   LIG A   1      -3.820   0.382   1.775  0.00  0.00    -0.387 OA
ATOM     22  H   LIG A   1      -4.467  -0.278   1.472  0.00  0.00    +0.210 HD
ENDBRANCH   5  21
TORSDOF 1
