REMARK  Name = NuBBE_333
REMARK  6 active torsions:
REMARK  status: ('A' for Active; 'I' for Inactive)
REMARK    1  A    between atoms: C_2  and  O_3
REMARK    2  A    between atoms: C_2  and  C_5
REMARK    3  A    between atoms: O_3  and  C_4
REMARK    4  A    between atoms: C_8  and  O_10
REMARK    5  A    between atoms: C_16  and  O_18
REMARK    6  A    between atoms: C_19  and  C_21
REMARK                            x       y       z     vdW  Elec       q    Type
REMARK                         _______ _______ _______ _____ _____    ______ ____
ROOT
ATOM      1  C   LIG A   1      -0.768   0.145   1.261  0.00  0.00    +0.074 C 
ATOM      2  C   LIG A   1      -1.107   1.442   1.337  0.00  0.00    +0.201 C 
ATOM      3  O   LIG A   1      -0.446   2.476   0.723  0.00  0.00    -0.470 OA
ATOM      4  C   LIG A   1       0.882   2.168   0.296  0.00  0.00    +0.308 C 
ATOM      5  C   LIG A   1       0.993   0.827  -0.423  0.00  0.00    +0.071 C 
ATOM      6  C   LIG A   1       0.377  -0.328   0.399  0.00  0.00    +0.041 C 
ATOM      7  C   LIG A   1      -0.066  -1.369  -0.661  0.00  0.00    +0.040 C 
ATOM      8  C   LIG A   1       0.239  -0.757  -2.029  0.00  0.00    +0.118 C 
ATOM      9  C   LIG A   1       0.243   0.750  -1.766  0.00  0.00    +0.024 C 
ATOM     10  C   LIG A   1       0.884   1.576  -2.872  0.00  0.00    +0.010 C 
ENDROOT
BRANCH   1  12
ATOM     11  O   LIG A   1      -2.688  -0.606   2.496  0.00  0.00    -0.245 OA
ATOM     12  C   LIG A   1      -1.567  -0.820   2.067  0.00  0.00    +0.338 C 
BRANCH  12  13
ATOM     13  O   LIG A   1      -0.845  -1.956   2.239  0.00  0.00    -0.465 OA
ATOM     14  C   LIG A   1      -1.485  -2.977   3.005  0.00  0.00    +0.280 C 
ENDBRANCH  12  13
ENDBRANCH   1  12
BRANCH   4  15
ATOM     15  O   LIG A   1       1.758   2.168   1.419  0.00  0.00    -0.357 OA
ATOM     16  H   LIG A   1       1.734   3.079   1.756  0.00  0.00    +0.213 HD
ENDBRANCH   4  15
BRANCH   8  17
ATOM     17  O   LIG A   1       1.517  -1.215  -2.454  0.00  0.00    -0.392 OA
ATOM     18  H   LIG A   1       1.614  -0.987  -3.395  0.00  0.00    +0.210 HD
ENDBRANCH   8  17
TORSDOF 4
