@<TRIPOS>MOLECULE
NuBBE_1379
 19 18 0 0 0
SMALL
GASTEIGER

@<TRIPOS>ATOM
      1 C          -2.8720    0.8987   -0.1445 C.3     1  LIG1       -0.0653
      2 C          -1.4022    0.9776   -0.5249 C.3     1  LIG1       -0.0559
      3 C          -0.5817   -0.0884    0.2014 C.3     1  LIG1       -0.0529
      4 C           0.8945   -0.0133   -0.1858 C.3     1  LIG1       -0.0466
      5 C           1.7216   -1.0654    0.5463 C.3     1  LIG1        0.0028
      6 C           3.1806   -1.0111    0.1599 C.2     1  LIG1        0.1203
      7 O           3.6622   -0.2144   -0.6371 O.2     1  LIG1       -0.3010
      8 H          -3.4435    1.6684   -0.6725 H       1  LIG1        0.0230
      9 H          -3.0070    1.0525    0.9309 H       1  LIG1        0.0230
     10 H          -3.2924   -0.0773   -0.4074 H       1  LIG1        0.0230
     11 H          -1.0196    1.9752   -0.2792 H       1  LIG1        0.0263
     12 H          -1.3036    0.8509   -1.6094 H       1  LIG1        0.0263
     13 H          -0.9749   -1.0830   -0.0418 H       1  LIG1        0.0265
     14 H          -0.6849    0.0446    1.2852 H       1  LIG1        0.0265
     15 H           1.2865    0.9854    0.0437 H       1  LIG1        0.0269
     16 H           0.9990   -0.1513   -1.2692 H       1  LIG1        0.0269
     17 H           1.3552   -2.0719    0.3173 H       1  LIG1        0.0339
     18 H           1.6602   -0.9176    1.6298 H       1  LIG1        0.0339
     19 H           3.8218   -1.7595    0.6573 H       1  LIG1        0.1026
@<TRIPOS>BOND
     1     1     2    1
     2     2     3    1
     3     3     4    1
     4     4     5    1
     5     5     6    1
     6     6     7    2
     7     1     8    1
     8     1     9    1
     9     1    10    1
    10     2    11    1
    11     2    12    1
    12     3    13    1
    13     3    14    1
    14     4    15    1
    15     4    16    1
    16     5    17    1
    17     5    18    1
    18     6    19    1
