REMARK  Name = NuBBE_1678
REMARK  17 active torsions:
REMARK  status: ('A' for Active; 'I' for Inactive)
REMARK    1  A    between atoms: C_1  and  C_2
REMARK    2  A    between atoms: C_2  and  C_3
REMARK    3  A    between atoms: C_3  and  C_4
REMARK    4  A    between atoms: C_4  and  C_5
REMARK    5  A    between atoms: C_5  and  C_6
REMARK    6  A    between atoms: C_6  and  C_7
REMARK    7  A    between atoms: C_7  and  C_8
REMARK    8  A    between atoms: C_8  and  C_9
REMARK    9  A    between atoms: C_9  and  C_10
REMARK   10  A    between atoms: C_10  and  C_11
REMARK   11  A    between atoms: C_11  and  C_12
REMARK   12  A    between atoms: C_12  and  C_13
REMARK   13  A    between atoms: C_13  and  C_14
REMARK   14  A    between atoms: C_14  and  C_15
REMARK   15  A    between atoms: C_15  and  C_16
REMARK   16  A    between atoms: C_18  and  O_19
REMARK   17  A    between atoms: C_21  and  O_22
REMARK                            x       y       z     vdW  Elec       q    Type
REMARK                         _______ _______ _______ _____ _____    ______ ____
ROOT
ATOM      1  C   LIG A   1       0.293  -1.062  -3.353  0.00  0.00    +0.000 C 
ENDROOT
BRANCH   1   2
ATOM      2  C   LIG A   1      -0.106  -2.327  -4.156  0.00  0.00    +0.005 C 
BRANCH   2   3
ATOM      3  C   LIG A   1      -0.752  -2.321  -5.566  0.00  0.00    +0.035 C 
BRANCH   3   4
ATOM      4  C   LIG A   1      -2.192  -1.888  -5.726  0.00  0.00    -0.041 A 
ATOM      5  C   LIG A   1      -2.505  -0.540  -5.606  0.00  0.00    +0.049 A 
ATOM      6  C   LIG A   1      -3.770  -0.049  -5.800  0.00  0.00    +0.121 A 
ATOM      7  C   LIG A   1      -4.806  -0.921  -6.200  0.00  0.00    +0.090 A 
ATOM      8  C   LIG A   1      -4.499  -2.262  -6.366  0.00  0.00    +0.121 A 
ATOM      9  C   LIG A   1      -3.226  -2.769  -6.134  0.00  0.00    +0.049 A 
BRANCH   8  10
ATOM     10  O   LIG A   1      -5.522  -3.070  -6.795  0.00  0.00    -0.507 OA
ATOM     11  H   LIG A   1      -5.200  -3.974  -6.871  0.00  0.00    +0.292 HD
ENDBRANCH   8  10
BRANCH   6  12
ATOM     12  O   LIG A   1      -4.076   1.262  -5.652  0.00  0.00    -0.507 OA
ATOM     13  H   LIG A   1      -3.240   1.738  -5.432  0.00  0.00    +0.292 HD
ENDBRANCH   6  12
ENDBRANCH   3   4
ENDBRANCH   2   3
ENDBRANCH   1   2
BRANCH   1  14
ATOM     14  C   LIG A   1      -0.677  -0.041  -2.738  0.00  0.00    +0.000 C 
BRANCH  14  15
ATOM     15  C   LIG A   1      -1.648  -0.494  -1.642  0.00  0.00    -0.000 C 
BRANCH  15  16
ATOM     16  C   LIG A   1      -1.067  -1.197  -0.377  0.00  0.00    -0.000 C 
BRANCH  16  17
ATOM     17  C   LIG A   1      -0.055  -0.403   0.538  0.00  0.00    -0.000 C 
BRANCH  17  18
ATOM     18  C   LIG A   1       0.393  -1.154   1.847  0.00  0.00    -0.000 C 
BRANCH  18  19
ATOM     19  C   LIG A   1       1.473  -0.506   2.852  0.00  0.00    -0.000 C 
BRANCH  19  20
ATOM     20  C   LIG A   1       1.161   0.839   3.647  0.00  0.00    -0.000 C 
BRANCH  20  21
ATOM     21  C   LIG A   1       2.304   1.472   4.599  0.00  0.00    -0.000 C 
BRANCH  21  22
ATOM     22  C   LIG A   1       1.953   2.800   5.399  0.00  0.00    -0.000 C 
BRANCH  22  23
ATOM     23  C   LIG A   1       3.088   3.465   6.294  0.00  0.00    -0.000 C 
BRANCH  23  25
ATOM     24  C   LIG A   1       4.571   3.129   8.480  0.00  0.00    +0.004 C 
ATOM     25  C   LIG A   1       3.542   2.585   7.476  0.00  0.00    -0.003 C 
ENDBRANCH  23  25
ENDBRANCH  22  23
ENDBRANCH  21  22
ENDBRANCH  20  21
ENDBRANCH  19  20
ENDBRANCH  18  19
ENDBRANCH  17  18
ENDBRANCH  16  17
ENDBRANCH  15  16
ENDBRANCH  14  15
ENDBRANCH   1  14
TORSDOF 16
