REMARK  Name = NuBBE_636
REMARK  23 active torsions:
REMARK  status: ('A' for Active; 'I' for Inactive)
REMARK    1  A    between atoms: O_1  and  C_2
REMARK    2  A    between atoms: C_6  and  O_8
REMARK    3  A    between atoms: O_8  and  C_9
REMARK    4  A    between atoms: C_9  and  C_10
REMARK    5  A    between atoms: C_13  and  O_15
REMARK    6  A    between atoms: O_15  and  C_16
REMARK    7  A    between atoms: C_16  and  C_17
REMARK    8  A    between atoms: C_20  and  O_22
REMARK    9  A    between atoms: C_23  and  O_25
REMARK   10  A    between atoms: O_25  and  C_26
REMARK   11  A    between atoms: C_26  and  C_27
REMARK   12  A    between atoms: C_28  and  C_29
REMARK   13  A    between atoms: C_30  and  C_31
REMARK   14  A    between atoms: C_31  and  C_32
REMARK   15  A    between atoms: C_32  and  C_33
REMARK   16  A    between atoms: C_33  and  C_34
REMARK   17  A    between atoms: C_34  and  C_35
REMARK   18  A    between atoms: C_37  and  C_39
REMARK   19  A    between atoms: C_40  and  C_41
REMARK   20  A    between atoms: C_40  and  C_42
REMARK   21  A    between atoms: C_42  and  C_43
REMARK   22  A    between atoms: C_43  and  C_44
REMARK   23  A    between atoms: C_44  and  C_45
REMARK                            x       y       z     vdW  Elec       q    Type
REMARK                         _______ _______ _______ _____ _____    ______ ____
ROOT
ATOM      1  C   LIG A   1       0.383   2.656  -3.212  0.00  0.00    +0.138 C 
ATOM      2  C   LIG A   1       1.184   1.604  -3.887  0.00  0.00    +0.010 C 
ATOM      3  C   LIG A   1       2.071   0.891  -3.178  0.00  0.00    +0.011 C 
ATOM      4  C   LIG A   1       3.158  -0.003  -3.728  0.00  0.00    +0.343 C 
ATOM      5  O   LIG A   1       3.944  -0.335  -2.565  0.00  0.00    -0.297 OA
ATOM      6  C   LIG A   1       3.705   0.706  -1.607  0.00  0.00    +0.327 C 
ATOM      7  C   LIG A   1       2.185   0.981  -1.652  0.00  0.00    +0.093 C 
ATOM      8  C   LIG A   1       1.267  -0.139  -1.099  0.00  0.00    +0.172 C 
ATOM      9  C   LIG A   1       1.073  -0.223   0.427  0.00  0.00    +0.210 C 
ATOM     10  C   LIG A   1       1.061   1.137   1.190  0.00  0.00    +0.036 C 
ATOM     11  C   LIG A   1       2.192   1.208   2.230  0.00  0.00    +0.012 C 
ATOM     12  C   LIG A   1       0.890   2.422   0.286  0.00  0.00    -0.022 C 
ATOM     13  C   LIG A   1      -0.602   2.474  -0.122  0.00  0.00    +0.012 C 
ATOM     14  C   LIG A   1       1.812   2.396  -1.036  0.00  0.00    +0.017 C 
ATOM     15  C   LIG A   1       1.273   3.350  -2.162  0.00  0.00    +0.040 C 
ENDROOT
BRANCH   1  16
ATOM     16  O   LIG A   1      -0.015   3.605  -4.189  0.00  0.00    -0.388 OA
ATOM     17  H   LIG A   1      -0.702   3.177  -4.731  0.00  0.00    +0.210 HD
ENDBRANCH   1  16
BRANCH   8  18
ATOM     18  O   LIG A   1       1.602  -1.444  -1.603  0.00  0.00    -0.387 OA
ATOM     19  H   LIG A   1       2.519  -1.661  -1.346  0.00  0.00    +0.210 HD
ENDBRANCH   8  18
BRANCH   9  20
ATOM     20  O   LIG A   1      -0.289  -0.780   0.578  0.00  0.00    -0.455 OA
BRANCH  20  21
ATOM     21  C   LIG A   1      -0.445  -2.136   0.692  0.00  0.00    +0.332 C 
ATOM     22  O   LIG A   1       0.382  -2.942   0.993  0.00  0.00    -0.246 OA
BRANCH  21  23
ATOM     23  C   LIG A   1      -1.877  -2.413   0.338  0.00  0.00    +0.091 C 
ATOM     24  C   LIG A   1      -2.307  -3.626  -0.046  0.00  0.00    +0.007 C 
BRANCH  24  25
ATOM     25  C   LIG A   1      -3.725  -3.898  -0.254  0.00  0.00    -0.004 C 
ATOM     26  C   LIG A   1      -4.382  -4.862   0.421  0.00  0.00    -0.027 C 
BRANCH  26  27
ATOM     27  C   LIG A   1      -5.883  -4.823   0.625  0.00  0.00    +0.027 C 
BRANCH  27  28
ATOM     28  C   LIG A   1      -6.524  -6.000   1.401  0.00  0.00    +0.004 C 
BRANCH  28  29
ATOM     29  C   LIG A   1      -5.952  -6.250   2.809  0.00  0.00    +0.000 C 
BRANCH  29  30
ATOM     30  C   LIG A   1      -6.615  -7.404   3.583  0.00  0.00    -0.003 C 
ATOM     31  C   LIG A   1      -6.442  -8.767   2.924  0.00  0.00    +0.004 C 
ENDBRANCH  29  30
ENDBRANCH  28  29
ENDBRANCH  27  28
ENDBRANCH  26  27
ENDBRANCH  24  25
ENDBRANCH  21  23
ENDBRANCH  20  21
ENDBRANCH   9  20
BRANCH  12  32
ATOM     32  C   LIG A   1       1.174   3.773   1.109  0.00  0.00    +0.012 C 
BRANCH  32  33
ATOM     33  C   LIG A   1       0.192   4.089   2.275  0.00  0.00    +0.035 C 
BRANCH  33  34
ATOM     34  C   LIG A   1       0.428   5.384   3.040  0.00  0.00    -0.055 C 
ATOM     35  C   LIG A   1      -0.556   6.290   3.187  0.00  0.00    +0.012 C 
BRANCH  34  36
ATOM     36  C   LIG A   1       1.697   5.572   3.718  0.00  0.00    -0.005 C 
ATOM     37  C   LIG A   1       2.481   6.646   3.548  0.00  0.00    +0.008 C 
ENDBRANCH  34  36
ENDBRANCH  33  34
ENDBRANCH  32  33
ENDBRANCH  12  32
BRANCH   6  38
ATOM     38  O   LIG A   1       4.139   0.361  -0.297  0.00  0.00    -0.434 OA
BRANCH  38  39
ATOM     39  C   LIG A   1       5.493   0.455  -0.160  0.00  0.00    +0.306 C 
ATOM     40  C   LIG A   1       5.867   0.621   1.277  0.00  0.00    +0.136 C 
ATOM     41  O   LIG A   1       6.305   0.538  -1.074  0.00  0.00    -0.251 OA
ENDBRANCH  38  39
ENDBRANCH   6  38
BRANCH   4  42
ATOM     42  O   LIG A   1       3.928   0.777  -4.648  0.00  0.00    -0.431 OA
BRANCH  42  43
ATOM     43  C   LIG A   1       3.514   0.703  -5.939  0.00  0.00    +0.306 C 
ATOM     44  C   LIG A   1       3.513   2.082  -6.537  0.00  0.00    +0.136 C 
ATOM     45  O   LIG A   1       3.044  -0.285  -6.494  0.00  0.00    -0.251 OA
ENDBRANCH  42  43
ENDBRANCH   4  42
TORSDOF 18
