@<TRIPOS>MOLECULE
NuBBE_1226
 44 46 0 0 0
SMALL
GASTEIGER

@<TRIPOS>ATOM
      1 O          -3.5795    0.3895    0.7085 O.2     1  LIG1       -0.2830
      2 C          -2.3665    0.2537    0.5389 C.ar    1  LIG1        0.2382
      3 C          -1.6936   -1.0739    0.4100 C.ar    1  LIG1        0.2107
      4 O          -2.3881   -2.2745    0.3837 O.3     1  LIG1       -0.4883
      5 C          -3.6769   -2.2539   -0.2190 C.3     1  LIG1        0.0791
      6 C          -0.3461   -1.0648    0.3555 C.ar    1  LIG1        0.1808
      7 C           0.4392   -2.2985    0.2073 C.ar    1  LIG1        0.0213
      8 C           0.9122   -2.9889    1.3277 C.ar    1  LIG1       -0.0475
      9 C           1.6857   -4.1420    1.1648 C.ar    1  LIG1       -0.0193
     10 H           2.0497   -4.6761    2.0391 H       1  LIG1        0.0654
     11 C           2.0099   -4.6053   -0.1120 C.ar    1  LIG1        0.1201
     12 O           2.7694   -5.7425   -0.1491 O.3     1  LIG1       -0.4951
     13 C           3.6127   -5.8763   -1.2887 C.3     1  LIG1        0.0788
     14 C           1.5247   -3.9300   -1.2317 C.ar    1  LIG1       -0.0193
     15 C           0.7459   -2.7790   -1.0722 C.ar    1  LIG1       -0.0475
     16 O           0.4536    0.0596    0.3995 O.2     1  LIG1       -0.4507
     17 C          -1.5214    1.4568    0.4509 C.ar    1  LIG1        0.1128
     18 C          -0.1466    1.2891    0.3999 C.ar    1  LIG1        0.1468
     19 C           0.7032    2.3961    0.3532 C.ar    1  LIG1        0.0270
     20 H           1.7723    2.2082    0.3373 H       1  LIG1        0.0692
     21 C           0.1846    3.6971    0.3460 C.ar    1  LIG1        0.1687
     22 O           0.9732    4.8146    0.3741 O.3     1  LIG1       -0.4912
     23 C           2.3837    4.6581    0.4280 C.3     1  LIG1        0.0790
     24 C          -1.2142    3.8787    0.3486 C.ar    1  LIG1        0.2043
     25 O          -1.8620    5.0922    0.3626 O.3     1  LIG1       -0.4885
     26 C          -1.2553    6.1660   -0.3452 C.3     1  LIG1        0.0791
     27 C          -2.0581    2.7510    0.4218 C.ar    1  LIG1        0.1769
     28 O          -3.4184    2.9616    0.4482 O.3     1  LIG1       -0.5027
     29 H          -3.6719   -1.7185   -1.1743 H       1  LIG1        0.0660
     30 H          -4.4211   -1.8406    0.4668 H       1  LIG1        0.0660
     31 H          -3.9648   -3.2911   -0.4189 H       1  LIG1        0.0660
     32 H           0.6860   -2.6366    2.3310 H       1  LIG1        0.0626
     33 H           4.2680   -6.7363   -1.1196 H       1  LIG1        0.0660
     34 H           4.2465   -4.9918   -1.4157 H       1  LIG1        0.0660
     35 H           3.0330   -6.0783   -2.1946 H       1  LIG1        0.0660
     36 H           1.7206   -4.2835   -2.2382 H       1  LIG1        0.0654
     37 H           0.3791   -2.2602   -1.9548 H       1  LIG1        0.0626
     38 H           2.7602    4.2311   -0.5067 H       1  LIG1        0.0660
     39 H           2.6912    4.0615    1.2928 H       1  LIG1        0.0660
     40 H           2.8220    5.6540    0.5435 H       1  LIG1        0.0660
     41 H          -2.0141    6.9420   -0.4877 H       1  LIG1        0.0660
     42 H          -0.9038    5.8581   -1.3361 H       1  LIG1        0.0660
     43 H          -0.4552    6.6242    0.2426 H       1  LIG1        0.0660
     44 H          -3.8689    2.0994    0.5824 H       1  LIG1        0.2923
@<TRIPOS>BOND
     1     1     2    2
     2     2     3   ar
     3     3     4    1
     4     4     5    1
     5     3     6   ar
     6     6     7    1
     7     7     8   ar
     8     8     9   ar
     9     9    10    1
    10     9    11   ar
    11    11    12    1
    12    12    13    1
    13    11    14   ar
    14    14    15   ar
    15     7    15   ar
    16     6    16   ar
    17     2    17   ar
    18    17    18   ar
    19    16    18   ar
    20    18    19   ar
    21    19    20    1
    22    19    21   ar
    23    21    22    1
    24    22    23    1
    25    21    24   ar
    26    24    25    1
    27    25    26    1
    28    24    27   ar
    29    17    27   ar
    30    27    28    1
    31     5    29    1
    32     5    30    1
    33     5    31    1
    34     8    32    1
    35    13    33    1
    36    13    34    1
    37    13    35    1
    38    14    36    1
    39    15    37    1
    40    23    38    1
    41    23    39    1
    42    23    40    1
    43    26    41    1
    44    26    42    1
    45    26    43    1
    46    28    44    1
