@<TRIPOS>MOLECULE
NuBBE_2213
 26 27 0 0 0
SMALL
GASTEIGER

@<TRIPOS>ATOM
      1 C          -2.5384   -1.2329   -0.1838 C.2     1  LIG1        0.3371
      2 O          -3.1448   -0.7727    0.7648 O.2     1  LIG1       -0.2451
      3 O          -3.1172   -1.7589   -1.2819 O.3     1  LIG1       -0.4771
      4 C          -1.0644   -1.2425   -0.2825 C.ar    1  LIG1        0.0631
      5 C          -0.3226   -0.0470   -0.2710 C.ar    1  LIG1       -0.0124
      6 C           1.0762   -0.1211   -0.3961 C.ar    1  LIG1        0.1043
      7 C           1.8920    1.1192   -0.4455 C.2     1  LIG1        0.3433
      8 O           3.0777    1.0622   -0.7533 O.2     1  LIG1       -0.2448
      9 O           1.2749    2.2911   -0.1636 O.3     1  LIG1       -0.4577
     10 C          -0.0250    2.3127    0.4576 C.3     1  LIG1        0.1046
     11 H          -0.4279    3.3185    0.2892 H       1  LIG1        0.0734
     12 C          -0.9633    1.3127   -0.2107 C.3     1  LIG1        0.0110
     13 C           0.1181    2.1182    1.9655 C.3     1  LIG1       -0.0274
     14 C           1.7059   -1.3718   -0.5088 C.ar    1  LIG1        0.1311
     15 C           0.9612   -2.5482   -0.4844 C.ar    1  LIG1       -0.0186
     16 C          -0.4254   -2.4872   -0.3715 C.ar    1  LIG1       -0.0440
     17 O           3.0585   -1.5272   -0.6525 O.3     1  LIG1       -0.5059
     18 H          -2.4968   -2.0255   -1.9879 H       1  LIG1        0.2954
     19 H          -1.1606    1.6260   -1.2435 H       1  LIG1        0.0349
     20 H          -1.9147    1.3065    0.3270 H       1  LIG1        0.0349
     21 H           0.5751    1.1555    2.2156 H       1  LIG1        0.0265
     22 H          -0.8535    2.1821    2.4648 H       1  LIG1        0.0265
     23 H           0.7747    2.8896    2.3825 H       1  LIG1        0.0265
     24 H           1.4657   -3.5094   -0.5558 H       1  LIG1        0.0654
     25 H          -1.0006   -3.4110   -0.3394 H       1  LIG1        0.0627
     26 H           3.4750   -0.6390   -0.7348 H       1  LIG1        0.2922
@<TRIPOS>BOND
     1     1     2    2
     2     1     3    1
     3     1     4    1
     4     4     5   ar
     5     5     6   ar
     6     6     7    1
     7     7     8    2
     8     7     9    1
     9     9    10    1
    10    10    12    1
    11     5    12    1
    12     6    14   ar
    13    14    15   ar
    14    15    16   ar
    15     4    16   ar
    16    14    17    1
    17    10    13    1
    18    10    11    1
    19     3    18    1
    20    12    19    1
    21    12    20    1
    22    13    21    1
    23    13    22    1
    24    13    23    1
    25    15    24    1
    26    16    25    1
    27    17    26    1
