@<TRIPOS>MOLECULE
NuBBE_407
 71 75 0 0 0
SMALL
GASTEIGER

@<TRIPOS>ATOM
      1 O          -5.8369   -2.5574    1.0883 O.2     1  LIG1       -0.2840
      2 C          -4.7729   -2.1024    1.5016 C.2     1  LIG1        0.2206
      3 C          -4.0622   -2.7779    2.6190 C.2     1  LIG1        0.1671
      4 O          -4.6393   -3.9369    3.1098 O.2     1  LIG1       -0.5030
      5 C          -2.9097   -2.2765    3.1008 C.2     1  LIG1        0.0022
      6 C          -2.1504   -2.9985    4.1861 C.3     1  LIG1       -0.0356
      7 C          -2.3539   -1.0345    2.5152 C.2     1  LIG1       -0.0144
      8 C          -1.2400   -0.4725    3.0190 C.2     1  LIG1       -0.0539
      9 C          -0.5095    0.5844    2.3695 C.2     1  LIG1       -0.0606
     10 C          -0.9314    1.1822    1.2384 C.2     1  LIG1       -0.0529
     11 C           0.0315    1.9926    0.2898 C.3     1  LIG1       -0.0043
     12 C           1.4855    2.1379    0.9059 C.3     1  LIG1       -0.0429
     13 C           2.5896    2.3649   -0.1242 C.3     1  LIG1       -0.0465
     14 C           2.7571    1.1461   -1.0673 C.3     1  LIG1       -0.0286
     15 C           3.3023    1.6808   -2.4170 C.3     1  LIG1       -0.0593
     16 C           1.4189    0.3348   -1.1359 C.3     1  LIG1       -0.0284
     17 H           1.3286   -0.1941   -0.1745 H       1  LIG1        0.0312
     18 C           1.5430   -0.8223   -2.1501 C.3     1  LIG1       -0.0336
     19 C           2.6319   -1.8371   -1.6896 C.3     1  LIG1        0.0651
     20 C           2.8997   -2.8632   -2.8056 C.3     1  LIG1       -0.0494
     21 C           2.1688   -2.6196   -0.4405 C.2     1  LIG1        0.3107
     22 O           1.0148   -3.3075   -0.5978 O.3     1  LIG1       -0.4802
     23 O           2.7702   -2.6482    0.6221 O.2     1  LIG1       -0.2504
     24 C           3.9689   -1.1109   -1.3680 C.3     1  LIG1       -0.0370
     25 C           3.8213    0.1590   -0.5097 C.3     1  LIG1       -0.0464
     26 C          -0.4907    3.4481    0.1696 C.3     1  LIG1       -0.0553
     27 C           0.1133    1.2200   -1.1412 C.3     1  LIG1       -0.0196
     28 C           0.0998    2.1833   -2.3524 C.3     1  LIG1       -0.0585
     29 C          -1.1270    0.2854   -1.3349 C.3     1  LIG1       -0.0455
     30 C          -2.4117    0.8963   -0.7856 C.3     1  LIG1       -0.0393
     31 C          -2.3908    0.9230    0.7658 C.3     1  LIG1        0.0154
     32 C          -3.3092    2.0603    1.2814 C.3     1  LIG1       -0.0517
     33 C          -2.9955   -0.3914    1.3519 C.2     1  LIG1       -0.0262
     34 C          -4.1609   -0.9023    0.9049 C.2     1  LIG1       -0.0067
     35 H          -5.4557   -4.0545    2.5789 H       1  LIG1        0.2923
     36 H          -2.6192   -3.9442    4.4773 H       1  LIG1        0.0279
     37 H          -2.0841   -2.3835    5.0895 H       1  LIG1        0.0279
     38 H          -1.1380   -3.2468    3.8472 H       1  LIG1        0.0279
     39 H          -0.7297   -0.8889    3.8833 H       1  LIG1        0.0624
     40 H           0.4792    0.7278    2.7890 H       1  LIG1        0.0618
     41 H           1.7928    1.2438    1.4544 H       1  LIG1        0.0274
     42 H           1.5006    2.9544    1.6400 H       1  LIG1        0.0274
     43 H           3.5340    2.5663    0.3974 H       1  LIG1        0.0271
     44 H           2.3694    3.2780   -0.6878 H       1  LIG1        0.0271
     45 H           2.6653    2.4431   -2.8663 H       1  LIG1        0.0235
     46 H           3.4392    0.9018   -3.1703 H       1  LIG1        0.0235
     47 H           4.2826    2.1508   -2.2683 H       1  LIG1        0.0235
     48 H           1.7725   -0.4371   -3.1491 H       1  LIG1        0.0279
     49 H           0.5911   -1.3463   -2.2636 H       1  LIG1        0.0279
     50 H           3.3138   -2.3806   -3.6976 H       1  LIG1        0.0240
     51 H           1.9851   -3.3823   -3.1117 H       1  LIG1        0.0240
     52 H           3.6115   -3.6279   -2.4732 H       1  LIG1        0.0240
     53 H           0.6020   -3.2431   -1.4768 H       1  LIG1        0.2951
     54 H           4.4725   -0.8412   -2.3047 H       1  LIG1        0.0276
     55 H           4.6610   -1.7945   -0.8586 H       1  LIG1        0.0276
     56 H           4.7995    0.6526   -0.4425 H       1  LIG1        0.0271
     57 H           3.5628   -0.1272    0.5172 H       1  LIG1        0.0271
     58 H          -0.7084    3.8681    1.1593 H       1  LIG1        0.0238
     59 H          -1.3973    3.5339   -0.4314 H       1  LIG1        0.0238
     60 H           0.2488    4.1109   -0.2923 H       1  LIG1        0.0238
     61 H           0.7767    3.0293   -2.2315 H       1  LIG1        0.0235
     62 H          -0.8929    2.6130   -2.5232 H       1  LIG1        0.0235
     63 H           0.3725    1.6588   -3.2750 H       1  LIG1        0.0235
     64 H          -0.9676   -0.6817   -0.8401 H       1  LIG1        0.0271
     65 H          -1.2685    0.0608   -2.4002 H       1  LIG1        0.0271
     66 H          -3.2544    0.3229   -1.1834 H       1  LIG1        0.0277
     67 H          -2.5589    1.9009   -1.1951 H       1  LIG1        0.0277
     68 H          -2.9995    3.0484    0.9352 H       1  LIG1        0.0241
     69 H          -3.3248    2.0966    2.3779 H       1  LIG1        0.0241
     70 H          -4.3436    1.9278    0.9421 H       1  LIG1        0.0241
     71 H          -4.7435   -0.4562    0.1092 H       1  LIG1        0.0660
@<TRIPOS>BOND
     1     2     3    1
     2     3     5    2
     3     5     7    1
     4     7     8    2
     5     8     9    1
     6     9    10    2
     7    10    11    1
     8    11    12    1
     9    12    13    1
    10    13    14    1
    11    14    16    1
    12    16    18    1
    13    18    19    1
    14    21    22    1
    15    21    23    2
    16    19    24    1
    17    24    25    1
    18    14    25    1
    19    11    27    1
    20    16    27    1
    21    27    29    1
    22    29    30    1
    23    10    31    1
    24    30    31    1
    25    31    33    1
    26     7    33    1
    27    33    34    2
    28     2    34    1
    29     1     2    2
    30     3     4    1
    31     5     6    1
    32    11    26    1
    33    14    15    1
    34    16    17    1
    35    27    28    1
    36    31    32    1
    37    19    21    1
    38    19    20    1
    39     4    35    1
    40     6    36    1
    41     6    37    1
    42     6    38    1
    43     8    39    1
    44     9    40    1
    45    12    41    1
    46    12    42    1
    47    13    43    1
    48    13    44    1
    49    15    45    1
    50    15    46    1
    51    15    47    1
    52    18    48    1
    53    18    49    1
    54    20    50    1
    55    20    51    1
    56    20    52    1
    57    22    53    1
    58    24    54    1
    59    24    55    1
    60    25    56    1
    61    25    57    1
    62    26    58    1
    63    26    59    1
    64    26    60    1
    65    28    61    1
    66    28    62    1
    67    28    63    1
    68    29    64    1
    69    29    65    1
    70    30    66    1
    71    30    67    1
    72    32    68    1
    73    32    69    1
    74    32    70    1
    75    34    71    1
