REMARK  Name = NuBBE_143
REMARK  9 active torsions:
REMARK  status: ('A' for Active; 'I' for Inactive)
REMARK    1  A    between atoms: C_1  and  C_2
REMARK    2  A    between atoms: C_2  and  C_3
REMARK    3  A    between atoms: C_7  and  C_8
REMARK    4  A    between atoms: C_11  and  O_13
REMARK    5  A    between atoms: O_13  and  C_14
REMARK    6  A    between atoms: C_14  and  C_15
REMARK    7  A    between atoms: C_18  and  C_19
REMARK    8  A    between atoms: C_23  and  C_24
REMARK    9  A    between atoms: C_23  and  C_25
REMARK                            x       y       z     vdW  Elec       q    Type
REMARK                         _______ _______ _______ _____ _____    ______ ____
ROOT
ATOM      1  C   LIG A   1      -1.818  -3.345   0.687  0.00  0.00    +0.011 C 
ATOM      2  C   LIG A   1      -1.208  -2.669  -0.567  0.00  0.00    -0.028 C 
ATOM      3  C   LIG A   1      -2.327  -2.673  -1.631  0.00  0.00    +0.011 C 
ATOM      4  C   LIG A   1      -0.061  -3.623  -1.017  0.00  0.00    +0.007 C 
ATOM      5  C   LIG A   1       0.843  -3.078  -2.112  0.00  0.00    +0.001 C 
ATOM      6  C   LIG A   1       1.387  -1.700  -1.747  0.00  0.00    +0.007 C 
ATOM      7  C   LIG A   1       0.294  -0.640  -1.411  0.00  0.00    -0.020 C 
ATOM      8  C   LIG A   1      -0.495  -0.376  -2.726  0.00  0.00    +0.012 C 
ATOM      9  C   LIG A   1      -0.611  -1.224  -0.243  0.00  0.00    +0.042 C 
ATOM     10  C   LIG A   1      -1.607  -0.137   0.260  0.00  0.00    +0.183 C 
ATOM     11  C   LIG A   1      -0.908   1.170   0.677  0.00  0.00    +0.080 C 
ATOM     12  C   LIG A   1       0.001   1.803  -0.372  0.00  0.00    +0.074 C 
ATOM     13  C   LIG A   1      -0.858   2.501  -1.445  0.00  0.00    +0.042 C 
ATOM     14  C   LIG A   1       0.974   0.746  -0.990  0.00  0.00    +0.027 C 
ATOM     15  C   LIG A   1       2.208   0.589  -0.086  0.00  0.00    +0.010 C 
ATOM     16  C   LIG A   1       2.874   1.946   0.067  0.00  0.00    +0.039 C 
ATOM     17  C   LIG A   1       1.959   2.950   0.760  0.00  0.00    +0.085 C 
ATOM     18  C   LIG A   1       2.460   4.375   0.451  0.00  0.00    +0.046 C 
ATOM     19  O   LIG A   1       0.630   2.950   0.242  0.00  0.00    -0.363 OA
ENDROOT
BRANCH  17  20
ATOM     20  C   LIG A   1       1.935   2.693   2.259  0.00  0.00    -0.001 C 
ATOM     21  C   LIG A   1       2.735   3.253   3.182  0.00  0.00    +0.007 C 
ENDBRANCH  17  20
BRANCH  10  22
ATOM     22  O   LIG A   1      -2.519  -0.552   1.313  0.00  0.00    -0.461 OA
BRANCH  22  23
ATOM     23  C   LIG A   1      -2.102  -0.708   2.601  0.00  0.00    +0.304 C 
ATOM     24  C   LIG A   1      -3.286  -0.912   3.495  0.00  0.00    +0.136 C 
ATOM     25  O   LIG A   1      -0.949  -0.653   3.002  0.00  0.00    -0.251 OA
ENDBRANCH  22  23
ENDBRANCH  10  22
TORSDOF 3
