@<TRIPOS>MOLECULE
NuBBE_1640
 77 78 0 0 0
SMALL
GASTEIGER

@<TRIPOS>ATOM
      1 C          -3.6264   -2.4473    2.8482 C.3     1  LIG1       -0.0361
      2 C          -2.6132   -3.5402    3.0536 C.ar    1  LIG1       -0.0050
      3 C          -1.4277   -3.5976    2.2934 C.ar    1  LIG1        0.1276
      4 C          -0.5041   -4.6227    2.5097 C.ar    1  LIG1       -0.0018
      5 C          -0.7360   -5.5639    3.5118 C.ar    1  LIG1       -0.0126
      6 C          -1.9285   -5.5489    4.2257 C.ar    1  LIG1        0.1324
      7 C          -2.8528   -4.5235    4.0307 C.ar    1  LIG1       -0.0128
      8 O          -2.2366   -6.5380    5.1792 O.3     1  LIG1       -0.4260
      9 C          -1.8141   -7.8487    4.9483 C.2     1  LIG1        0.3092
     10 O          -1.2191   -8.2780    3.9665 O.2     1  LIG1       -0.2507
     11 C          -2.1806   -8.7229    6.1044 C.3     1  LIG1        0.0336
     12 C           0.7208   -4.7529    1.6612 C.3     1  LIG1       -0.0205
     13 C           0.3980   -4.1914    0.2895 C.3     1  LIG1       -0.0091
     14 C          -0.1388   -2.7523    0.4059 C.3     1  LIG1        0.1082
     15 O          -1.2430   -2.6344    1.3411 O.3     1  LIG1       -0.4854
     16 C           0.9575   -1.7414    0.8458 C.3     1  LIG1       -0.0129
     17 C           2.1816   -1.6435   -0.0877 C.3     1  LIG1       -0.0469
     18 C           3.2722   -0.6475    0.3631 C.3     1  LIG1       -0.0438
     19 C           2.7795    0.8190    0.4595 C.3     1  LIG1       -0.0504
     20 C           2.2163    1.3641   -0.8692 C.3     1  LIG1       -0.0521
     21 C           1.6942    2.8141   -0.7787 C.3     1  LIG1       -0.0401
     22 C           1.1314    3.3468   -2.1310 C.3     1  LIG1        0.0563
     23 C           0.6051    4.8033   -2.0068 C.3     1  LIG1       -0.0401
     24 C          -0.1299    5.3378   -3.2645 C.3     1  LIG1       -0.0521
     25 C          -0.5724    6.8092   -3.1013 C.3     1  LIG1       -0.0507
     26 C          -1.3610    7.4117   -4.2925 C.3     1  LIG1       -0.0467
     27 C          -2.7339    6.7689   -4.5007 C.3     1  LIG1       -0.0627
     28 C          -1.5500    8.9230   -4.0844 C.3     1  LIG1       -0.0627
     29 C           2.1923    3.2951   -3.1970 C.2     1  LIG1        0.3078
     30 O           3.3645    3.6734   -3.0918 O.2     1  LIG1       -0.2507
     31 O           1.7453    2.8031   -4.3603 O.3     1  LIG1       -0.4804
     32 C           3.9070   -1.1090    1.6814 C.3     1  LIG1       -0.0624
     33 C          -0.7538   -2.3302   -0.9401 C.3     1  LIG1       -0.0249
     34 H          -3.8012   -2.2640    1.7829 H       1  LIG1        0.0279
     35 H          -3.2894   -1.5228    3.3266 H       1  LIG1        0.0279
     36 H          -4.5942   -2.7238    3.2825 H       1  LIG1        0.0279
     37 H           0.0082   -6.3338    3.6888 H       1  LIG1        0.0658
     38 H          -3.7651   -4.4936    4.6216 H       1  LIG1        0.0658
     39 H          -2.7932   -8.1841    6.8301 H       1  LIG1        0.0342
     40 H          -1.2655   -9.0681    6.5924 H       1  LIG1        0.0342
     41 H          -2.7531   -9.5735    5.7256 H       1  LIG1        0.0342
     42 H           1.0025   -5.8079    1.5555 H       1  LIG1        0.0316
     43 H           1.5577   -4.2348    2.1400 H       1  LIG1        0.0316
     44 H          -0.3700   -4.8324   -0.1663 H       1  LIG1        0.0307
     45 H           1.2733   -4.2577   -0.3631 H       1  LIG1        0.0307
     46 H           1.2875   -2.0012    1.8581 H       1  LIG1        0.0304
     47 H           0.4932   -0.7538    0.9510 H       1  LIG1        0.0304
     48 H           1.8639   -1.3633   -1.0955 H       1  LIG1        0.0269
     49 H           2.6520   -2.6275   -0.1952 H       1  LIG1        0.0269
     50 H           4.0672   -0.6808   -0.3962 H       1  LIG1        0.0298
     51 H           3.6243    1.4478    0.7701 H       1  LIG1        0.0268
     52 H           2.0249    0.9046    1.2487 H       1  LIG1        0.0268
     53 H           1.3886    0.7353   -1.2100 H       1  LIG1        0.0266
     54 H           3.0080    1.2970   -1.6241 H       1  LIG1        0.0266
     55 H           2.4993    3.4691   -0.4230 H       1  LIG1        0.0273
     56 H           0.8967    2.8504   -0.0271 H       1  LIG1        0.0273
     57 H           0.3024    2.6897   -2.4270 H       1  LIG1        0.0413
     58 H           1.4454    5.4710   -1.7758 H       1  LIG1        0.0273
     59 H          -0.0856    4.8543   -1.1573 H       1  LIG1        0.0273
     60 H          -0.9978    4.7005   -3.4625 H       1  LIG1        0.0266
     61 H           0.5291    5.2748   -4.1375 H       1  LIG1        0.0266
     62 H           0.3309    7.4169   -2.9566 H       1  LIG1        0.0268
     63 H          -1.1692    6.9120   -2.1866 H       1  LIG1        0.0268
     64 H          -0.7803    7.2724   -5.2130 H       1  LIG1        0.0295
     65 H          -2.6467    5.7108   -4.7605 H       1  LIG1        0.0232
     66 H          -3.2673    7.2597   -5.3250 H       1  LIG1        0.0232
     67 H          -3.3578    6.8592   -3.6054 H       1  LIG1        0.0232
     68 H          -1.9585    9.1421   -3.0915 H       1  LIG1        0.0232
     69 H          -2.2348    9.3494   -4.8270 H       1  LIG1        0.0232
     70 H          -0.5943    9.4485   -4.1806 H       1  LIG1        0.0232
     71 H           2.5026    2.8999   -4.9766 H       1  LIG1        0.2951
     72 H           3.1934   -1.0755    2.5097 H       1  LIG1        0.0232
     73 H           4.7581   -0.4763    1.9519 H       1  LIG1        0.0232
     74 H           4.2749   -2.1388    1.5956 H       1  LIG1        0.0232
     75 H          -1.3509   -3.1455   -1.3646 H       1  LIG1        0.0268
     76 H          -0.0104   -2.0540   -1.6898 H       1  LIG1        0.0268
     77 H          -1.4423   -1.4874   -0.8063 H       1  LIG1        0.0268
@<TRIPOS>BOND
     1     1     2    1
     2     2     3   ar
     3     3     4   ar
     4     4     5   ar
     5     5     6   ar
     6     6     7   ar
     7     2     7   ar
     8     6     8    1
     9     8     9    1
    10     9    10    2
    11     9    11    1
    12     4    12    1
    13    12    13    1
    14    13    14    1
    15    14    15    1
    16     3    15    1
    17    14    16    1
    18    16    17    1
    19    17    18    1
    20    18    19    1
    21    19    20    1
    22    20    21    1
    23    21    22    1
    24    22    23    1
    25    23    24    1
    26    24    25    1
    27    25    26    1
    28    26    27    1
    29    26    28    1
    30    22    29    1
    31    29    30    2
    32    29    31    1
    33    18    32    1
    34    14    33    1
    35     1    34    1
    36     1    35    1
    37     1    36    1
    38     5    37    1
    39     7    38    1
    40    11    39    1
    41    11    40    1
    42    11    41    1
    43    12    42    1
    44    12    43    1
    45    13    44    1
    46    13    45    1
    47    16    46    1
    48    16    47    1
    49    17    48    1
    50    17    49    1
    51    18    50    1
    52    19    51    1
    53    19    52    1
    54    20    53    1
    55    20    54    1
    56    21    55    1
    57    21    56    1
    58    22    57    1
    59    23    58    1
    60    23    59    1
    61    24    60    1
    62    24    61    1
    63    25    62    1
    64    25    63    1
    65    26    64    1
    66    27    65    1
    67    27    66    1
    68    27    67    1
    69    28    68    1
    70    28    69    1
    71    28    70    1
    72    31    71    1
    73    32    72    1
    74    32    73    1
    75    32    74    1
    76    33    75    1
    77    33    76    1
    78    33    77    1
