REMARK  Name = NuBBE_183
REMARK  18 active torsions:
REMARK  status: ('A' for Active; 'I' for Inactive)
REMARK    1  A    between atoms: C_1  and  C_2
REMARK    2  A    between atoms: C_2  and  C_3
REMARK    3  A    between atoms: C_3  and  C_4
REMARK    4  A    between atoms: C_4  and  C_5
REMARK    5  A    between atoms: C_6  and  C_7
REMARK    6  A    between atoms: C_6  and  C_20
REMARK    7  A    between atoms: C_7  and  C_8
REMARK    8  A    between atoms: C_8  and  C_9
REMARK    9  A    between atoms: C_10  and  C_11
REMARK   10  A    between atoms: C_10  and  C_14
REMARK   11  A    between atoms: C_11  and  O_12
REMARK   12  A    between atoms: C_14  and  C_15
REMARK   13  A    between atoms: C_15  and  C_16
REMARK   14  A    between atoms: C_17  and  C_18
REMARK   15  A    between atoms: C_17  and  C_19
REMARK   16  A    between atoms: C_21  and  C_22
REMARK   17  A    between atoms: C_22  and  C_23
REMARK   18  A    between atoms: C_27  and  C_28
REMARK                            x       y       z     vdW  Elec       q    Type
REMARK                         _______ _______ _______ _____ _____    ______ ____
ROOT
ATOM      1  C   LIG A   1       1.793  -3.134   0.151  0.00  0.00    -0.027 C 
ATOM      2  C   LIG A   1       2.947  -3.694  -0.244  0.00  0.00    -0.076 C 
ATOM      3  C   LIG A   1       2.967  -5.128  -0.698  0.00  0.00    +0.038 C 
ENDROOT
BRANCH   1   4
ATOM      4  C   LIG A   1       0.411  -3.712   0.209  0.00  0.00    +0.031 C 
BRANCH   4   5
ATOM      5  C   LIG A   1      -0.476  -3.018   1.277  0.00  0.00    +0.034 C 
BRANCH   5   7
ATOM      6  C   LIG A   1      -0.853  -1.199  -0.364  0.00  0.00    +0.038 C 
ATOM      7  C   LIG A   1      -0.755  -1.542   1.077  0.00  0.00    -0.076 C 
ATOM      8  C   LIG A   1      -0.855  -0.678   2.117  0.00  0.00    -0.023 C 
BRANCH   8   9
ATOM      9  C   LIG A   1      -0.932   0.840   2.136  0.00  0.00    +0.066 C 
BRANCH   9  10
ATOM     10  C   LIG A   1      -2.182   1.490   2.586  0.00  0.00    +0.007 C 
ATOM     11  C   LIG A   1      -2.946   0.986   3.555  0.00  0.00    +0.058 C 
ATOM     12  C   LIG A   1      -4.154   1.685   3.990  0.00  0.00    +0.180 C 
ATOM     13  C   LIG A   1      -4.604   2.825   3.167  0.00  0.00    +0.058 C 
ATOM     14  C   LIG A   1      -3.842   3.359   2.202  0.00  0.00    +0.000 C 
ATOM     15  C   LIG A   1      -4.278   4.463   1.291  0.00  0.00    +0.048 C 
ATOM     16  C   LIG A   1      -2.485   2.817   1.972  0.00  0.00    +0.185 C 
ATOM     17  O   LIG A   1      -1.671   3.439   1.294  0.00  0.00    -0.287 OA
ATOM     18  O   LIG A   1      -4.782   1.299   4.963  0.00  0.00    -0.288 OA
ENDBRANCH   9  10
ENDBRANCH   8   9
ENDBRANCH   5   7
ENDBRANCH   4   5
ENDBRANCH   1   4
BRANCH   2  19
ATOM     19  C   LIG A   1       4.268  -2.916  -0.281  0.00  0.00    +0.034 C 
BRANCH  19  20
ATOM     20  C   LIG A   1       4.294  -1.418   0.148  0.00  0.00    +0.032 C 
BRANCH  20  21
ATOM     21  C   LIG A   1       3.466  -0.454  -0.688  0.00  0.00    -0.016 C 
ATOM     22  C   LIG A   1       2.463   0.404  -0.248  0.00  0.00    +0.033 C 
BRANCH  22  23
ATOM     23  C   LIG A   1       2.174   0.719   1.213  0.00  0.00    +0.333 C 
ATOM     24  O   LIG A   1       1.986   1.754   1.728  0.00  0.00    -0.245 OA
BRANCH  23  25
ATOM     25  O   LIG A   1       2.284  -0.531   1.910  0.00  0.00    -0.477 OA
ATOM     26  H   LIG A   1       1.951  -0.404   2.829  0.00  0.00    +0.295 HD
ENDBRANCH  23  25
ENDBRANCH  22  23
BRANCH  22  27
ATOM     27  C   LIG A   1       1.755   1.409  -1.199  0.00  0.00    +0.046 C 
BRANCH  27  28
ATOM     28  C   LIG A   1       0.258   1.218  -1.458  0.00  0.00    +0.032 C 
BRANCH  28  29
ATOM     29  C   LIG A   1      -0.470   2.146  -2.358  0.00  0.00    -0.028 C 
ATOM     30  C   LIG A   1      -0.707   1.895  -3.656  0.00  0.00    -0.080 C 
ATOM     31  C   LIG A   1      -0.266   0.658  -4.402  0.00  0.00    +0.038 C 
ATOM     32  C   LIG A   1      -1.396   2.941  -4.470  0.00  0.00    +0.038 C 
ENDBRANCH  28  29
ENDBRANCH  27  28
ENDBRANCH  22  27
ENDBRANCH  20  21
ENDBRANCH  19  20
ENDBRANCH   2  19
TORSDOF 13
