REMARK  Name = NuBBE_1264
REMARK  9 active torsions:
REMARK  status: ('A' for Active; 'I' for Inactive)
REMARK    1  A    between atoms: C_1  and  C_2
REMARK    2  A    between atoms: C_2  and  C_3
REMARK    3  A    between atoms: C_7  and  O_8
REMARK    4  A    between atoms: C_12  and  C_14
REMARK    5  A    between atoms: C_17  and  O_18
REMARK    6  A    between atoms: C_24  and  C_25
REMARK    7  A    between atoms: C_25  and  C_26
REMARK    8  A    between atoms: C_27  and  C_28
REMARK    9  A    between atoms: C_27  and  C_29
REMARK                            x       y       z     vdW  Elec       q    Type
REMARK                         _______ _______ _______ _____ _____    ______ ____
ROOT
ATOM      1  C   LIG A   1      -4.230   2.776   2.679  0.00  0.00    +0.060 C 
ATOM      2  C   LIG A   1      -2.706   2.944   2.651  0.00  0.00    +0.123 C 
ATOM      3  C   LIG A   1      -2.162   2.954   4.084  0.00  0.00    +0.060 C 
ATOM      4  C   LIG A   1      -2.365   4.247   1.976  0.00  0.00    +0.020 C 
ATOM      5  C   LIG A   1      -1.662   4.319   0.844  0.00  0.00    +0.015 C 
ATOM      6  C   LIG A   1      -1.183   3.083   0.237  0.00  0.00    +0.059 A 
ATOM      7  C   LIG A   1      -0.433   3.095  -0.948  0.00  0.00    +0.141 A 
ATOM      8  C   LIG A   1       0.075   1.900  -1.473  0.00  0.00    +0.102 A 
ATOM      9  C   LIG A   1       0.944   1.907  -2.665  0.00  0.00    +0.174 C 
ATOM     10  C   LIG A   1       1.691   0.645  -2.962  0.00  0.00    +0.129 C 
ATOM     11  C   LIG A   1       0.788  -0.533  -2.633  0.00  0.00    +0.211 C 
ATOM     12  O   LIG A   1       0.349  -0.508  -1.270  0.00  0.00    -0.483 OA
ATOM     13  O   LIG A   1       1.097   2.939  -3.313  0.00  0.00    -0.292 OA
ATOM     14  C   LIG A   1      -0.182   0.681  -0.840  0.00  0.00    +0.142 A 
ATOM     15  C   LIG A   1      -0.973   0.644   0.323  0.00  0.00    +0.041 A 
ATOM     16  C   LIG A   1      -1.454   1.858   0.864  0.00  0.00    +0.139 A 
ATOM     17  O   LIG A   1      -2.175   1.760   2.025  0.00  0.00    -0.481 OA
ENDROOT
BRANCH  11  18
ATOM     18  C   LIG A   1       1.524  -1.846  -2.842  0.00  0.00    -0.007 A 
ATOM     19  C   LIG A   1       2.685  -2.147  -2.107  0.00  0.00    +0.011 A 
ATOM     20  C   LIG A   1       3.385  -3.336  -2.324  0.00  0.00    +0.046 A 
ATOM     21  C   LIG A   1       2.916  -4.238  -3.271  0.00  0.00    +0.117 A 
ATOM     22  C   LIG A   1       1.760  -3.973  -3.994  0.00  0.00    +0.046 A 
ATOM     23  C   LIG A   1       1.064  -2.780  -3.782  0.00  0.00    +0.011 A 
BRANCH  21  24
ATOM     24  O   LIG A   1       3.570  -5.408  -3.520  0.00  0.00    -0.507 OA
ATOM     25  H   LIG A   1       4.360  -5.448  -2.956  0.00  0.00    +0.292 HD
ENDBRANCH  21  24
ENDBRANCH  11  18
BRANCH   7  26
ATOM     26  O   LIG A   1      -0.192   4.308  -1.553  0.00  0.00    -0.505 OA
ATOM     27  H   LIG A   1       0.322   4.152  -2.378  0.00  0.00    +0.292 HD
ENDBRANCH   7  26
BRANCH  15  28
ATOM     28  C   LIG A   1      -1.288  -0.679   0.997  0.00  0.00    +0.069 C 
BRANCH  28  29
ATOM     29  C   LIG A   1      -0.265  -1.062   2.032  0.00  0.00    -0.023 C 
ATOM     30  C   LIG A   1       0.514  -2.161   2.071  0.00  0.00    -0.079 C 
ATOM     31  C   LIG A   1       0.531  -3.256   1.039  0.00  0.00    +0.038 C 
ATOM     32  C   LIG A   1       1.471  -2.379   3.213  0.00  0.00    +0.038 C 
ENDBRANCH  28  29
ENDBRANCH  15  28
TORSDOF 5
