REMARK  Name = NuBBE_1578
REMARK  10 active torsions:
REMARK  status: ('A' for Active; 'I' for Inactive)
REMARK    1  A    between atoms: C_1  and  C_2
REMARK    2  A    between atoms: C_7  and  O_23
REMARK    3  A    between atoms: C_9  and  O_19
REMARK    4  A    between atoms: C_13  and  C_14
REMARK    5  A    between atoms: C_13  and  C_15
REMARK    6  A    between atoms: O_19  and  C_20
REMARK    7  A    between atoms: C_20  and  C_22
REMARK    8  A    between atoms: O_23  and  C_24
REMARK    9  A    between atoms: C_24  and  C_26
REMARK   10  A    between atoms: C_27  and  C_29
REMARK                            x       y       z     vdW  Elec       q    Type
REMARK                         _______ _______ _______ _____ _____    ______ ____
ROOT
ATOM      1  C   LIG A   1      -2.498   0.109   1.381  0.00  0.00    +0.012 C 
ATOM      2  C   LIG A   1      -1.035   0.650   1.333  0.00  0.00    -0.022 C 
ATOM      3  C   LIG A   1      -0.678   1.147  -0.119  0.00  0.00    +0.010 C 
ATOM      4  C   LIG A   1      -0.891   0.015  -1.193  0.00  0.00    +0.045 C 
ATOM      5  C   LIG A   1      -0.099  -1.266  -0.816  0.00  0.00    +0.221 C 
ATOM      6  C   LIG A   1       0.109  -1.619   0.693  0.00  0.00    +0.221 C 
ATOM      7  C   LIG A   1      -0.050  -0.503   1.774  0.00  0.00    +0.045 C 
ATOM      8  C   LIG A   1       1.337  -0.061   2.449  0.00  0.00    -0.028 C 
ATOM      9  C   LIG A   1       1.907  -1.241   3.285  0.00  0.00    +0.011 C 
ATOM     10  C   LIG A   1       2.472   0.325   1.492  0.00  0.00    +0.011 C 
ATOM     11  C   LIG A   1       1.138   1.138   3.404  0.00  0.00    +0.007 C 
ATOM     12  C   LIG A   1       0.375   2.279   2.750  0.00  0.00    +0.001 C 
ATOM     13  C   LIG A   1      -1.015   1.799   2.380  0.00  0.00    +0.007 C 
ATOM     14  C   LIG A   1      -0.717   0.399  -2.722  0.00  0.00    +0.026 C 
ATOM     15  C   LIG A   1      -1.772  -0.292  -3.604  0.00  0.00    +0.013 C 
ATOM     16  C   LIG A   1      -0.752   1.872  -2.937  0.00  0.00    -0.003 A 
ATOM     17  C   LIG A   1      -1.052   2.764  -1.941  0.00  0.00    +0.109 A 
ATOM     18  C   LIG A   1      -1.367   2.478  -0.529  0.00  0.00    +0.079 C 
ATOM     19  O   LIG A   1      -0.984   4.042  -2.380  0.00  0.00    -0.468 OA
ATOM     20  C   LIG A   1      -0.621   3.969  -3.690  0.00  0.00    +0.195 A 
ATOM     21  C   LIG A   1      -0.466   2.656  -4.081  0.00  0.00    +0.045 A 
ENDROOT
BRANCH   6  22
ATOM     22  O   LIG A   1      -0.874  -2.660   0.978  0.00  0.00    -0.458 OA
BRANCH  22  23
ATOM     23  C   LIG A   1      -0.484  -3.921   0.626  0.00  0.00    +0.304 C 
ATOM     24  O   LIG A   1       0.660  -4.350   0.662  0.00  0.00    -0.251 OA
ATOM     25  C   LIG A   1      -1.648  -4.671   0.054  0.00  0.00    +0.136 C 
ENDBRANCH  22  23
ENDBRANCH   6  22
BRANCH   5  26
ATOM     26  O   LIG A   1       1.143  -1.536  -1.518  0.00  0.00    -0.458 OA
BRANCH  26  27
ATOM     27  C   LIG A   1       2.124  -0.603  -1.608  0.00  0.00    +0.304 C 
ATOM     28  O   LIG A   1       2.027   0.570  -1.346  0.00  0.00    -0.251 OA
ATOM     29  C   LIG A   1       3.406  -1.239  -2.041  0.00  0.00    +0.136 C 
ENDBRANCH  26  27
ENDBRANCH   5  26
TORSDOF 4
