REMARK  Name = NuBBE_553
REMARK  3 active torsions:
REMARK  status: ('A' for Active; 'I' for Inactive)
REMARK    1  A    between atoms: C_1  and  C_2
REMARK    2  A    between atoms: C_6  and  C_7
REMARK    3  A    between atoms: C_13  and  C_14
REMARK                            x       y       z     vdW  Elec       q    Type
REMARK                         _______ _______ _______ _____ _____    ______ ____
ROOT
ATOM      1  C   LIG A   1       2.123   1.747  -1.023  0.00  0.00    +0.021 C 
ATOM      2  C   LIG A   1       1.327   0.508  -0.446  0.00  0.00    +0.021 C 
ATOM      3  C   LIG A   1      -0.227   0.351  -0.638  0.00  0.00    +0.009 C 
ATOM      4  C   LIG A   1      -0.919  -0.617   0.314  0.00  0.00    +0.194 C 
ATOM      5  C   LIG A   1      -0.551  -0.419   1.679  0.00  0.00    +0.066 A 
ATOM      6  C   LIG A   1      -1.121  -0.813   2.922  0.00  0.00    -0.002 A 
ATOM      7  C   LIG A   1      -2.273  -1.716   3.159  0.00  0.00    +0.048 C 
ATOM      8  C   LIG A   1      -0.373  -0.153   3.881  0.00  0.00    +0.199 A 
ATOM      9  O   LIG A   1       0.716   0.443   3.320  0.00  0.00    -0.467 OA
ATOM     10  C   LIG A   1       0.627   0.202   1.990  0.00  0.00    +0.117 A 
ATOM     11  C   LIG A   1       1.694   0.650   1.082  0.00  0.00    +0.090 C 
ATOM     12  O   LIG A   1      -1.645  -1.551  -0.047  0.00  0.00    -0.287 OA
ATOM     13  C   LIG A   1      -0.776   0.463  -1.877  0.00  0.00    -0.061 C 
ATOM     14  C   LIG A   1      -2.201   0.174  -2.273  0.00  0.00    +0.040 C 
ATOM     15  C   LIG A   1       0.230   0.460  -3.012  0.00  0.00    +0.057 C 
ATOM     16  C   LIG A   1       1.328  -0.564  -2.656  0.00  0.00    -0.026 C 
ATOM     17  C   LIG A   1       1.837  -0.598  -1.391  0.00  0.00    -0.019 C 
ENDROOT
TORSDOF 0
