REMARK  Name = NuBBE_1690
REMARK  15 active torsions:
REMARK  status: ('A' for Active; 'I' for Inactive)
REMARK    1  A    between atoms: C_2  and  C_3
REMARK    2  A    between atoms: C_3  and  C_4
REMARK    3  A    between atoms: C_5  and  C_6
REMARK    4  A    between atoms: C_6  and  C_7
REMARK    5  A    between atoms: C_8  and  C_9
REMARK    6  A    between atoms: C_9  and  C_10
REMARK    7  A    between atoms: C_10  and  C_11
REMARK    8  A    between atoms: C_11  and  C_12
REMARK    9  A    between atoms: C_12  and  C_13
REMARK   10  A    between atoms: C_13  and  C_14
REMARK   11  A    between atoms: C_14  and  C_15
REMARK   12  A    between atoms: C_15  and  C_16
REMARK   13  A    between atoms: C_17  and  C_18
REMARK   14  A    between atoms: C_18  and  O_19
REMARK   15  A    between atoms: C_21  and  O_22
REMARK                            x       y       z     vdW  Elec       q    Type
REMARK                         _______ _______ _______ _____ _____    ______ ____
ROOT
ATOM      1  C   LIG A   1      -0.190   3.937   1.234  0.00  0.00    +0.005 C 
ENDROOT
BRANCH   1   2
ATOM      2  C   LIG A   1      -0.918   2.587   1.183  0.00  0.00    +0.000 C 
BRANCH   2   3
ATOM      3  C   LIG A   1      -0.180   1.328   0.765  0.00  0.00    +0.000 C 
BRANCH   3   4
ATOM      4  C   LIG A   1       0.127   1.155  -0.709  0.00  0.00    +0.000 C 
BRANCH   4   5
ATOM      5  C   LIG A   1       1.049  -0.019  -1.030  0.00  0.00    +0.004 C 
BRANCH   5   6
ATOM      6  C   LIG A   1       0.418  -1.390  -0.864  0.00  0.00    +0.027 C 
BRANCH   6   8
ATOM      7  C   LIG A   1      -0.643  -2.855   0.917  0.00  0.00    -0.027 C 
ATOM      8  C   LIG A   1       0.016  -1.754   0.533  0.00  0.00    -0.031 C 
BRANCH   7   9
ATOM      9  C   LIG A   1      -0.990  -4.063   0.109  0.00  0.00    +0.054 C 
BRANCH   9  11
ATOM     10  C   LIG A   1      -3.321  -3.924  -0.917  0.00  0.00    -0.027 C 
ATOM     11  C   LIG A   1      -1.981  -3.834  -0.991  0.00  0.00    -0.027 C 
BRANCH  10  12
ATOM     12  C   LIG A   1      -4.156  -4.165   0.311  0.00  0.00    +0.053 C 
BRANCH  12  14
ATOM     13  C   LIG A   1      -3.502  -5.666   2.214  0.00  0.00    +0.004 C 
ATOM     14  C   LIG A   1      -3.920  -5.503   0.951  0.00  0.00    -0.031 C 
ENDBRANCH  12  14
ENDBRANCH  10  12
ENDBRANCH   9  11
ENDBRANCH   7   9
ENDBRANCH   6   8
ENDBRANCH   5   6
ENDBRANCH   4   5
ENDBRANCH   3   4
ENDBRANCH   2   3
ENDBRANCH   1   2
BRANCH   1  15
ATOM     15  C   LIG A   1       0.518   4.514  -0.006  0.00  0.00    +0.036 C 
BRANCH  15  16
ATOM     16  C   LIG A   1       1.699   3.839  -0.712  0.00  0.00    -0.030 A 
ATOM     17  C   LIG A   1       2.681   2.979  -0.129  0.00  0.00    +0.103 A 
ATOM     18  C   LIG A   1       3.452   2.159  -1.007  0.00  0.00    +0.131 A 
ATOM     19  C   LIG A   1       3.361   2.244  -2.396  0.00  0.00    +0.046 A 
ATOM     20  C   LIG A   1       2.505   3.171  -2.965  0.00  0.00    +0.004 A 
ATOM     21  C   LIG A   1       1.687   3.954  -2.140  0.00  0.00    +0.005 A 
BRANCH  17  22
ATOM     22  C   LIG A   1       2.863   2.754   1.346  0.00  0.00    +0.341 C 
ATOM     23  O   LIG A   1       2.102   2.896   2.323  0.00  0.00    -0.245 OA
BRANCH  22  24
ATOM     24  O   LIG A   1       4.070   2.289   1.633  0.00  0.00    -0.477 OA
ATOM     25  H   LIG A   1       4.026   2.315   2.618  0.00  0.00    +0.295 HD
ENDBRANCH  22  24
ENDBRANCH  17  22
BRANCH  18  26
ATOM     26  O   LIG A   1       4.247   1.121  -0.574  0.00  0.00    -0.506 OA
ATOM     27  H   LIG A   1       4.314   1.186   0.400  0.00  0.00    +0.292 HD
ENDBRANCH  18  26
ENDBRANCH  15  16
ENDBRANCH   1  15
TORSDOF 15
