REMARK  Name = NuBBE_2335
REMARK  4 active torsions:
REMARK  status: ('A' for Active; 'I' for Inactive)
REMARK    1  A    between atoms: C_1  and  C_2
REMARK    2  A    between atoms: C_10  and  C_12
REMARK    3  A    between atoms: C_12  and  C_13
REMARK    4  A    between atoms: C_12  and  C_14
REMARK                            x       y       z     vdW  Elec       q    Type
REMARK                         _______ _______ _______ _____ _____    ______ ____
ROOT
ATOM      1  C   LIG A   1      -3.175  -0.794   0.846  0.00  0.00    +0.008 C 
ATOM      2  C   LIG A   1      -1.653  -0.967   0.845  0.00  0.00    -0.007 C 
ATOM      3  C   LIG A   1      -0.995  -0.377  -0.435  0.00  0.00    +0.018 C 
ATOM      4  C   LIG A   1      -1.475  -1.155  -1.683  0.00  0.00    +0.013 C 
ATOM      5  C   LIG A   1      -0.585  -0.910  -2.895  0.00  0.00    +0.035 C 
ATOM      6  C   LIG A   1      -1.072  -0.358   2.132  0.00  0.00    +0.004 C 
ATOM      7  C   LIG A   1       0.449  -0.470   2.157  0.00  0.00    +0.008 C 
ATOM      8  C   LIG A   1       1.107   0.237   0.961  0.00  0.00    +0.018 C 
ATOM      9  C   LIG A   1       0.528  -0.352  -0.321  0.00  0.00    -0.063 C 
ATOM     10  C   LIG A   1       1.338  -0.812  -1.293  0.00  0.00    +0.003 C 
ATOM     11  C   LIG A   1       0.846  -1.259  -2.579  0.00  0.00    -0.054 C 
ATOM     12  C   LIG A   1       1.635  -1.916  -3.442  0.00  0.00    +0.012 C 
ENDROOT
BRANCH   8  13
ATOM     13  C   LIG A   1       0.985   1.795   0.996  0.00  0.00    -0.010 C 
ATOM     14  C   LIG A   1       1.710   2.449  -0.190  0.00  0.00    +0.008 C 
ATOM     15  C   LIG A   1       1.542   2.391   2.295  0.00  0.00    +0.008 C 
ENDBRANCH   8  13
TORSDOF 1
