@<TRIPOS>MOLECULE
NuBBE_2023
 34 36 0 0 0
SMALL
GASTEIGER

@<TRIPOS>ATOM
      1 O          -1.2719   -1.4009   -0.2697 O.2     1  LIG1       -0.2863
      2 C          -0.0447   -1.3240   -0.2057 C.ar    1  LIG1        0.2037
      3 C           0.7437   -2.5668   -0.1761 C.ar    1  LIG1        0.1060
      4 C           0.1351   -3.8286   -0.2028 C.ar    1  LIG1        0.1347
      5 O          -1.2226   -4.0021   -0.2517 O.3     1  LIG1       -0.5058
      6 C           0.9084   -4.9878   -0.1782 C.ar    1  LIG1        0.0223
      7 C           2.2945   -4.8768   -0.1286 C.ar    1  LIG1        0.1239
      8 O           3.0940   -5.9808   -0.1052 O.3     1  LIG1       -0.5065
      9 C           2.9125   -3.6304   -0.0994 C.ar    1  LIG1        0.0231
     10 C           2.1313   -2.4746   -0.1202 C.ar    1  LIG1        0.1454
     11 O           2.7912   -1.2753   -0.0785 O.2     1  LIG1       -0.4618
     12 C           2.0375   -0.1269   -0.0867 C.ar    1  LIG1        0.1038
     13 C           0.6982   -0.0288   -0.1561 C.ar    1  LIG1        0.0645
     14 C           0.0245    1.2948   -0.1619 C.ar    1  LIG1       -0.0076
     15 C          -1.2307    1.4759    0.4410 C.ar    1  LIG1       -0.0086
     16 C          -1.8796    2.7198    0.4192 C.ar    1  LIG1        0.1590
     17 O          -3.1233    2.8147    0.9810 O.3     1  LIG1       -0.5033
     18 C          -1.2762    3.8231   -0.1865 C.ar    1  LIG1        0.1613
     19 O          -1.7796    5.0892   -0.3084 O.3     1  LIG1       -0.4915
     20 C          -2.6695    5.5198    0.7135 C.3     1  LIG1        0.0790
     21 C          -0.0344    3.6497   -0.8001 C.ar    1  LIG1       -0.0157
     22 C           0.6077    2.4063   -0.7906 C.ar    1  LIG1       -0.0501
     23 H          -1.6412   -3.1117   -0.2842 H       1  LIG1        0.2922
     24 H           0.4164   -5.9552   -0.1993 H       1  LIG1        0.0691
     25 H           2.5340   -6.7754   -0.1316 H       1  LIG1        0.2921
     26 H           3.9961   -3.5627   -0.0593 H       1  LIG1        0.0691
     27 H           2.7093    0.7212   -0.0221 H       1  LIG1        0.1037
     28 H          -1.7174    0.6378    0.9331 H       1  LIG1        0.0661
     29 H          -3.4428    1.9216    1.1925 H       1  LIG1        0.2923
     30 H          -2.7457    6.6097    0.6433 H       1  LIG1        0.0660
     31 H          -2.2876    5.2814    1.7121 H       1  LIG1        0.0660
     32 H          -3.6746    5.1186    0.5568 H       1  LIG1        0.0660
     33 H           0.4404    4.4956   -1.2926 H       1  LIG1        0.0655
     34 H           1.5671    2.3296   -1.2970 H       1  LIG1        0.0625
@<TRIPOS>BOND
     1     1     2    2
     2     2     3   ar
     3     3     4   ar
     4     4     5    1
     5     4     6   ar
     6     6     7   ar
     7     7     8    1
     8     7     9   ar
     9     9    10   ar
    10     3    10   ar
    11    10    11   ar
    12    11    12   ar
    13    12    13   ar
    14     2    13   ar
    15    13    14    1
    16    14    15   ar
    17    15    16   ar
    18    16    17    1
    19    16    18   ar
    20    18    19    1
    21    19    20    1
    22    18    21   ar
    23    21    22   ar
    24    14    22   ar
    25     5    23    1
    26     6    24    1
    27     8    25    1
    28     9    26    1
    29    12    27    1
    30    15    28    1
    31    17    29    1
    32    20    30    1
    33    20    31    1
    34    20    32    1
    35    21    33    1
    36    22    34    1
