REMARK  Name = NuBBE_630
REMARK  10 active torsions:
REMARK  status: ('A' for Active; 'I' for Inactive)
REMARK    1  A    between atoms: C_2  and  O_3
REMARK    2  A    between atoms: C_2  and  C_9
REMARK    3  A    between atoms: O_3  and  C_4
REMARK    4  A    between atoms: C_4  and  C_5
REMARK    5  A    between atoms: C_5  and  C_6
REMARK    6  A    between atoms: C_6  and  C_7
REMARK    7  A    between atoms: C_7  and  C_8
REMARK    8  A    between atoms: C_11  and  O_12
REMARK    9  A    between atoms: C_13  and  O_14
REMARK   10  A    between atoms: C_15  and  O_16
REMARK                            x       y       z     vdW  Elec       q    Type
REMARK                         _______ _______ _______ _____ _____    ______ ____
ROOT
ATOM      1  C   LIG A   1      -0.887  -0.070   1.660  0.00  0.00    +0.066 A 
ATOM      2  C   LIG A   1      -1.931  -0.588   2.447  0.00  0.00    +0.064 A 
ATOM      3  C   LIG A   1      -1.629  -1.260   3.623  0.00  0.00    +0.163 A 
ATOM      4  C   LIG A   1      -0.304  -1.434   4.005  0.00  0.00    +0.201 A 
ATOM      5  C   LIG A   1       0.727  -0.945   3.214  0.00  0.00    +0.163 A 
ATOM      6  C   LIG A   1       0.451  -0.263   2.036  0.00  0.00    +0.064 A 
ENDROOT
BRANCH   1   8
ATOM      7  O   LIG A   1      -2.399   0.690  -0.009  0.00  0.00    -0.245 OA
ATOM      8  C   LIG A   1      -1.273   0.699   0.451  0.00  0.00    +0.339 C 
BRANCH   8   9
ATOM      9  O   LIG A   1      -0.222   1.427   0.004  0.00  0.00    -0.461 OA
BRANCH   9  10
ATOM     10  C   LIG A   1      -0.485   2.279  -1.121  0.00  0.00    +0.232 C 
BRANCH  10  11
ATOM     11  C   LIG A   1      -0.450   1.496  -2.434  0.00  0.00    +0.041 C 
BRANCH  11  12
ATOM     12  C   LIG A   1       0.916   0.849  -2.674  0.00  0.00    +0.003 C 
BRANCH  12  13
ATOM     13  C   LIG A   1       0.964   0.054  -3.978  0.00  0.00    -0.003 C 
ATOM     14  C   LIG A   1       2.342  -0.559  -4.184  0.00  0.00    +0.004 C 
ENDBRANCH  12  13
ENDBRANCH  11  12
ENDBRANCH  10  11
ENDBRANCH   9  10
ENDBRANCH   8   9
ENDBRANCH   1   8
BRANCH   3  15
ATOM     15  O   LIG A   1      -2.606  -1.754   4.440  0.00  0.00    -0.503 OA
ATOM     16  H   LIG A   1      -3.471  -1.534   4.049  0.00  0.00    +0.292 HD
ENDBRANCH   3  15
BRANCH   4  17
ATOM     17  O   LIG A   1      -0.001  -2.086   5.169  0.00  0.00    -0.501 OA
ATOM     18  H   LIG A   1      -0.874  -2.331   5.540  0.00  0.00    +0.292 HD
ENDBRANCH   4  17
BRANCH   5  19
ATOM     19  O   LIG A   1       2.026  -1.120   3.596  0.00  0.00    -0.503 OA
ATOM     20  H   LIG A   1       1.972  -1.601   4.447  0.00  0.00    +0.292 HD
ENDBRANCH   5  19
TORSDOF 9
