@<TRIPOS>MOLECULE
NuBBE_1671
 62 65 0 0 0
SMALL
GASTEIGER

@<TRIPOS>ATOM
      1 C          -3.0999    5.2230    2.2066 C.3     1  LIG1        0.0790
      2 O          -2.3621    5.3622    1.0209 O.3     1  LIG1       -0.4913
      3 C          -1.3320    4.4480    0.8573 C.ar    1  LIG1        0.1655
      4 C          -0.5789    4.5105   -0.3639 C.ar    1  LIG1        0.2035
      5 O          -0.7821    5.5317   -1.2571 O.3     1  LIG1       -0.4885
      6 C           0.3167    5.8959   -2.0917 C.3     1  LIG1        0.0791
      7 C           0.3943    3.5184   -0.5891 C.ar    1  LIG1        0.1655
      8 O           1.0186    3.3778   -1.8216 O.3     1  LIG1       -0.4913
      9 C           2.4312    3.0786   -1.7829 C.3     1  LIG1        0.0790
     10 C           0.6476    2.5697    0.3982 C.ar    1  LIG1       -0.0104
     11 C          -0.0505    2.5078    1.5902 C.ar    1  LIG1       -0.0114
     12 C           0.1979    1.4485    2.6238 C.3     1  LIG1        0.0892
     13 C          -0.0276    0.0266    2.0929 C.3     1  LIG1        0.0205
     14 C           1.3187   -0.4178    1.5976 C.3     1  LIG1        0.0205
     15 C           1.2785   -1.9267    1.7285 C.3     1  LIG1        0.0892
     16 C           0.6840   -2.6292    0.5087 C.ar    1  LIG1       -0.0114
     17 C          -0.4335   -3.4707    0.6386 C.ar    1  LIG1       -0.0104
     18 C          -1.0259   -4.0785   -0.4762 C.ar    1  LIG1        0.1655
     19 O          -2.1716   -4.8483   -0.3699 O.3     1  LIG1       -0.4913
     20 C          -2.6832   -5.0774    0.9414 C.3     1  LIG1        0.0790
     21 C          -0.5084   -3.8875   -1.7833 C.ar    1  LIG1        0.2035
     22 O          -1.3161   -4.3022   -2.8115 O.3     1  LIG1       -0.4885
     23 C          -0.8221   -5.3458   -3.6549 C.3     1  LIG1        0.0791
     24 C           0.6297   -3.0543   -1.9294 C.ar    1  LIG1        0.1655
     25 O           1.2023   -2.5229   -3.0562 O.3     1  LIG1       -0.4913
     26 C           1.2965   -3.2240   -4.2804 C.3     1  LIG1        0.0790
     27 C           1.2074   -2.4737   -0.7777 C.ar    1  LIG1       -0.0104
     28 O           0.4750   -2.1571    2.9073 O.3     1  LIG1       -0.3712
     29 C          -0.2952   -0.9755    3.2039 C.3     1  LIG1        0.0544
     30 C           2.2536    0.2986    2.5705 C.3     1  LIG1        0.0544
     31 O           1.6004    1.5087    2.9796 O.3     1  LIG1       -0.3712
     32 C          -1.0624    3.4630    1.7918 C.ar    1  LIG1       -0.0104
     33 H          -3.9350    5.9294    2.2065 H       1  LIG1        0.0660
     34 H          -2.4804    5.4474    3.0909 H       1  LIG1        0.0660
     35 H          -3.5441    4.2167    2.3097 H       1  LIG1        0.0660
     36 H           0.1846    6.9051   -2.4715 H       1  LIG1        0.0660
     37 H           0.3725    5.2371   -2.9717 H       1  LIG1        0.0660
     38 H           1.2733    5.8823   -1.5389 H       1  LIG1        0.0660
     39 H           2.8350    3.2813   -2.7795 H       1  LIG1        0.0660
     40 H           2.6094    2.0227   -1.5684 H       1  LIG1        0.0660
     41 H           2.9482    3.7221   -1.0686 H       1  LIG1        0.0660
     42 H           1.4315    1.8540    0.2259 H       1  LIG1        0.0659
     43 H          -0.3800    1.6386    3.5074 H       1  LIG1        0.0650
     44 H          -0.8163   -0.0342    1.3354 H       1  LIG1        0.0356
     45 H           1.5352   -0.1015    0.5766 H       1  LIG1        0.0356
     46 H           2.2751   -2.3454    1.9060 H       1  LIG1        0.0650
     47 H          -0.8488   -3.5938    1.6304 H       1  LIG1        0.0659
     48 H          -2.9335   -4.1406    1.4544 H       1  LIG1        0.0660
     49 H          -1.9801   -5.6734    1.5351 H       1  LIG1        0.0660
     50 H          -3.6116   -5.6484    0.8502 H       1  LIG1        0.0660
     51 H           0.2538   -5.5230   -3.5637 H       1  LIG1        0.0660
     52 H          -1.0554   -5.0426   -4.6858 H       1  LIG1        0.0660
     53 H          -1.3588   -6.2891   -3.4929 H       1  LIG1        0.0660
     54 H           2.0673   -4.0008   -4.2287 H       1  LIG1        0.0660
     55 H           1.6005   -2.5052   -5.0559 H       1  LIG1        0.0660
     56 H           0.3441   -3.6032   -4.6277 H       1  LIG1        0.0660
     57 H           2.0784   -1.8296   -0.9278 H       1  LIG1        0.0659
     58 H           0.0119   -0.6173    4.1913 H       1  LIG1        0.0564
     59 H          -1.3553   -1.2428    3.2634 H       1  LIG1        0.0564
     60 H           3.2077    0.5618    2.1081 H       1  LIG1        0.0564
     61 H           2.4605   -0.2819    3.4749 H       1  LIG1        0.0564
     62 H          -1.5905    3.3967    2.7032 H       1  LIG1        0.0659
@<TRIPOS>BOND
     1     1     2    1
     2     2     3    1
     3     3     4   ar
     4     4     5    1
     5     5     6    1
     6     4     7   ar
     7     7     8    1
     8     8     9    1
     9     7    10   ar
    10    10    11   ar
    11    11    12    1
    12    12    13    1
    13    13    14    1
    14    14    15    1
    15    15    16    1
    16    16    17   ar
    17    17    18   ar
    18    18    19    1
    19    19    20    1
    20    18    21   ar
    21    21    22    1
    22    22    23    1
    23    21    24   ar
    24    24    25    1
    25    25    26    1
    26    24    27   ar
    27    16    27   ar
    28    15    28    1
    29    28    29    1
    30    13    29    1
    31    14    30    1
    32    30    31    1
    33    12    31    1
    34    11    32   ar
    35     3    32   ar
    36     1    33    1
    37     1    34    1
    38     1    35    1
    39     6    36    1
    40     6    37    1
    41     6    38    1
    42     9    39    1
    43     9    40    1
    44     9    41    1
    45    10    42    1
    46    12    43    1
    47    13    44    1
    48    14    45    1
    49    15    46    1
    50    17    47    1
    51    20    48    1
    52    20    49    1
    53    20    50    1
    54    23    51    1
    55    23    52    1
    56    23    53    1
    57    26    54    1
    58    26    55    1
    59    26    56    1
    60    27    57    1
    61    29    58    1
    62    29    59    1
    63    30    60    1
    64    30    61    1
    65    32    62    1
