@<TRIPOS>MOLECULE
NuBBE_2062
 47 50 0 0 0
SMALL
GASTEIGER

@<TRIPOS>ATOM
      1 C          -2.1588   -3.5420   -2.5362 C.3     1  LIG1        0.0372
      2 O          -2.2063   -2.1389   -2.7904 O.3     1  LIG1       -0.3755
      3 C          -1.7124   -1.3034   -1.7320 C.3     1  LIG1        0.0828
      4 H          -1.9493   -0.2834   -2.0612 H       1  LIG1        0.0642
      5 C          -2.5217   -1.5253   -0.4796 C.2     1  LIG1       -0.0550
      6 C          -1.9893   -1.7554    0.7288 C.2     1  LIG1       -0.0542
      7 C          -0.5670   -1.7644    0.8924 C.2     1  LIG1        0.0087
      8 C           0.1046   -2.3623    1.8856 C.2     1  LIG1       -0.0304
      9 C           1.5639   -2.4132    1.5614 C.3     1  LIG1       -0.0119
     10 N           1.6654   -2.0478    0.0847 N.4     1  LIG1        0.2311
     11 O           1.6642   -3.2528   -0.6278 O.co2   1  LIG1       -0.7737
     12 C           2.9205   -1.3382   -0.3063 C.3     1  LIG1       -0.0271
     13 C           3.1266   -0.0101    0.3803 C.3     1  LIG1        0.0132
     14 C           1.8973    0.8496    0.3636 C.ar    1  LIG1       -0.0295
     15 C           2.0577    2.2149    0.6662 C.ar    1  LIG1       -0.0125
     16 C           0.9736    3.0957    0.7155 C.ar    1  LIG1        0.1618
     17 O           1.3256    4.3744    1.0583 O.3     1  LIG1       -0.4914
     18 C           0.5229    5.4211    0.5263 C.3     1  LIG1        0.0790
     19 C          -0.3118    2.5974    0.4991 C.ar    1  LIG1        0.1620
     20 O          -1.3790    3.4499    0.6006 O.3     1  LIG1       -0.4914
     21 C          -2.6095    2.8743    1.0305 C.3     1  LIG1        0.0790
     22 C          -0.4679    1.2393    0.1764 C.ar    1  LIG1       -0.0069
     23 C           0.6151    0.3319    0.1192 C.ar    1  LIG1        0.0149
     24 C           0.3699   -1.1836   -0.1773 C.3     1  LIG1        0.0440
     25 C          -0.1732   -1.3785   -1.6133 C.3     1  LIG1        0.0317
     26 H          -2.4879   -4.0582   -3.4423 H       1  LIG1        0.0524
     27 H          -2.8458   -3.8172   -1.7305 H       1  LIG1        0.0524
     28 H          -1.1506   -3.8876   -2.2980 H       1  LIG1        0.0524
     29 H          -3.6024   -1.5236   -0.5969 H       1  LIG1        0.0598
     30 H          -2.6253   -1.9775    1.5805 H       1  LIG1        0.0620
     31 H          -0.3344   -2.8820    2.7233 H       1  LIG1        0.0630
     32 H           1.9904   -3.4132    1.6854 H       1  LIG1        0.0861
     33 H           2.1177   -1.6885    2.1600 H       1  LIG1        0.0861
     34 H           2.8502   -1.2092   -1.3940 H       1  LIG1        0.0817
     35 H           3.7479   -2.0249   -0.0927 H       1  LIG1        0.0817
     36 H           3.9493    0.5114   -0.1248 H       1  LIG1        0.0365
     37 H           3.4377   -0.1569    1.4206 H       1  LIG1        0.0365
     38 H           3.0522    2.6099    0.8724 H       1  LIG1        0.0658
     39 H           1.0962    6.3498    0.6123 H       1  LIG1        0.0660
     40 H          -0.3884    5.5558    1.1154 H       1  LIG1        0.0660
     41 H           0.3008    5.2670   -0.5351 H       1  LIG1        0.0660
     42 H          -3.2650    3.6891    1.3523 H       1  LIG1        0.0660
     43 H          -2.4687    2.2025    1.8847 H       1  LIG1        0.0660
     44 H          -3.1052    2.3584    0.2021 H       1  LIG1        0.0660
     45 H          -1.4682    0.8768   -0.0218 H       1  LIG1        0.0660
     46 H           0.1782   -2.3117   -2.0569 H       1  LIG1        0.0359
     47 H           0.2602   -0.6192   -2.2809 H       1  LIG1        0.0359
@<TRIPOS>BOND
     1     1     2    1
     2     3     5    1
     3     5     6    2
     4     6     7    1
     5     7     8    2
     6     8     9    1
     7     9    10    1
     8    10    12    1
     9    12    13    1
    10    13    14    1
    11    14    15   ar
    12    15    16   ar
    13    17    18    1
    14    16    19   ar
    15    20    21    1
    16    19    22   ar
    17    22    23   ar
    18    14    23   ar
    19    23    24    1
    20    10    24    1
    21     7    24    1
    22    24    25    1
    23     3    25    1
    24    10    11    1
    25    16    17    1
    26    19    20    1
    27     3     4    1
    28     3     2    1
    29     1    26    1
    30     1    27    1
    31     1    28    1
    32     5    29    1
    33     6    30    1
    34     8    31    1
    35     9    32    1
    36     9    33    1
    37    12    34    1
    38    12    35    1
    39    13    36    1
    40    13    37    1
    41    15    38    1
    42    18    39    1
    43    18    40    1
    44    18    41    1
    45    21    42    1
    46    21    43    1
    47    21    44    1
    48    22    45    1
    49    25    46    1
    50    25    47    1
