@<TRIPOS>MOLECULE
NuBBE_1206
 33 35 0 0 0
SMALL
GASTEIGER

@<TRIPOS>ATOM
      1 O          -5.2158   -2.5469    0.0075 O.3     1  LIG1       -0.5065
      2 C          -3.8550   -2.6290    0.0343 C.ar    1  LIG1        0.1239
      3 C          -3.0586   -1.4849    0.0348 C.ar    1  LIG1        0.0231
      4 C          -1.6677   -1.6225    0.0648 C.ar    1  LIG1        0.1462
      5 O          -0.9270   -0.4656    0.0631 O.2     1  LIG1       -0.4544
      6 C           0.4604   -0.5584    0.0950 C.ar    1  LIG1        0.1392
      7 C           1.1569    0.7504    0.0797 C.ar    1  LIG1        0.0176
      8 C           0.5662    1.8528   -0.5578 C.ar    1  LIG1       -0.0476
      9 C           1.1856    3.1102   -0.5659 C.ar    1  LIG1       -0.0193
     10 C           2.4121    3.2932    0.0676 C.ar    1  LIG1        0.1201
     11 C           3.0119    2.2065    0.7036 C.ar    1  LIG1       -0.0193
     12 C           2.3917    0.9505    0.7153 C.ar    1  LIG1       -0.0476
     13 O           3.1131    4.4649    0.1378 O.3     1  LIG1       -0.4951
     14 C           2.5114    5.6061   -0.4624 C.3     1  LIG1        0.0788
     15 C           1.1266   -1.7232    0.1189 C.ar    1  LIG1        0.0288
     16 C           0.3711   -2.9846    0.1265 C.ar    1  LIG1        0.1966
     17 O           0.9381   -4.0719    0.1569 O.2     1  LIG1       -0.2869
     18 C          -1.0914   -2.8893    0.0946 C.ar    1  LIG1        0.1055
     19 C          -1.9021   -4.0300    0.0924 C.ar    1  LIG1        0.1347
     20 O          -1.3987   -5.3023    0.1190 O.3     1  LIG1       -0.5058
     21 C          -3.2869   -3.8999    0.0622 C.ar    1  LIG1        0.0223
     22 H          -5.4820   -1.6120    0.0031 H       1  LIG1        0.2921
     23 H          -3.4992   -0.4941    0.0127 H       1  LIG1        0.0691
     24 H          -0.3912    1.7487   -1.0645 H       1  LIG1        0.0626
     25 H           0.6784    3.9224   -1.0755 H       1  LIG1        0.0654
     26 H           3.9684    2.3382    1.2049 H       1  LIG1        0.0654
     27 H           2.8898    0.1422    1.2453 H       1  LIG1        0.0626
     28 H           3.1882    6.4551   -0.3274 H       1  LIG1        0.0660
     29 H           1.5633    5.8541    0.0270 H       1  LIG1        0.0660
     30 H           2.3738    5.4592   -1.5388 H       1  LIG1        0.0660
     31 H           2.2045   -1.8117    0.1245 H       1  LIG1        0.0693
     32 H          -0.4165   -5.2450    0.1405 H       1  LIG1        0.2922
     33 H          -3.9194   -4.7831    0.0605 H       1  LIG1        0.0691
@<TRIPOS>BOND
     1     1     2    1
     2     2     3   ar
     3     3     4   ar
     4     4     5   ar
     5     5     6   ar
     6     6     7    1
     7     7     8   ar
     8     8     9   ar
     9     9    10   ar
    10    10    11   ar
    11    11    12   ar
    12     7    12   ar
    13    10    13    1
    14    13    14    1
    15     6    15   ar
    16    15    16   ar
    17    16    17    2
    18     4    18   ar
    19    16    18   ar
    20    18    19   ar
    21    19    20    1
    22    19    21   ar
    23     2    21   ar
    24     1    22    1
    25     3    23    1
    26     8    24    1
    27     9    25    1
    28    11    26    1
    29    12    27    1
    30    14    28    1
    31    14    29    1
    32    14    30    1
    33    15    31    1
    34    20    32    1
    35    21    33    1
