@<TRIPOS>MOLECULE
NuBBE_2320
 51 54 0 0 0
SMALL
GASTEIGER

@<TRIPOS>ATOM
      1 C           1.0439    1.7500    1.4045 C.2     1  LIG1        0.2032
      2 C           0.2911    0.6539    1.2240 C.2     1  LIG1        0.1504
      3 C           0.7831   -0.7609    1.0108 C.3     1  LIG1        0.0442
      4 C           2.2971   -0.8512    0.6914 C.3     1  LIG1       -0.0059
      5 C           2.9787    0.4700    0.3227 C.3     1  LIG1        0.1247
      6 C           2.5235    1.5247    1.3518 C.2     1  LIG1        0.2290
      7 O           3.2917    2.1764    2.0464 O.2     1  LIG1       -0.2859
      8 O           4.3756    0.1902    0.2590 O.3     1  LIG1       -0.3718
      9 C           5.1786    1.3068   -0.0998 C.3     1  LIG1        0.0374
     10 C          -0.1993   -1.1418   -0.1278 C.3     1  LIG1        0.0104
     11 H          -0.3604   -2.2245   -0.1869 H       1  LIG1        0.0347
     12 C          -1.5040   -0.4432    0.3495 C.3     1  LIG1        0.1285
     13 H          -2.0032   -1.0619    1.1069 H       1  LIG1        0.0787
     14 O          -1.0812    0.7581    1.0358 O.2     1  LIG1       -0.4838
     15 C          -2.5600   -0.1364   -0.6968 C.ar    1  LIG1       -0.0034
     16 C          -2.9869    1.1938   -0.9332 C.ar    1  LIG1       -0.0514
     17 C          -3.9455    1.4909   -1.9056 C.ar    1  LIG1       -0.0158
     18 C          -4.4668    0.4437   -2.6281 C.ar    1  LIG1        0.1662
     19 C          -4.0834   -0.8557   -2.3968 C.ar    1  LIG1        0.1666
     20 C          -3.1474   -1.1809   -1.4351 C.ar    1  LIG1       -0.0095
     21 O          -4.7168   -1.7348   -3.2196 O.3     1  LIG1       -0.4526
     22 C          -5.5097   -0.8326   -4.0209 C.3     1  LIG1        0.2332
     23 O          -5.3846    0.5480   -3.6250 O.3     1  LIG1       -0.4526
     24 C           0.2516   -0.6811   -1.5253 C.3     1  LIG1       -0.0578
     25 C           0.5029   -1.5948    2.3115 C.3     1  LIG1       -0.0219
     26 C           0.9365   -3.0383    2.2353 C.2     1  LIG1       -0.0902
     27 C           1.8357   -3.5842    3.0649 C.2     1  LIG1       -0.1026
     28 O           0.4584    2.9979    1.5329 O.2     1  LIG1       -0.4888
     29 C           1.3369    4.1031    1.7130 C.3     1  LIG1        0.0791
     30 H           2.4966   -1.6132   -0.0723 H       1  LIG1        0.0304
     31 H           2.8371   -1.2213    1.5750 H       1  LIG1        0.0304
     32 H           2.6538    0.8011   -0.6711 H       1  LIG1        0.0680
     33 H           6.2003    0.9506   -0.2586 H       1  LIG1        0.0524
     34 H           5.2167    2.0461    0.7029 H       1  LIG1        0.0524
     35 H           4.8200    1.7689   -1.0236 H       1  LIG1        0.0524
     36 H          -2.5665    2.0162   -0.3552 H       1  LIG1        0.0623
     37 H          -4.2606    2.5118   -2.0873 H       1  LIG1        0.0655
     38 H          -2.8697   -2.2179   -1.2778 H       1  LIG1        0.0659
     39 H          -6.5629   -1.1246   -3.9436 H       1  LIG1        0.1166
     40 H          -5.1949   -0.9253   -5.0672 H       1  LIG1        0.1166
     41 H           1.1962   -1.1520   -1.8118 H       1  LIG1        0.0234
     42 H           0.3750    0.4044   -1.5865 H       1  LIG1        0.0234
     43 H          -0.4741   -0.9762   -2.2899 H       1  LIG1        0.0234
     44 H          -0.5611   -1.5927    2.5732 H       1  LIG1        0.0317
     45 H           1.0027   -1.1035    3.1587 H       1  LIG1        0.0317
     46 H           0.4887   -3.6656    1.4682 H       1  LIG1        0.0567
     47 H           2.3116   -3.0072    3.8531 H       1  LIG1        0.0532
     48 H           2.1232   -4.6270    2.9708 H       1  LIG1        0.0532
     49 H           0.7359    5.0172    1.6987 H       1  LIG1        0.0660
     50 H           2.0649    4.1754    0.8975 H       1  LIG1        0.0660
     51 H           1.8312    4.0496    2.6877 H       1  LIG1        0.0660
@<TRIPOS>BOND
     1     1     2    2
     2     2     3    1
     3     3     4    1
     4     4     5    1
     5     5     6    1
     6     1     6    1
     7     6     7    2
     8     5     8    1
     9     8     9    1
    10     3    10    1
    11    10    11    1
    12    10    12    1
    13    12    13    1
    14    12    14    1
    15     2    14    1
    16    12    15    1
    17    15    16   ar
    18    16    17   ar
    19    17    18   ar
    20    18    19   ar
    21    19    20   ar
    22    15    20   ar
    23    19    21    1
    24    21    22    1
    25    22    23    1
    26    18    23    1
    27    10    24    1
    28     3    25    1
    29    25    26    1
    30    26    27    2
    31     1    28    1
    32    28    29    1
    33     4    30    1
    34     4    31    1
    35     5    32    1
    36     9    33    1
    37     9    34    1
    38     9    35    1
    39    16    36    1
    40    17    37    1
    41    20    38    1
    42    22    39    1
    43    22    40    1
    44    24    41    1
    45    24    42    1
    46    24    43    1
    47    25    44    1
    48    25    45    1
    49    26    46    1
    50    27    47    1
    51    27    48    1
    52    29    49    1
    53    29    50    1
    54    29    51    1
