REMARK  Name = NuBBE_1970
REMARK  10 active torsions:
REMARK  status: ('A' for Active; 'I' for Inactive)
REMARK    1  A    between atoms: O_1  and  C_2
REMARK    2  A    between atoms: C_4  and  C_30
REMARK    3  A    between atoms: C_6  and  C_22
REMARK    4  A    between atoms: C_11  and  C_13
REMARK    5  A    between atoms: C_14  and  C_15
REMARK    6  A    between atoms: C_18  and  O_21
REMARK    7  A    between atoms: C_23  and  O_24
REMARK    8  A    between atoms: C_26  and  O_29
REMARK    9  A    between atoms: C_32  and  O_33
REMARK   10  A    between atoms: C_35  and  O_37
REMARK                            x       y       z     vdW  Elec       q    Type
REMARK                         _______ _______ _______ _____ _____    ______ ____
ROOT
ATOM      1  C   LIG A   1      -1.720   0.479  -0.403  0.00  0.00    +0.125 A 
ATOM      2  C   LIG A   1      -0.978  -0.675  -0.234  0.00  0.00    +0.047 A 
ATOM      3  C   LIG A   1      -1.392  -2.099  -0.073  0.00  0.00    +0.102 C 
ATOM      4  C   LIG A   1      -0.017  -2.795  -0.334  0.00  0.00    +0.219 C 
ATOM      5  O   LIG A   1       1.034  -1.816  -0.062  0.00  0.00    -0.483 OA
ATOM      6  C   LIG A   1       0.406  -0.595  -0.155  0.00  0.00    +0.129 A 
ATOM      7  C   LIG A   1       1.081   0.610  -0.175  0.00  0.00    +0.054 A 
ATOM      8  C   LIG A   1       0.335   1.784  -0.332  0.00  0.00    -0.018 A 
ATOM      9  C   LIG A   1      -1.066   1.711  -0.457  0.00  0.00    +0.054 A 
ENDROOT
BRANCH   4  10
ATOM     10  C   LIG A   1       0.103  -3.402  -1.734  0.00  0.00    +0.035 A 
ATOM     11  C   LIG A   1       1.086  -3.064  -2.677  0.00  0.00    +0.127 A 
ATOM     12  C   LIG A   1       1.085  -3.609  -3.963  0.00  0.00    +0.091 A 
ATOM     13  C   LIG A   1       0.126  -4.550  -4.308  0.00  0.00    +0.120 A 
ATOM     14  C   LIG A   1      -0.826  -4.955  -3.385  0.00  0.00    +0.046 A 
ATOM     15  C   LIG A   1      -0.837  -4.387  -2.108  0.00  0.00    +0.014 A 
BRANCH  11  16
ATOM     16  O   LIG A   1       2.123  -2.214  -2.413  0.00  0.00    -0.506 OA
ATOM     17  H   LIG A   1       2.132  -2.038  -1.453  0.00  0.00    +0.292 HD
ENDBRANCH  11  16
BRANCH  13  18
ATOM     18  O   LIG A   1       0.097  -5.118  -5.546  0.00  0.00    -0.507 OA
ATOM     19  H   LIG A   1       0.824  -4.745  -6.073  0.00  0.00    +0.292 HD
ENDBRANCH  13  18
ENDBRANCH   4  10
BRANCH   3  20
ATOM     20  C   LIG A   1      -1.968  -2.402   1.306  0.00  0.00    -0.029 A 
ATOM     21  C   LIG A   1      -1.221  -2.212   2.485  0.00  0.00    +0.050 A 
ATOM     22  C   LIG A   1      -1.779  -2.503   3.729  0.00  0.00    +0.121 A 
ATOM     23  C   LIG A   1      -3.075  -2.985   3.838  0.00  0.00    +0.090 A 
ATOM     24  C   LIG A   1      -3.818  -3.174   2.679  0.00  0.00    +0.121 A 
ATOM     25  C   LIG A   1      -3.281  -2.886   1.424  0.00  0.00    +0.050 A 
BRANCH  22  26
ATOM     26  O   LIG A   1      -1.070  -2.328   4.882  0.00  0.00    -0.507 OA
ATOM     27  H   LIG A   1      -0.203  -1.949   4.663  0.00  0.00    +0.292 HD
ENDBRANCH  22  26
BRANCH  24  28
ATOM     28  O   LIG A   1      -5.095  -3.651   2.727  0.00  0.00    -0.507 OA
ATOM     29  H   LIG A   1      -5.324  -3.821   3.657  0.00  0.00    +0.292 HD
ENDBRANCH  24  28
ENDBRANCH   3  20
BRANCH   1  30
ATOM     30  O   LIG A   1      -3.075   0.480  -0.533  0.00  0.00    -0.506 OA
ATOM     31  H   LIG A   1      -3.410  -0.428  -0.458  0.00  0.00    +0.292 HD
ENDBRANCH   1  30
BRANCH   8  32
ATOM     32  C   LIG A   1       1.019   3.077  -0.378  0.00  0.00    +0.009 C 
ATOM     33  C   LIG A   1       1.233   3.806   0.734  0.00  0.00    +0.008 C 
BRANCH  33  34
ATOM     34  C   LIG A   1       1.960   5.076   0.689  0.00  0.00    -0.025 A 
ATOM     35  C   LIG A   1       3.349   5.093   0.866  0.00  0.00    +0.011 A 
ATOM     36  C   LIG A   1       4.049   6.301   0.836  0.00  0.00    +0.046 A 
ATOM     37  C   LIG A   1       3.356   7.489   0.625  0.00  0.00    +0.117 A 
ATOM     38  C   LIG A   1       1.978   7.484   0.439  0.00  0.00    +0.046 A 
ATOM     39  C   LIG A   1       1.278   6.277   0.468  0.00  0.00    +0.011 A 
BRANCH  37  40
ATOM     40  O   LIG A   1       3.998   8.691   0.594  0.00  0.00    -0.507 OA
ATOM     41  H   LIG A   1       4.946   8.542   0.740  0.00  0.00    +0.292 HD
ENDBRANCH  37  40
ENDBRANCH  33  34
ENDBRANCH   8  32
TORSDOF 10
