@<TRIPOS>MOLECULE
NuBBE_1932
 42 44 0 0 0
SMALL
GASTEIGER

@<TRIPOS>ATOM
      1 C          -0.4818    1.9905   -1.5599 C.3     1  LIG1       -0.0593
      2 C           0.8912    1.6899   -1.0017 C.3     1  LIG1       -0.0284
      3 C           1.7833    2.9189   -0.9671 C.3     1  LIG1       -0.0593
      4 C           1.1677    0.6985    0.1248 C.3     1  LIG1       -0.0289
      5 H           2.0336    0.9426    0.7477 H       1  LIG1        0.0312
      6 C           1.5383    0.3061   -1.2888 C.3     1  LIG1       -0.0319
      7 H           2.6078    0.3130   -1.5007 H       1  LIG1        0.0309
      8 C           0.8680   -0.6496   -2.2398 C.3     1  LIG1       -0.0468
      9 C           0.2067   -1.9502   -1.7816 C.3     1  LIG1       -0.0237
     10 C          -0.1391   -2.2129   -0.3055 C.3     1  LIG1        0.0664
     11 C          -0.7837   -0.9640    0.3477 C.3     1  LIG1       -0.0090
     12 H          -1.3275   -0.4521   -0.4478 H       1  LIG1        0.0331
     13 C           0.2325   -0.0417    1.0034 C.3     1  LIG1       -0.0294
     14 H           0.8885   -0.6771    1.6160 H       1  LIG1        0.0310
     15 C          -0.5125    0.7719    2.0684 C.3     1  LIG1       -0.0404
     16 H           0.1863    1.0379    2.8727 H       1  LIG1        0.0301
     17 C          -1.1789    2.0668    1.6298 C.3     1  LIG1       -0.0621
     18 C          -1.5281   -0.2453    2.5963 C.3     1  LIG1       -0.0498
     19 C          -1.8474   -1.1940    1.4376 C.3     1  LIG1       -0.0471
     20 C           1.0955   -2.7850    0.4064 C.3     1  LIG1       -0.0358
     21 O          -1.1003   -3.2902   -0.3036 O.3     1  LIG1       -0.3886
     22 H          -0.8076    3.0009   -1.2900 H       1  LIG1        0.0235
     23 H          -1.2618    1.3193   -1.2126 H       1  LIG1        0.0235
     24 H          -0.4672    1.9471   -2.6537 H       1  LIG1        0.0235
     25 H           1.2275    3.8318   -1.2068 H       1  LIG1        0.0235
     26 H           2.6079    2.8287   -1.6783 H       1  LIG1        0.0235
     27 H           2.2020    3.0704    0.0349 H       1  LIG1        0.0235
     28 H           1.6405   -0.9460   -2.9654 H       1  LIG1        0.0269
     29 H           0.1469   -0.1164   -2.8677 H       1  LIG1        0.0269
     30 H           0.8022   -2.7960   -2.1563 H       1  LIG1        0.0293
     31 H          -0.7233   -2.0437   -2.3656 H       1  LIG1        0.0293
     32 H          -0.4462    2.7686    1.2210 H       1  LIG1        0.0233
     33 H          -1.6347    2.5631    2.4942 H       1  LIG1        0.0233
     34 H          -1.9693    1.8997    0.8945 H       1  LIG1        0.0233
     35 H          -2.4314    0.2218    3.0025 H       1  LIG1        0.0268
     36 H          -1.0713   -0.8261    3.4068 H       1  LIG1        0.0268
     37 H          -2.8358   -0.9452    1.0279 H       1  LIG1        0.0269
     38 H          -1.8997   -2.2264    1.7930 H       1  LIG1        0.0269
     39 H           1.9706   -2.1323    0.3193 H       1  LIG1        0.0257
     40 H           1.3747   -3.7571   -0.0196 H       1  LIG1        0.0257
     41 H           0.8913   -2.9691    1.4664 H       1  LIG1        0.0257
     42 H          -1.9154   -2.9672   -0.6986 H       1  LIG1        0.2102
@<TRIPOS>BOND
     1     1     2    1
     2     2     3    1
     3     2     4    1
     4     4     5    1
     5     4     6    1
     6     6     7    1
     7     2     6    1
     8     6     8    1
     9     8     9    1
    10     9    10    1
    11    10    11    1
    12    11    12    1
    13    11    13    1
    14    13    14    1
    15     4    13    1
    16    13    15    1
    17    15    16    1
    18    15    17    1
    19    15    18    1
    20    18    19    1
    21    11    19    1
    22    10    20    1
    23    10    21    1
    24     1    22    1
    25     1    23    1
    26     1    24    1
    27     3    25    1
    28     3    26    1
    29     3    27    1
    30     8    28    1
    31     8    29    1
    32     9    30    1
    33     9    31    1
    34    17    32    1
    35    17    33    1
    36    17    34    1
    37    18    35    1
    38    18    36    1
    39    19    37    1
    40    19    38    1
    41    20    39    1
    42    20    40    1
    43    20    41    1
    44    21    42    1
