@<TRIPOS>MOLECULE
NuBBE_2338
 42 45 0 0 0
SMALL
GASTEIGER

@<TRIPOS>ATOM
      1 C          -1.7951   -1.4345   -3.3092 C.2     1  LIG1       -0.0979
      2 C          -2.1214   -0.6288   -2.2983 C.2     1  LIG1       -0.0546
      3 C          -1.8311   -0.8530   -0.8654 C.ar    1  LIG1        0.0614
      4 C          -2.0156   -2.0751   -0.1743 C.ar    1  LIG1        0.1693
      5 O          -2.4980   -3.1751   -0.8416 O.3     1  LIG1       -0.5028
      6 C          -1.7391   -2.1839    1.2119 C.ar    1  LIG1        0.1624
      7 O          -1.8362   -3.2907    2.0161 O.3     1  LIG1       -0.4914
      8 C          -2.2238   -4.5249    1.4335 C.3     1  LIG1        0.0790
      9 C          -1.3168   -1.0547    1.9287 C.ar    1  LIG1       -0.0092
     10 C          -1.1436    0.1389    1.2585 C.ar    1  LIG1        0.0052
     11 C          -0.6890    1.4589    1.7747 C.3     1  LIG1        0.0262
     12 H           0.1403    1.3566    2.4816 H       1  LIG1        0.0387
     13 C          -1.8358    2.2290    2.4299 C.3     1  LIG1       -0.0546
     14 C          -1.3874    0.2268   -0.1046 C.ar    1  LIG1        0.1358
     15 O          -1.1023    1.4839   -0.6034 O.3     1  LIG1       -0.4826
     16 C          -0.2647    2.0908    0.4260 C.3     1  LIG1        0.1319
     17 H          -0.4729    3.1686    0.4138 H       1  LIG1        0.0790
     18 C           1.2243    1.9281    0.0999 C.ar    1  LIG1       -0.0031
     19 C           2.2040    2.4726    0.9684 C.ar    1  LIG1       -0.0514
     20 C           3.5718    2.3546    0.6876 C.ar    1  LIG1       -0.0158
     21 C           3.9372    1.7010   -0.4682 C.ar    1  LIG1        0.1662
     22 C           3.0014    1.1727   -1.3218 C.ar    1  LIG1        0.1666
     23 O           3.5625    0.5741   -2.4061 O.3     1  LIG1       -0.4526
     24 C           4.9614    0.8030   -2.1456 C.3     1  LIG1        0.2332
     25 O           5.2087    1.5049   -0.9085 O.3     1  LIG1       -0.4526
     26 C           1.6498    1.2700   -1.0698 C.ar    1  LIG1       -0.0095
     27 H          -2.0509   -1.1616   -4.3308 H       1  LIG1        0.0535
     28 H          -1.2492   -2.3649   -3.1742 H       1  LIG1        0.0535
     29 H          -2.6155    0.3194   -2.5174 H       1  LIG1        0.0620
     30 H          -2.8209   -2.8915   -1.7112 H       1  LIG1        0.2923
     31 H          -2.1406   -5.2946    2.2072 H       1  LIG1        0.0660
     32 H          -1.5537   -4.8210    0.6204 H       1  LIG1        0.0660
     33 H          -3.2714   -4.4928    1.1183 H       1  LIG1        0.0660
     34 H          -1.1206   -1.1273    2.9943 H       1  LIG1        0.0659
     35 H          -2.6868    2.3601    1.7510 H       1  LIG1        0.0237
     36 H          -1.5004    3.2247    2.7399 H       1  LIG1        0.0237
     37 H          -2.2034    1.7056    3.3193 H       1  LIG1        0.0237
     38 H           1.9039    2.9970    1.8739 H       1  LIG1        0.0623
     39 H           4.3216    2.7681    1.3527 H       1  LIG1        0.0655
     40 H           5.3779    1.3905   -2.9722 H       1  LIG1        0.1166
     41 H           5.4744   -0.1649   -2.1096 H       1  LIG1        0.1166
     42 H           0.9468    0.8390   -1.7753 H       1  LIG1        0.0659
@<TRIPOS>BOND
     1     1     2    2
     2     2     3    1
     3     3     4   ar
     4     4     5    1
     5     4     6   ar
     6     6     7    1
     7     7     8    1
     8     6     9   ar
     9     9    10   ar
    10    10    11    1
    11    10    14   ar
    12     3    14   ar
    13    14    15    1
    14    15    16    1
    15    16    17    1
    16    11    16    1
    17    16    18    1
    18    18    19   ar
    19    19    20   ar
    20    20    21   ar
    21    21    22   ar
    22    22    23    1
    23    23    24    1
    24    24    25    1
    25    21    25    1
    26    22    26   ar
    27    18    26   ar
    28    11    13    1
    29    11    12    1
    30     1    27    1
    31     1    28    1
    32     2    29    1
    33     5    30    1
    34     8    31    1
    35     8    32    1
    36     8    33    1
    37     9    34    1
    38    13    35    1
    39    13    36    1
    40    13    37    1
    41    19    38    1
    42    20    39    1
    43    24    40    1
    44    24    41    1
    45    26    42    1
