REMARK  Name = NuBBE_1962
REMARK  7 active torsions:
REMARK  status: ('A' for Active; 'I' for Inactive)
REMARK    1  A    between atoms: C_2  and  C_31
REMARK    2  A    between atoms: C_22  and  O_23
REMARK    3  A    between atoms: O_23  and  C_24
REMARK    4  A    between atoms: C_25  and  O_26
REMARK    5  A    between atoms: O_26  and  C_27
REMARK    6  A    between atoms: C_28  and  O_29
REMARK    7  A    between atoms: C_31  and  C_32
REMARK                            x       y       z     vdW  Elec       q    Type
REMARK                         _______ _______ _______ _____ _____    ______ ____
ROOT
ATOM      1  O   LIG A   1      -0.924   3.347   2.275  0.00  0.00    -0.275 OA
ATOM      2  C   LIG A   1      -1.183   2.166   2.112  0.00  0.00    +0.220 C 
ATOM      3  N   LIG A   1      -0.623   1.380   1.097  0.00  0.00    -0.264 N 
ATOM      4  C   LIG A   1      -0.874  -0.062   0.907  0.00  0.00    +0.096 C 
ATOM      5  C   LIG A   1      -0.537  -0.376  -0.578  0.00  0.00    +0.061 C 
ATOM      6  C   LIG A   1      -0.390  -1.927  -0.889  0.00  0.00    +0.140 C 
ATOM      7  N   LIG A   1      -1.673  -2.251  -1.525  0.00  0.00    -0.274 NA
ATOM      8  C   LIG A   1      -2.639  -1.187  -1.416  0.00  0.00    +0.088 C 
ATOM      9  C   LIG A   1      -1.748   0.028  -1.461  0.00  0.00    +0.033 C 
ATOM     10  O   LIG A   1       0.627  -2.124  -1.888  0.00  0.00    -0.357 OA
ATOM     11  C   LIG A   1       1.696  -2.917  -1.369  0.00  0.00    +0.163 C 
ATOM     12  C   LIG A   1       1.526  -2.965   0.128  0.00  0.00    +0.039 C 
ATOM     13  C   LIG A   1       0.009  -2.856   0.309  0.00  0.00    +0.017 C 
ATOM     14  C   LIG A   1      -0.592  -4.289   0.209  0.00  0.00    +0.012 C 
ATOM     15  C   LIG A   1      -2.060  -4.267  -0.188  0.00  0.00    +0.016 C 
ATOM     16  C   LIG A   1      -2.186  -3.596  -1.540  0.00  0.00    +0.087 C 
ATOM     17  C   LIG A   1      -0.330  -2.323   1.709  0.00  0.00    +0.013 C 
ATOM     18  C   LIG A   1       0.018  -0.860   1.859  0.00  0.00    +0.025 C 
ATOM     19  C   LIG A   1       0.518   0.698  -0.804  0.00  0.00    -0.007 A 
ATOM     20  C   LIG A   1       1.419   0.811  -1.861  0.00  0.00    +0.056 A 
ATOM     21  C   LIG A   1       2.157   1.993  -2.022  0.00  0.00    +0.166 A 
ATOM     22  C   LIG A   1       1.932   3.088  -1.157  0.00  0.00    +0.205 A 
ATOM     23  C   LIG A   1       1.015   2.970  -0.089  0.00  0.00    +0.184 A 
ATOM     24  C   LIG A   1       0.330   1.770   0.112  0.00  0.00    +0.086 A 
ENDROOT
BRANCH  21  25
ATOM     25  O   LIG A   1       3.008   1.981  -3.106  0.00  0.00    -0.491 OA
ATOM     26  C   LIG A   1       4.182   2.787  -3.001  0.00  0.00    +0.277 C 
ENDBRANCH  21  25
BRANCH  22  27
ATOM     27  O   LIG A   1       2.531   4.273  -1.508  0.00  0.00    -0.488 OA
ATOM     28  C   LIG A   1       2.916   5.158  -0.467  0.00  0.00    +0.277 C 
ENDBRANCH  22  27
BRANCH  23  29
ATOM     29  O   LIG A   1       0.796   4.075   0.680  0.00  0.00    -0.502 OA
ATOM     30  H   LIG A   1       0.072   3.894   1.317  0.00  0.00    +0.292 HD
ENDBRANCH  23  29
BRANCH   2  31
ATOM     31  C   LIG A   1      -2.193   1.469   3.034  0.00  0.00    +0.093 C 
ATOM     32  C   LIG A   1      -2.792   2.381   4.095  0.00  0.00    +0.013 C 
ENDBRANCH   2  31
TORSDOF 4
