@<TRIPOS>MOLECULE
NuBBE_2316
 53 56 0 0 0
SMALL
GASTEIGER

@<TRIPOS>ATOM
      1 C          -2.2870   -0.3226    0.3813 C.3     1  LIG1        0.0263
      2 H          -3.1933    0.2900    0.4924 H       1  LIG1        0.0387
      3 C          -1.9408   -0.4046   -1.1228 C.3     1  LIG1        0.1322
      4 C          -0.9894   -1.5144   -1.5677 C.ar    1  LIG1        0.0004
      5 C          -1.3708   -2.8530   -1.3745 C.ar    1  LIG1       -0.0094
      6 C          -0.5571   -3.9349   -1.7246 C.ar    1  LIG1        0.1657
      7 C           0.6559   -3.6438   -2.3171 C.ar    1  LIG1        0.2075
      8 C           1.0283   -2.3426   -2.5560 C.ar    1  LIG1        0.1703
      9 C           0.2363   -1.2733   -2.1960 C.ar    1  LIG1       -0.0092
     10 O           2.2282   -2.2373   -3.1866 O.3     1  LIG1       -0.4525
     11 C           2.5731   -3.6269   -3.3316 C.3     1  LIG1        0.2334
     12 O           1.5906   -4.5242   -2.7723 O.3     1  LIG1       -0.4489
     13 O          -0.9034   -5.2359   -1.4909 O.3     1  LIG1       -0.4913
     14 C          -2.3097   -5.4728   -1.4069 C.3     1  LIG1        0.0790
     15 O          -1.3898    0.9055   -1.4459 O.3     1  LIG1       -0.4795
     16 C          -0.7064    1.2689   -0.3043 C.ar    1  LIG1        0.1703
     17 C          -1.1396    0.5330    0.7841 C.ar    1  LIG1        0.0083
     18 C          -0.5198    0.6345    2.0052 C.ar    1  LIG1       -0.0090
     19 C           0.5175    1.5562    2.1847 C.ar    1  LIG1        0.1657
     20 O           1.1657    1.6570    3.3885 O.3     1  LIG1       -0.4913
     21 C           0.7658    0.8140    4.4709 C.3     1  LIG1        0.0790
     22 C           0.9197    2.3735    1.0861 C.ar    1  LIG1        0.2078
     23 C           0.3195    2.1946   -0.1975 C.ar    1  LIG1        0.2076
     24 O           0.7732    2.9803   -1.2305 O.3     1  LIG1       -0.4884
     25 C           0.6751    2.4550   -2.5513 C.3     1  LIG1        0.0791
     26 O           1.9544    3.2811    1.0877 O.3     1  LIG1       -0.4810
     27 C           2.2614    4.0811    2.2232 C.3     1  LIG1        0.1079
     28 C           1.4138    5.3163    2.2751 C.2     1  LIG1       -0.0542
     29 C           1.7802    6.5274    1.7780 C.2     1  LIG1       -0.0995
     30 C          -2.4817   -1.5906    1.1964 C.3     1  LIG1       -0.0546
     31 H          -2.8628   -0.5139   -1.7068 H       1  LIG1        0.0790
     32 H          -2.3355   -3.0350   -0.9265 H       1  LIG1        0.0659
     33 H           0.5824   -0.2764   -2.4119 H       1  LIG1        0.0659
     34 H           3.5348   -3.7982   -2.8353 H       1  LIG1        0.1166
     35 H           2.6865   -3.8445   -4.4004 H       1  LIG1        0.1166
     36 H          -2.4743   -6.5426   -1.2644 H       1  LIG1        0.0660
     37 H          -2.8022   -5.1665   -2.3371 H       1  LIG1        0.0660
     38 H          -2.7667   -4.9718   -0.5450 H       1  LIG1        0.0660
     39 H          -0.8558   -0.0451    2.7739 H       1  LIG1        0.0659
     40 H           0.9156    1.3649    5.4025 H       1  LIG1        0.0660
     41 H           1.3876   -0.0869    4.4885 H       1  LIG1        0.0660
     42 H          -0.2916    0.5372    4.4811 H       1  LIG1        0.0660
     43 H          -0.3482    2.2279   -2.8577 H       1  LIG1        0.0660
     44 H           1.3345    1.5916   -2.6693 H       1  LIG1        0.0660
     45 H           1.0228    3.2164   -3.2543 H       1  LIG1        0.0660
     46 H           3.3155    4.3688    2.1158 H       1  LIG1        0.0742
     47 H           2.2200    3.5549    3.1780 H       1  LIG1        0.0742
     48 H           0.4621    5.2289    2.7846 H       1  LIG1        0.0600
     49 H           2.7160    6.6595    1.2559 H       1  LIG1        0.0533
     50 H           1.1217    7.3779    1.8766 H       1  LIG1        0.0533
     51 H          -3.2285   -2.2452    0.7406 H       1  LIG1        0.0237
     52 H          -2.8590   -1.3512    2.1970 H       1  LIG1        0.0237
     53 H          -1.5451   -2.1422    1.3370 H       1  LIG1        0.0237
@<TRIPOS>BOND
     1     1     2    1
     2     1     3    1
     3     3     4    1
     4     4     5   ar
     5     5     6   ar
     6     6     7   ar
     7     7     8   ar
     8     8     9   ar
     9     4     9   ar
    10     8    10    1
    11    10    11    1
    12    11    12    1
    13     7    12    1
    14     6    13    1
    15    13    14    1
    16     3    15    1
    17    15    16    1
    18    16    17   ar
    19     1    17    1
    20    17    18   ar
    21    18    19   ar
    22    19    20    1
    23    20    21    1
    24    19    22   ar
    25    22    23   ar
    26    16    23   ar
    27    23    24    1
    28    24    25    1
    29    22    26    1
    30    26    27    1
    31    27    28    1
    32    28    29    2
    33     1    30    1
    34     3    31    1
    35     5    32    1
    36     9    33    1
    37    11    34    1
    38    11    35    1
    39    14    36    1
    40    14    37    1
    41    14    38    1
    42    18    39    1
    43    21    40    1
    44    21    41    1
    45    21    42    1
    46    25    43    1
    47    25    44    1
    48    25    45    1
    49    27    46    1
    50    27    47    1
    51    28    48    1
    52    29    49    1
    53    29    50    1
    54    30    51    1
    55    30    52    1
    56    30    53    1
