REMARK  Name = NuBBE_1435
REMARK  8 active torsions:
REMARK  status: ('A' for Active; 'I' for Inactive)
REMARK    1  A    between atoms: C_1  and  C_2
REMARK    2  A    between atoms: C_2  and  C_3
REMARK    3  A    between atoms: C_4  and  C_5
REMARK    4  A    between atoms: C_5  and  C_6
REMARK    5  A    between atoms: C_7  and  O_8
REMARK    6  A    between atoms: O_8  and  C_9
REMARK    7  A    between atoms: C_20  and  O_21
REMARK    8  A    between atoms: O_21  and  C_22
REMARK                            x       y       z     vdW  Elec       q    Type
REMARK                         _______ _______ _______ _____ _____    ______ ____
ROOT
ATOM      1  C   LIG A   1       0.779   0.962  -0.041  0.00  0.00    +0.024 A 
ATOM      2  C   LIG A   1       1.519   1.555  -1.089  0.00  0.00    +0.126 A 
ATOM      3  C   LIG A   1       2.115   0.750  -2.054  0.00  0.00    +0.046 A 
ATOM      4  C   LIG A   1       1.944  -0.632  -2.010  0.00  0.00    +0.017 A 
ATOM      5  C   LIG A   1       1.167  -1.244  -1.002  0.00  0.00    +0.043 A 
ATOM      6  C   LIG A   1       0.592  -0.429   0.005  0.00  0.00    +0.085 A 
ATOM      7  N   LIG A   1      -0.127  -0.933   1.015  0.00  0.00    -0.211 NA
ATOM      8  C   LIG A   1      -0.333  -2.252   0.996  0.00  0.00    +0.231 A 
ATOM      9  O   LIG A   1      -1.075  -2.877   1.949  0.00  0.00    -0.445 OA
ATOM     10  C   LIG A   1      -1.135  -4.187   1.615  0.00  0.00    +0.198 A 
ATOM     11  C   LIG A   1      -0.433  -4.418   0.456  0.00  0.00    +0.055 A 
ATOM     12  C   LIG A   1       0.130  -3.172   0.060  0.00  0.00    +0.082 A 
ATOM     13  C   LIG A   1       0.950  -2.654  -0.961  0.00  0.00    +0.142 A 
ENDROOT
BRANCH   2  14
ATOM     14  O   LIG A   1       1.673   2.917  -1.049  0.00  0.00    -0.495 OA
ATOM     15  C   LIG A   1       1.768   3.581  -2.306  0.00  0.00    +0.277 C 
ENDBRANCH   2  14
BRANCH  13  16
ATOM     16  O   LIG A   1       1.507  -3.400  -1.995  0.00  0.00    -0.494 OA
ATOM     17  C   LIG A   1       1.877  -4.731  -1.660  0.00  0.00    +0.277 C 
ENDBRANCH  13  16
BRANCH   1  18
ATOM     18  C   LIG A   1       0.163   1.839   1.048  0.00  0.00    +0.068 C 
BRANCH  18  22
ATOM     19  C   LIG A   1      -3.568   3.062   1.149  0.00  0.00    +0.038 C 
ATOM     20  C   LIG A   1      -2.222   2.569   1.610  0.00  0.00    -0.079 C 
ATOM     21  C   LIG A   1      -2.095   2.394   3.101  0.00  0.00    +0.038 C 
ATOM     22  C   LIG A   1      -1.230   2.332   0.728  0.00  0.00    -0.023 C 
ENDBRANCH  18  22
ENDBRANCH   1  18
TORSDOF 4
