REMARK  Name = NuBBE_2071
REMARK  3 active torsions:
REMARK  status: ('A' for Active; 'I' for Inactive)
REMARK    1  A    between atoms: C_3  and  C_4
REMARK    2  A    between atoms: C_5  and  O_6
REMARK    3  A    between atoms: C_16  and  O_17
REMARK                            x       y       z     vdW  Elec       q    Type
REMARK                         _______ _______ _______ _____ _____    ______ ____
ROOT
ATOM      1  O   LIG A   1      -4.204  -1.379   0.579  0.00  0.00    -0.250 OA
ATOM      2  C   LIG A   1      -2.968  -1.230   0.627  0.00  0.00    +0.319 C 
ATOM      3  C   LIG A   1      -2.206   0.019   0.933  0.00  0.00    +0.125 C 
ATOM      4  C   LIG A   1      -2.304  -0.077   2.506  0.00  0.00    +0.029 C 
ATOM      5  C   LIG A   1      -2.344   1.508   0.522  0.00  0.00    +0.183 C 
ATOM      6  C   LIG A   1      -1.717   2.186  -0.734  0.00  0.00    +0.066 C 
ATOM      7  C   LIG A   1      -0.292   1.705  -0.983  0.00  0.00    +0.015 C 
ATOM      8  C   LIG A   1       0.097   0.707   0.148  0.00  0.00    +0.008 C 
ATOM      9  C   LIG A   1      -0.107   1.594   1.435  0.00  0.00    +0.171 C 
ATOM     10  O   LIG A   1      -1.475   2.169   1.505  0.00  0.00    -0.347 OA
ATOM     11  C   LIG A   1       1.534   0.091   0.011  0.00  0.00    +0.028 C 
ATOM     12  C   LIG A   1       2.311   0.815  -1.114  0.00  0.00    +0.016 C 
ATOM     13  C   LIG A   1       3.659   0.234  -1.461  0.00  0.00    +0.083 C 
ATOM     14  C   LIG A   1       3.546  -1.240  -1.704  0.00  0.00    +0.197 C 
ATOM     15  C   LIG A   1       2.505  -2.024  -0.963  0.00  0.00    +0.159 C 
ATOM     16  C   LIG A   1       1.581  -1.436  -0.175  0.00  0.00    -0.018 C 
ATOM     17  C   LIG A   1       0.518  -2.256   0.574  0.00  0.00    +0.079 C 
ATOM     18  C   LIG A   1      -0.849  -1.827   0.074  0.00  0.00    +0.185 C 
ATOM     19  O   LIG A   1      -2.061  -2.293   0.660  0.00  0.00    -0.460 OA
ATOM     20  C   LIG A   1      -1.019  -0.345   0.068  0.00  0.00    +0.061 C 
ATOM     21  O   LIG A   1       4.317  -1.851  -2.446  0.00  0.00    -0.289 OA
ENDROOT
BRANCH   5  22
ATOM     22  O   LIG A   1      -3.704   1.869   0.499  0.00  0.00    -0.364 OA
ATOM     23  H   LIG A   1      -4.042   1.516  -0.351  0.00  0.00    +0.213 HD
ENDBRANCH   5  22
BRANCH  15  24
ATOM     24  O   LIG A   1       2.576  -3.396  -1.118  0.00  0.00    -0.503 OA
ATOM     25  H   LIG A   1       3.373  -3.544  -1.677  0.00  0.00    +0.292 HD
ENDBRANCH  15  24
TORSDOF 2
