@<TRIPOS>MOLECULE
NuBBE_416
 81 85 0 0 0
SMALL
GASTEIGER

@<TRIPOS>ATOM
      1 H          -0.9164    3.1451    0.1248 H       1  LIG1        0.0312
      2 C          -0.0004    3.3193    0.7075 C.3     1  LIG1       -0.0289
      3 C           1.0605    3.9832   -0.3637 C.3     1  LIG1       -0.0195
      4 C           1.1706    3.0010   -1.5219 C.3     1  LIG1       -0.0464
      5 C           1.8355    1.7315   -1.0233 C.3     1  LIG1       -0.0487
      6 C           0.9125    1.0019   -0.0237 C.3     1  LIG1       -0.0294
      7 H           0.0139    1.0017   -0.6460 H       1  LIG1        0.0312
      8 C           0.3604    1.8285    1.2753 C.3     1  LIG1       -0.0254
      9 C           0.7387    2.0332    2.7901 C.3     1  LIG1       -0.0590
     10 C          -0.7466    0.7908    1.6305 C.3     1  LIG1       -0.0466
     11 C           0.0010   -0.6821    2.1204 C.3     1  LIG1       -0.0463
     12 C          -0.0556   -1.5673    0.8543 C.3     1  LIG1       -0.0230
     13 C          -1.6471   -1.6569    1.1367 C.3     1  LIG1       -0.0588
     14 C           1.2260   -0.5626    0.0611 C.3     1  LIG1       -0.0231
     15 C           2.6000   -0.5854    0.8747 C.3     1  LIG1       -0.0588
     16 C           1.6936   -1.1276   -1.4024 C.3     1  LIG1       -0.0463
     17 C           1.1403   -2.4988   -1.8170 C.3     1  LIG1       -0.0468
     18 C          -0.2816   -2.5149   -1.1898 C.3     1  LIG1       -0.0287
     19 C          -0.9836   -1.2288   -1.7646 C.3     1  LIG1       -0.0593
     20 C           0.3256   -3.0299    0.1570 C.3     1  LIG1       -0.0292
     21 H           1.3864   -3.1504    0.4176 H       1  LIG1        0.0312
     22 C           0.0835   -4.7563   -0.6615 C.3     1  LIG1       -0.0440
     23 C          -1.4064   -5.5961   -0.4716 C.3     1  LIG1       -0.0346
     24 C          -1.1064   -7.0774   -0.5252 C.3     1  LIG1       -0.0598
     25 C          -3.0162   -5.5933   -0.6313 C.3     1  LIG1       -0.0598
     26 C          -1.5647   -4.4756    0.4523 C.3     1  LIG1       -0.0474
     27 C          -1.5969   -3.3750   -0.9635 C.3     1  LIG1       -0.0469
     28 C           2.5456    4.2810    0.0488 C.3     1  LIG1       -0.0587
     29 C           0.5328    5.3630   -0.8830 C.3     1  LIG1        0.0203
     30 H           1.3028    5.8905   -1.4640 H       1  LIG1        0.0380
     31 C          -0.7108    5.3159   -1.7695 C.3     1  LIG1       -0.0552
     32 C           0.3092    6.2065    0.3732 C.2     1  LIG1        0.1367
     33 C          -0.8527    5.7136    1.2143 C.3     1  LIG1        0.0064
     34 C          -0.4354    4.3666    1.7831 C.3     1  LIG1       -0.0425
     35 O           1.0671    7.0237    0.7484 O.2     1  LIG1       -0.2971
     36 H           1.7349    3.4142   -2.3670 H       1  LIG1        0.0271
     37 H           0.1777    2.7587   -1.9288 H       1  LIG1        0.0271
     38 H           2.8446    1.8368   -0.6301 H       1  LIG1        0.0268
     39 H           1.9989    1.1849   -1.9484 H       1  LIG1        0.0268
     40 H           1.5029    2.7683    3.0131 H       1  LIG1        0.0235
     41 H           0.9166    1.1476    3.4047 H       1  LIG1        0.0235
     42 H          -0.1779    2.4159    3.3029 H       1  LIG1        0.0235
     43 H          -1.3917    0.6615    0.7464 H       1  LIG1        0.0271
     44 H          -1.4676    1.1051    2.3961 H       1  LIG1        0.0271
     45 H          -0.5304   -1.0703    3.0014 H       1  LIG1        0.0271
     46 H           1.0015   -0.5371    2.5085 H       1  LIG1        0.0271
     47 H          -2.1429   -0.9316    1.7990 H       1  LIG1        0.0235
     48 H          -1.8021   -2.5434    1.7650 H       1  LIG1        0.0235
     49 H          -2.3353   -1.5939    0.3160 H       1  LIG1        0.0235
     50 H           2.6692    0.2406    1.5962 H       1  LIG1        0.0235
     51 H           3.4727   -0.4176    0.2291 H       1  LIG1        0.0235
     52 H           2.7651   -1.5243    1.4069 H       1  LIG1        0.0235
     53 H           2.7865   -1.1170   -1.5178 H       1  LIG1        0.0271
     54 H           1.3498   -0.4697   -2.1972 H       1  LIG1        0.0271
     55 H           1.8894   -3.2122   -1.4219 H       1  LIG1        0.0271
     56 H           1.1823   -2.6629   -2.8934 H       1  LIG1        0.0271
     57 H          -1.1068   -0.4268   -1.0546 H       1  LIG1        0.0235
     58 H          -2.0007   -1.4136   -2.1255 H       1  LIG1        0.0235
     59 H          -0.5059   -0.8371   -2.6673 H       1  LIG1        0.0235
     60 H           0.9228   -5.3764   -0.3240 H       1  LIG1        0.0273
     61 H           0.2452   -4.6967   -1.7642 H       1  LIG1        0.0273
     62 H          -0.2463   -7.2888   -1.1729 H       1  LIG1        0.0235
     63 H          -1.9167   -7.6175   -1.0507 H       1  LIG1        0.0235
     64 H          -0.9909   -7.5339    0.4511 H       1  LIG1        0.0235
     65 H          -3.5535   -4.6283   -0.5675 H       1  LIG1        0.0235
     66 H          -3.4081   -6.1223    0.2653 H       1  LIG1        0.0235
     67 H          -3.4299   -6.0927   -1.5037 H       1  LIG1        0.0235
     68 H          -0.7496   -4.5110    1.2057 H       1  LIG1        0.0271
     69 H          -2.4427   -4.3654    1.0932 H       1  LIG1        0.0271
     70 H          -2.5410   -2.8393   -0.8635 H       1  LIG1        0.0271
     71 H          -1.7811   -3.8904   -1.9249 H       1  LIG1        0.0271
     72 H           3.1439    3.4203    0.3456 H       1  LIG1        0.0235
     73 H           2.6562    5.0191    0.8407 H       1  LIG1        0.0235
     74 H           3.0704    4.6917   -0.8364 H       1  LIG1        0.0235
     75 H          -1.4026    4.5196   -1.4826 H       1  LIG1        0.0237
     76 H          -0.4266    5.1403   -2.8119 H       1  LIG1        0.0237
     77 H          -1.2619    6.2609   -1.7277 H       1  LIG1        0.0237
     78 H          -1.7570    5.6345    0.6106 H       1  LIG1        0.0342
     79 H          -1.0461    6.4477    2.0014 H       1  LIG1        0.0342
     80 H          -1.2880    3.9804    2.3515 H       1  LIG1        0.0272
     81 H           0.3876    4.5533    2.4833 H       1  LIG1        0.0272
@<TRIPOS>BOND
     1     2     3    1
     2     3     4    1
     3     4     5    1
     4     5     6    1
     5     6     8    1
     6     2     8    1
     7     8    10    1
     8    10    11    1
     9    11    12    1
    10    12    14    1
    11     6    14    1
    12    14    16    1
    13    16    17    1
    14    17    18    1
    15    18    20    1
    16    12    20    1
    17    20    22    1
    18    22    23    1
    19    23    26    1
    20    26    27    1
    21    18    27    1
    22     3    29    1
    23    29    32    1
    24    32    33    1
    25    33    34    1
    26     2    34    1
    27     1     2    1
    28     3    28    1
    29     6     7    1
    30     8     9    1
    31    12    13    1
    32    14    15    1
    33    18    19    1
    34    20    21    1
    35    23    24    1
    36    23    25    1
    37    29    30    1
    38    29    31    1
    39    32    35    2
    40     4    36    1
    41     4    37    1
    42     5    38    1
    43     5    39    1
    44     9    40    1
    45     9    41    1
    46     9    42    1
    47    10    43    1
    48    10    44    1
    49    11    45    1
    50    11    46    1
    51    13    47    1
    52    13    48    1
    53    13    49    1
    54    15    50    1
    55    15    51    1
    56    15    52    1
    57    16    53    1
    58    16    54    1
    59    17    55    1
    60    17    56    1
    61    19    57    1
    62    19    58    1
    63    19    59    1
    64    22    60    1
    65    22    61    1
    66    24    62    1
    67    24    63    1
    68    24    64    1
    69    25    65    1
    70    25    66    1
    71    25    67    1
    72    26    68    1
    73    26    69    1
    74    27    70    1
    75    27    71    1
    76    28    72    1
    77    28    73    1
    78    28    74    1
    79    31    75    1
    80    31    76    1
    81    31    77    1
    82    33    78    1
    83    33    79    1
    84    34    80    1
    85    34    81    1
