REMARK  Name = NuBBE_2131
REMARK  9 active torsions:
REMARK  status: ('A' for Active; 'I' for Inactive)
REMARK    1  A    between atoms: C_1  and  C_2
REMARK    2  A    between atoms: C_2  and  C_3
REMARK    3  A    between atoms: C_3  and  C_4
REMARK    4  A    between atoms: C_4  and  C_5
REMARK    5  A    between atoms: C_5  and  C_6
REMARK    6  A    between atoms: C_6  and  C_7
REMARK    7  A    between atoms: C_7  and  C_8
REMARK    8  A    between atoms: C_8  and  C_9
REMARK    9  A    between atoms: C_9  and  C_10
REMARK                            x       y       z     vdW  Elec       q    Type
REMARK                         _______ _______ _______ _____ _____    ______ ____
ROOT
ATOM      1  C   LIG A   1      -1.284  -0.696   0.151  0.00  0.00    +0.000 C 
ENDROOT
BRANCH   1   2
ATOM      2  C   LIG A   1      -0.866   0.191   1.326  0.00  0.00    +0.000 C 
BRANCH   2   3
ATOM      3  C   LIG A   1      -0.576  -0.620   2.597  0.00  0.00    -0.000 C 
BRANCH   3   4
ATOM      4  C   LIG A   1       0.729  -1.424   2.592  0.00  0.00    -0.000 C 
BRANCH   4   5
ATOM      5  C   LIG A   1       2.025  -0.709   2.183  0.00  0.00    -0.000 C 
BRANCH   5   6
ATOM      6  C   LIG A   1       2.552   0.358   3.156  0.00  0.00    -0.000 C 
BRANCH   6   8
ATOM      7  C   LIG A   1       2.252   2.674   4.174  0.00  0.00    +0.004 C 
ATOM      8  C   LIG A   1       1.707   1.627   3.222  0.00  0.00    -0.003 C 
ENDBRANCH   6   8
ENDBRANCH   5   6
ENDBRANCH   4   5
ENDBRANCH   3   4
ENDBRANCH   2   3
ENDBRANCH   1   2
BRANCH   1   9
ATOM      9  C   LIG A   1      -1.546   0.142  -1.106  0.00  0.00    +0.003 C 
BRANCH   9  10
ATOM     10  C   LIG A   1      -2.054  -0.681  -2.311  0.00  0.00    -0.011 C 
ATOM     11  C   LIG A   1      -2.378   0.223  -3.505  0.00  0.00    +0.003 C 
ATOM     12  C   LIG A   1      -1.134   0.878  -4.113  0.00  0.00    +0.000 C 
ATOM     13  C   LIG A   1      -0.000  -0.106  -4.400  0.00  0.00    +0.000 C 
ATOM     14  C   LIG A   1       0.225  -1.169  -3.325  0.00  0.00    +0.000 C 
ATOM     15  C   LIG A   1      -1.070  -1.761  -2.780  0.00  0.00    +0.003 C 
ENDBRANCH   9  10
ENDBRANCH   1   9
TORSDOF 8
