REMARK  Name = NuBBE_871
REMARK  4 active torsions:
REMARK  status: ('A' for Active; 'I' for Inactive)
REMARK    1  A    between atoms: CA_9  and  CB_14
REMARK    2  A    between atoms: CB_14  and  CG_15
REMARK    3  A    between atoms: CG_15  and  CD1_16
REMARK    4  A    between atoms: CG_15  and  CD2_17
REMARK                            x       y       z     vdW  Elec       q    Type
REMARK                         _______ _______ _______ _____ _____    ______ ____
ROOT
ATOM      1  O   LEU A   2      -2.372  -1.064  -0.866  0.00  0.00    -0.274 OA
ATOM      2  C   LEU A   2      -1.520  -0.706  -0.057  0.00  0.00    +0.236 C 
ATOM      3  N   PRO A   1      -0.797  -1.592   0.713  0.00  0.00    -0.288 N 
ATOM      4  CA  PRO A   1      -0.201  -1.188   1.970  0.00  0.00    +0.162 C 
ATOM      5  CB  PRO A   1       0.690  -2.369   2.310  0.00  0.00    +0.033 C 
ATOM      6  CG  PRO A   1      -0.164  -3.555   1.852  0.00  0.00    +0.021 C 
ATOM      7  CD  PRO A   1      -0.923  -3.032   0.632  0.00  0.00    +0.109 C 
ATOM      8  CA  LEU A   2      -0.921   0.729  -0.062  0.00  0.00    +0.159 C 
ATOM      9  N   LEU A   2      -0.243   1.104   1.183  0.00  0.00    -0.302 N 
ATOM     10  C   PRO A   1       0.480   0.175   1.905  0.00  0.00    +0.234 C 
ATOM     11  O   PRO A   1       1.408   0.521   2.628  0.00  0.00    -0.274 OA
ATOM     12  H   LEU A   2       0.147   2.037   1.234  0.00  0.00    +0.149 HD
ENDROOT
BRANCH   8  13
ATOM     13  CB  LEU A   2       0.041   0.807  -1.266  0.00  0.00    +0.034 C 
BRANCH  13  14
ATOM     14  CG  LEU A   2       0.698   2.179  -1.516  0.00  0.00    -0.015 C 
ATOM     15  CD1 LEU A   2       1.624   2.089  -2.732  0.00  0.00    +0.007 C 
ATOM     16  CD2 LEU A   2      -0.328   3.292  -1.729  0.00  0.00    +0.007 C 
ENDBRANCH  13  14
ENDBRANCH   8  13
TORSDOF 2
