@<TRIPOS>MOLECULE
NuBBE_1486
 51 55 0 0 0
SMALL
GASTEIGER

@<TRIPOS>ATOM
      1 O          -2.9755   -1.5368    1.6357 O.2     1  LIG1       -0.2912
      2 C          -2.3368   -1.0822    0.6805 C.2     1  LIG1        0.1778
      3 C          -1.9860    0.3421    0.6399 C.ar    1  LIG1        0.0603
      4 C          -2.1999    1.1588    1.7691 C.ar    1  LIG1       -0.0442
      5 C          -1.8436    2.5063    1.7389 C.ar    1  LIG1       -0.0187
      6 C          -1.2927    2.9992    0.5736 C.ar    1  LIG1        0.1282
      7 O          -0.9068    4.3001    0.3996 O.3     1  LIG1       -0.4838
      8 C          -0.6417    4.4105   -1.0291 C.3     1  LIG1        0.1249
      9 H          -1.5606    4.8169   -1.4768 H       1  LIG1        0.0784
     10 C           0.4892    5.3907   -1.3002 C.2     1  LIG1       -0.0395
     11 C           0.8043    5.6401   -2.7505 C.3     1  LIG1       -0.0406
     12 C           1.1665    6.0352   -0.3331 C.2     1  LIG1       -0.0962
     13 C          -1.0632    2.1958   -0.5316 C.ar    1  LIG1        0.0404
     14 C          -0.3837    2.9934   -1.5789 C.3     1  LIG1        0.0204
     15 C          -1.4063    0.8570   -0.5205 C.ar    1  LIG1        0.1383
     16 O          -1.1221    0.1268   -1.6301 O.3     1  LIG1       -0.4833
     17 C          -1.8238   -1.9524   -0.4406 C.3     1  LIG1        0.0908
     18 C          -1.7950   -1.1384   -1.7297 C.3     1  LIG1        0.1478
     19 H          -2.8187   -0.9360   -2.0714 H       1  LIG1        0.0778
     20 C          -1.0604   -1.9602   -2.7897 C.3     1  LIG1        0.1273
     21 O           0.2983   -2.2495   -2.4294 O.3     1  LIG1       -0.4879
     22 H          -2.5438   -2.7711   -0.5763 H       1  LIG1        0.0468
     23 C          -0.4827   -2.5824   -0.1479 C.ar    1  LIG1        0.0122
     24 C           0.4829   -2.6896   -1.1468 C.ar    1  LIG1        0.1283
     25 C           1.7290   -3.2479   -0.8574 C.ar    1  LIG1        0.0257
     26 C           2.0282   -3.7258    0.4271 C.ar    1  LIG1        0.1650
     27 O           3.3021   -4.2222    0.5415 O.3     1  LIG1       -0.4913
     28 C           3.8566   -4.2908    1.8499 C.3     1  LIG1        0.0790
     29 C           1.0446   -3.6711    1.4247 C.ar    1  LIG1        0.1620
     30 O           1.3012   -4.2202    2.6535 O.3     1  LIG1       -0.4914
     31 C           0.6525   -3.5962    3.7587 C.3     1  LIG1        0.0790
     32 C          -0.2054   -3.1185    1.1195 C.ar    1  LIG1       -0.0088
     33 H          -2.6313    0.7361    2.6752 H       1  LIG1        0.0627
     34 H          -1.9918    3.1490    2.6001 H       1  LIG1        0.0654
     35 H           1.6037    6.3784   -2.8763 H       1  LIG1        0.0275
     36 H          -0.0809    6.0177   -3.2722 H       1  LIG1        0.0275
     37 H           1.1312    4.7175   -3.2401 H       1  LIG1        0.0275
     38 H           1.9586    6.7414   -0.5612 H       1  LIG1        0.0535
     39 H           0.9438    5.8813    0.7192 H       1  LIG1        0.0535
     40 H          -0.8268    2.8632   -2.5708 H       1  LIG1        0.0355
     41 H           0.6819    2.7418   -1.6114 H       1  LIG1        0.0355
     42 H          -1.0177   -1.3963   -3.7283 H       1  LIG1        0.0734
     43 H          -1.5789   -2.9050   -2.9947 H       1  LIG1        0.0734
     44 H           2.4832   -3.3082   -1.6389 H       1  LIG1        0.0692
     45 H           3.6220   -3.4040    2.4492 H       1  LIG1        0.0660
     46 H           4.9456   -4.3271    1.7508 H       1  LIG1        0.0660
     47 H           3.5421   -5.2122    2.3505 H       1  LIG1        0.0660
     48 H           1.2065   -3.8638    4.6632 H       1  LIG1        0.0660
     49 H          -0.3684   -3.9752    3.8657 H       1  LIG1        0.0660
     50 H           0.6601   -2.5033    3.6762 H       1  LIG1        0.0660
     51 H          -0.9898   -3.1124    1.8717 H       1  LIG1        0.0659
@<TRIPOS>BOND
     1     2     3    1
     2     3     4   ar
     3     4     5   ar
     4     5     6   ar
     5     6     7    1
     6     7     8    1
     7    10    11    1
     8    10    12    2
     9     6    13   ar
    10    13    14    1
    11     8    14    1
    12    13    15   ar
    13     3    15   ar
    14    15    16    1
    15     2    17    1
    16    17    18    1
    17    16    18    1
    18    18    20    1
    19    20    21    1
    20    17    23    1
    21    23    24   ar
    22    21    24    1
    23    24    25   ar
    24    25    26   ar
    25    27    28    1
    26    26    29   ar
    27    30    31    1
    28    29    32   ar
    29    23    32   ar
    30     1     2    2
    31    17    22    1
    32    18    19    1
    33    26    27    1
    34    29    30    1
    35     8    10    1
    36     8     9    1
    37     4    33    1
    38     5    34    1
    39    11    35    1
    40    11    36    1
    41    11    37    1
    42    12    38    1
    43    12    39    1
    44    14    40    1
    45    14    41    1
    46    20    42    1
    47    20    43    1
    48    25    44    1
    49    28    45    1
    50    28    46    1
    51    28    47    1
    52    31    48    1
    53    31    49    1
    54    31    50    1
    55    32    51    1
