@<TRIPOS>MOLECULE
NuBBE_976
 59 60 0 0 0
SMALL
GASTEIGER

@<TRIPOS>ATOM
      1 O          -5.9027   -1.8183   -1.8997 O.2     1  LIG1       -0.2702
      2 C          -6.4373   -0.9440   -1.2249 C.2     1  LIG1        0.2441
      3 N          -5.7359    0.0377   -0.5548 N.am    1  LIG1       -0.3110
      4 C          -4.2922    0.0657   -0.5763 C.3     1  LIG1        0.0159
      5 C          -3.6859   -0.7324    0.5855 C.3     1  LIG1       -0.0120
      6 C          -2.1754   -0.7261    0.6094 C.ar    1  LIG1       -0.0457
      7 C          -1.4354   -0.6645   -0.5744 C.ar    1  LIG1       -0.0551
      8 C          -0.0453   -0.6716   -0.5545 C.ar    1  LIG1       -0.0197
      9 C           0.6419   -0.7669    0.6525 C.ar    1  LIG1        0.1210
     10 O           2.0074   -0.8029    0.7642 O.3     1  LIG1       -0.4880
     11 C           2.7026   -0.1849   -0.3230 C.3     1  LIG1        0.1081
     12 C           4.1737   -0.2967   -0.0870 C.2     1  LIG1       -0.0481
     13 C           5.1386   -0.3227   -1.0311 C.2     1  LIG1       -0.0731
     14 C           4.8995   -0.2730   -2.5163 C.3     1  LIG1       -0.0437
     15 C           6.5962   -0.3641   -0.6133 C.3     1  LIG1       -0.0285
     16 C           7.2309    1.0303   -0.4907 C.3     1  LIG1       -0.0308
     17 C           6.5426    1.8953    0.5344 C.2     1  LIG1       -0.0850
     18 C           6.8169    1.9786    1.8502 C.2     1  LIG1       -0.0796
     19 C           7.9065    1.2134    2.5463 C.3     1  LIG1       -0.0440
     20 C           5.9855    2.8490    2.7550 C.3     1  LIG1       -0.0440
     21 C          -0.0817   -0.8768    1.8398 C.ar    1  LIG1       -0.0197
     22 C          -1.4822   -0.8521    1.8216 C.ar    1  LIG1       -0.0551
     23 H          -6.2209    0.7972   -0.0981 H       1  LIG1        0.1490
     24 C          -7.9135   -0.8851   -1.1105 C.ar    1  LIG1        0.0367
     25 C          -8.5428   -0.3589    0.0269 C.ar    1  LIG1       -0.0496
     26 C          -9.9360   -0.3360    0.1012 C.ar    1  LIG1       -0.0610
     27 C         -10.6992   -0.8414   -0.9501 C.ar    1  LIG1       -0.0617
     28 C         -10.0749   -1.3747   -2.0791 C.ar    1  LIG1       -0.0610
     29 C          -8.6832   -1.3997   -2.1579 C.ar    1  LIG1       -0.0496
     30 H          -3.9801    1.1147   -0.5306 H       1  LIG1        0.0465
     31 H          -3.9703   -0.3337   -1.5435 H       1  LIG1        0.0465
     32 H          -4.0284   -1.7740    0.5472 H       1  LIG1        0.0328
     33 H          -4.0646   -0.3093    1.5255 H       1  LIG1        0.0328
     34 H          -1.9156   -0.6221   -1.5477 H       1  LIG1        0.0621
     35 H           0.4562   -0.6248   -1.5134 H       1  LIG1        0.0654
     36 H           2.4301    0.8771   -0.3649 H       1  LIG1        0.0742
     37 H           2.4582   -0.6882   -1.2601 H       1  LIG1        0.0742
     38 H           4.4648   -0.3085    0.9624 H       1  LIG1        0.0605
     39 H           3.8420   -0.2374   -2.7879 H       1  LIG1        0.0274
     40 H           5.3282   -1.1593   -2.9964 H       1  LIG1        0.0274
     41 H           5.3711    0.6156   -2.9472 H       1  LIG1        0.0274
     42 H           7.1635   -0.9574   -1.3415 H       1  LIG1        0.0313
     43 H           6.6970   -0.8986    0.3405 H       1  LIG1        0.0313
     44 H           7.1943    1.5470   -1.4580 H       1  LIG1        0.0310
     45 H           8.2955    0.9246   -0.2563 H       1  LIG1        0.0310
     46 H           5.7070    2.4735    0.1391 H       1  LIG1        0.0572
     47 H           8.4347    0.5191    1.8884 H       1  LIG1        0.0274
     48 H           7.4871    0.6218    3.3669 H       1  LIG1        0.0274
     49 H           8.6445    1.9075    2.9605 H       1  LIG1        0.0274
     50 H           5.1883    3.3703    2.2142 H       1  LIG1        0.0274
     51 H           6.6132    3.6048    3.2370 H       1  LIG1        0.0274
     52 H           5.5115    2.2407    3.5329 H       1  LIG1        0.0274
     53 H           0.4451   -0.9776    2.7856 H       1  LIG1        0.0654
     54 H          -2.0239   -0.9386    2.7616 H       1  LIG1        0.0621
     55 H          -7.9673    0.0056    0.8711 H       1  LIG1        0.0625
     56 H         -10.4248    0.0640    0.9856 H       1  LIG1        0.0618
     57 H         -11.7838   -0.8307   -0.8865 H       1  LIG1        0.0618
     58 H         -10.6724   -1.7775   -2.8931 H       1  LIG1        0.0618
     59 H          -8.1986   -1.8230   -3.0366 H       1  LIG1        0.0625
@<TRIPOS>BOND
     1     1     2    2
     2     2     3   am
     3     3     4    1
     4     4     5    1
     5     5     6    1
     6     6     7   ar
     7     7     8   ar
     8     8     9   ar
     9     9    10    1
    10    10    11    1
    11    11    12    1
    12    12    13    2
    13    13    14    1
    14    13    15    1
    15    15    16    1
    16    16    17    1
    17    17    18    2
    18    18    19    1
    19    18    20    1
    20     9    21   ar
    21    21    22   ar
    22     6    22   ar
    23     3    23    1
    24     2    24    1
    25    24    25   ar
    26    25    26   ar
    27    26    27   ar
    28    27    28   ar
    29    28    29   ar
    30    24    29   ar
    31     4    30    1
    32     4    31    1
    33     5    32    1
    34     5    33    1
    35     7    34    1
    36     8    35    1
    37    11    36    1
    38    11    37    1
    39    12    38    1
    40    14    39    1
    41    14    40    1
    42    14    41    1
    43    15    42    1
    44    15    43    1
    45    16    44    1
    46    16    45    1
    47    17    46    1
    48    19    47    1
    49    19    48    1
    50    19    49    1
    51    20    50    1
    52    20    51    1
    53    20    52    1
    54    21    53    1
    55    22    54    1
    56    25    55    1
    57    26    56    1
    58    27    57    1
    59    28    58    1
    60    29    59    1
