@<TRIPOS>MOLECULE
NuBBE_391
 101 105 0 0 0
SMALL
GASTEIGER

@<TRIPOS>ATOM
      1 C          -0.4226    0.7175    0.4906 C.3     1  LIG1       -0.0590
      2 C          -0.9242    0.5948    1.9481 C.3     1  LIG1       -0.0259
      3 C          -2.4204    0.9700    2.1094 C.3     1  LIG1       -0.0320
      4 H          -2.6140    1.0155    3.1980 H       1  LIG1        0.0309
      5 C          -3.4847   -0.0541    1.6730 C.3     1  LIG1       -0.0307
      6 H          -3.8679   -0.3874    2.6515 H       1  LIG1        0.0309
      7 C          -2.9945   -1.4137    1.0687 C.3     1  LIG1       -0.0285
      8 H          -3.5371   -2.1306    1.7080 H       1  LIG1        0.0312
      9 C          -1.5239   -1.7950    1.4231 C.3     1  LIG1       -0.0486
     10 C          -0.8194   -0.8592    2.4251 C.3     1  LIG1       -0.0468
     11 C          -3.5268   -1.7774   -0.4060 C.3     1  LIG1       -0.0078
     12 C          -4.5026   -2.9797   -0.2359 C.3     1  LIG1       -0.0556
     13 C          -4.3111   -0.6575   -1.0928 C.2     1  LIG1       -0.0648
     14 C          -4.8282    0.3999   -0.4167 C.2     1  LIG1       -0.0839
     15 C          -4.7473    0.5325    1.0483 C.3     1  LIG1       -0.0311
     16 C          -4.6403   -0.7859   -2.5670 C.3     1  LIG1       -0.0047
     17 C          -3.4839   -1.2953   -3.4436 C.3     1  LIG1        0.0655
     18 H          -3.9328   -1.5536   -4.4087 H       1  LIG1        0.0600
     19 C          -2.8522   -2.5256   -2.7985 C.3     1  LIG1       -0.0254
     20 C          -2.3883   -2.2249   -1.3706 C.3     1  LIG1       -0.0413
     21 O          -2.5695   -0.2129   -3.6480 O.3     1  LIG1       -0.3451
     22 C          -1.4197   -0.4761   -4.4607 C.3     1  LIG1        0.1882
     23 H          -0.7925   -1.2103   -3.9446 H       1  LIG1        0.0937
     24 O          -0.6832    0.7591   -4.5052 O.3     1  LIG1       -0.3405
     25 C           0.5269    0.6826   -5.2610 C.3     1  LIG1        0.1130
     26 H           1.1756   -0.1019   -4.8471 H       1  LIG1        0.0647
     27 C           1.2658    2.0192   -5.1190 C.3     1  LIG1        0.0730
     28 O           2.4727    2.0173   -5.8797 O.3     1  LIG1       -0.3924
     29 C           0.2057    0.3659   -6.7290 C.3     1  LIG1        0.1119
     30 H          -0.4269    1.1482   -7.1657 H       1  LIG1        0.0647
     31 C          -0.5311   -0.9669   -6.7766 C.3     1  LIG1        0.1141
     32 H           0.1387   -1.7823   -6.4723 H       1  LIG1        0.0648
     33 C          -1.7746   -0.9568   -5.8924 C.3     1  LIG1        0.1341
     34 H          -2.5457   -0.3061   -6.3222 H       1  LIG1        0.0671
     35 O          -2.3062   -2.2949   -5.9195 O.3     1  LIG1       -0.3841
     36 O          -0.9154   -1.2770   -8.1270 O.3     1  LIG1       -0.3864
     37 O           1.3653    0.2417   -7.5589 O.3     1  LIG1       -0.3865
     38 C          -2.4444    2.4377    1.7108 C.3     1  LIG1       -0.0492
     39 C          -1.1613    2.9810    2.3847 C.3     1  LIG1       -0.0492
     40 C          -0.3219    1.7327    2.8409 C.3     1  LIG1       -0.0328
     41 H          -0.6479    1.5139    3.8717 H       1  LIG1        0.0309
     42 C           1.2087    2.0185    2.9945 C.3     1  LIG1       -0.0405
     43 H           1.2744    2.7842    3.7825 H       1  LIG1        0.0301
     44 C           2.0100    0.7924    3.5157 C.3     1  LIG1       -0.0499
     45 C           3.4770    1.1143    3.9113 C.3     1  LIG1       -0.0497
     46 C           4.3041   -0.0709    4.4999 C.3     1  LIG1       -0.0389
     47 H           3.8041   -0.3692    5.4320 H       1  LIG1        0.0303
     48 C           5.7723    0.3522    4.8743 C.3     1  LIG1       -0.0439
     49 C           5.8475    1.5823    5.7942 C.3     1  LIG1       -0.0624
     50 C           6.5615   -0.7751    5.5601 C.3     1  LIG1       -0.0624
     51 C           4.2705   -1.3111    3.5651 C.3     1  LIG1       -0.0528
     52 C           5.0184   -1.1743    2.2413 C.3     1  LIG1       -0.0650
     53 C           1.8857    2.6359    1.7663 C.3     1  LIG1       -0.0621
     54 H          -1.1547    0.3381   -0.2252 H       1  LIG1        0.0235
     55 H           0.5108    0.1598    0.3545 H       1  LIG1        0.0235
     56 H          -0.2278    1.7499    0.1879 H       1  LIG1        0.0235
     57 H          -0.8897   -1.8431    0.5357 H       1  LIG1        0.0268
     58 H          -1.5090   -2.8168    1.8249 H       1  LIG1        0.0268
     59 H           0.2225   -1.1756    2.5192 H       1  LIG1        0.0271
     60 H          -1.2721   -0.9805    3.4177 H       1  LIG1        0.0271
     61 H          -5.2994   -2.7438    0.4799 H       1  LIG1        0.0238
     62 H          -3.9672   -3.8607    0.1381 H       1  LIG1        0.0238
     63 H          -4.9981   -3.2706   -1.1665 H       1  LIG1        0.0238
     64 H          -5.4240    1.1352   -0.9423 H       1  LIG1        0.0572
     65 H          -5.6274    0.0211    1.4680 H       1  LIG1        0.0310
     66 H          -4.8706    1.5805    1.3234 H       1  LIG1        0.0310
     67 H          -4.9921    0.1713   -2.9712 H       1  LIG1        0.0335
     68 H          -5.4802   -1.4907   -2.6583 H       1  LIG1        0.0335
     69 H          -1.9915   -2.8796   -3.3743 H       1  LIG1        0.0290
     70 H          -3.5691   -3.3538   -2.8055 H       1  LIG1        0.0290
     71 H          -1.6215   -1.4462   -1.4338 H       1  LIG1        0.0274
     72 H          -1.9007   -3.1290   -0.9831 H       1  LIG1        0.0274
     73 H           1.5079    2.2037   -4.0664 H       1  LIG1        0.0584
     74 H           0.6388    2.8483   -5.4635 H       1  LIG1        0.0584
     75 H           2.9577    2.8268   -5.6315 H       1  LIG1        0.2095
     76 H          -2.3431   -2.5297   -6.8696 H       1  LIG1        0.2101
     77 H          -0.1151   -1.0839   -8.6587 H       1  LIG1        0.2100
     78 H           1.9721    0.9708   -7.3002 H       1  LIG1        0.2100
     79 H          -3.3271    2.9759    2.0664 H       1  LIG1        0.0268
     80 H          -2.3951    2.5591    0.6219 H       1  LIG1        0.0268
     81 H          -1.4180    3.5941    3.2557 H       1  LIG1        0.0268
     82 H          -0.6424    3.6282    1.6748 H       1  LIG1        0.0268
     83 H           2.0058    0.0332    2.7308 H       1  LIG1        0.0268
     84 H           1.4960    0.3737    4.3912 H       1  LIG1        0.0268
     85 H           3.4451    1.9273    4.6459 H       1  LIG1        0.0268
     86 H           4.0162    1.4973    3.0407 H       1  LIG1        0.0268
     87 H           6.3065    0.6099    3.9509 H       1  LIG1        0.0298
     88 H           5.1487    1.5005    6.6332 H       1  LIG1        0.0232
     89 H           5.6314    2.5046    5.2468 H       1  LIG1        0.0232
     90 H           6.8545    1.6952    6.2164 H       1  LIG1        0.0232
     91 H           6.1780   -0.9714    6.5675 H       1  LIG1        0.0232
     92 H           7.6168   -0.4917    5.6565 H       1  LIG1        0.0232
     93 H           6.5436   -1.7097    4.9964 H       1  LIG1        0.0232
     94 H           3.2308   -1.5777    3.3514 H       1  LIG1        0.0265
     95 H           4.6640   -2.1866    4.0934 H       1  LIG1        0.0265
     96 H           5.0125   -0.1552    1.8464 H       1  LIG1        0.0230
     97 H           4.5591   -1.8238    1.4877 H       1  LIG1        0.0230
     98 H           6.0609   -1.4933    2.3485 H       1  LIG1        0.0230
     99 H           2.9149    2.9305    1.9893 H       1  LIG1        0.0233
    100 H           1.3934    3.5549    1.4420 H       1  LIG1        0.0233
    101 H           1.9253    1.9399    0.9269 H       1  LIG1        0.0233
@<TRIPOS>BOND
     1     1     2    1
     2     2     3    1
     3     3     4    1
     4     3     5    1
     5     5     6    1
     6     5     7    1
     7     7     8    1
     8     7     9    1
     9     9    10    1
    10     2    10    1
    11     7    11    1
    12    11    12    1
    13    11    13    1
    14    13    14    2
    15    14    15    1
    16     5    15    1
    17    13    16    1
    18    16    17    1
    19    17    19    1
    20    19    20    1
    21    11    20    1
    22    22    24    1
    23    24    25    1
    24    25    26    1
    25    25    27    1
    26    27    28    1
    27    25    29    1
    28    29    31    1
    29    31    32    1
    30    31    33    1
    31    22    33    1
    32    31    36    1
    33     3    38    1
    34    38    39    1
    35    39    40    1
    36     2    40    1
    37    42    43    1
    38    42    44    1
    39    44    45    1
    40    46    48    1
    41    48    49    1
    42    48    50    1
    43    46    51    1
    44    51    52    1
    45    42    53    1
    46    33    35    1
    47    33    34    1
    48    17    21    1
    49    17    18    1
    50    22    23    1
    51    22    21    1
    52    29    37    1
    53    29    30    1
    54    40    42    1
    55    40    41    1
    56    46    47    1
    57    46    45    1
    58     1    54    1
    59     1    55    1
    60     1    56    1
    61     9    57    1
    62     9    58    1
    63    10    59    1
    64    10    60    1
    65    12    61    1
    66    12    62    1
    67    12    63    1
    68    14    64    1
    69    15    65    1
    70    15    66    1
    71    16    67    1
    72    16    68    1
    73    19    69    1
    74    19    70    1
    75    20    71    1
    76    20    72    1
    77    27    73    1
    78    27    74    1
    79    28    75    1
    80    35    76    1
    81    36    77    1
    82    37    78    1
    83    38    79    1
    84    38    80    1
    85    39    81    1
    86    39    82    1
    87    44    83    1
    88    44    84    1
    89    45    85    1
    90    45    86    1
    91    48    87    1
    92    49    88    1
    93    49    89    1
    94    49    90    1
    95    50    91    1
    96    50    92    1
    97    50    93    1
    98    51    94    1
    99    51    95    1
   100    52    96    1
   101    52    97    1
   102    52    98    1
   103    53    99    1
   104    53   100    1
   105    53   101    1
