REMARK  Name = NuBBE_1093
REMARK  6 active torsions:
REMARK  status: ('A' for Active; 'I' for Inactive)
REMARK    1  A    between atoms: C_4  and  O_5
REMARK    2  A    between atoms: C_6  and  O_7
REMARK    3  A    between atoms: O_7  and  C_8
REMARK    4  A    between atoms: C_9  and  O_10
REMARK    5  A    between atoms: O_10  and  C_11
REMARK    6  A    between atoms: N_14  and  C_15
REMARK                            x       y       z     vdW  Elec       q    Type
REMARK                         _______ _______ _______ _____ _____    ______ ____
ROOT
ATOM      1  O   LIG A   1      -2.700  -1.358   0.541  0.00  0.00    -0.286 OA
ATOM      2  C   LIG A   1      -1.488  -1.282   0.351  0.00  0.00    +0.201 A 
ATOM      3  C   LIG A   1      -0.841   0.045   0.231  0.00  0.00    +0.091 A 
ATOM      4  C   LIG A   1      -1.632   1.216   0.219  0.00  0.00    +0.175 A 
ATOM      5  C   LIG A   1      -1.028   2.471   0.072  0.00  0.00    +0.204 A 
ATOM      6  C   LIG A   1       0.371   2.527  -0.089  0.00  0.00    +0.167 A 
ATOM      7  C   LIG A   1       1.145   1.356  -0.051  0.00  0.00    +0.076 A 
ATOM      8  C   LIG A   1       0.562   0.091   0.127  0.00  0.00    +0.060 A 
ATOM      9  N   LIG A   1       1.314  -1.107   0.185  0.00  0.00    -0.343 N 
ATOM     10  C   LIG A   1       2.766  -1.022   0.371  0.00  0.00    +0.149 C 
ATOM     11  C   LIG A   1       0.719  -2.385   0.117  0.00  0.00    +0.053 A 
ATOM     12  C   LIG A   1      -0.678  -2.503   0.208  0.00  0.00    +0.046 A 
ATOM     13  C   LIG A   1      -1.329  -3.745   0.161  0.00  0.00    +0.014 A 
ATOM     14  C   LIG A   1      -0.586  -4.908   0.003  0.00  0.00    +0.001 A 
ATOM     15  C   LIG A   1       0.796  -4.823  -0.114  0.00  0.00    +0.002 A 
ATOM     16  C   LIG A   1       1.439  -3.578  -0.063  0.00  0.00    +0.026 A 
ENDROOT
BRANCH   4  17
ATOM     17  O   LIG A   1      -2.998   1.125   0.347  0.00  0.00    -0.503 OA
ATOM     18  H   LIG A   1      -3.241   0.179   0.474  0.00  0.00    +0.292 HD
ENDBRANCH   4  17
BRANCH   5  19
ATOM     19  O   LIG A   1      -1.653   3.694   0.047  0.00  0.00    -0.488 OA
ATOM     20  C   LIG A   1      -3.065   3.750   0.185  0.00  0.00    +0.277 C 
ENDBRANCH   5  19
BRANCH   6  21
ATOM     21  O   LIG A   1       0.928   3.780  -0.228  0.00  0.00    -0.491 OA
ATOM     22  C   LIG A   1       2.113   3.861  -1.011  0.00  0.00    +0.277 C 
ENDBRANCH   6  21
TORSDOF 3
