@<TRIPOS>MOLECULE
NuBBE_54
 67 71 0 0 0
SMALL
GASTEIGER

@<TRIPOS>ATOM
      1 O          -6.8675   -0.2222    1.8048 O.3     1  LIG1       -0.5032
      2 C          -5.7039    0.4259    1.4992 C.ar    1  LIG1        0.1628
      3 C          -5.6257    1.7824    1.7829 C.ar    1  LIG1        0.2012
      4 C          -4.4681    2.5039    1.4962 C.ar    1  LIG1        0.1708
      5 O          -4.4424    3.8392    1.8191 O.3     1  LIG1       -0.5028
      6 C          -3.3531    1.8947    0.9072 C.ar    1  LIG1        0.0458
      7 C          -2.1584    2.7187    0.5997 C.ar    1  LIG1        0.0458
      8 C          -1.0807    2.9296    1.5036 C.ar    1  LIG1        0.0740
      9 C          -0.0434    3.8389    1.1945 C.ar    1  LIG1       -0.0017
     10 C          -0.0310    4.4801   -0.0355 C.ar    1  LIG1        0.1628
     11 O           0.9681    5.3381   -0.3993 O.3     1  LIG1       -0.5032
     12 C          -1.0423    4.2390   -0.9520 C.ar    1  LIG1        0.2012
     13 O          -1.0203    4.8423   -2.1815 O.3     1  LIG1       -0.5009
     14 C          -2.0957    3.3844   -0.6376 C.ar    1  LIG1        0.1708
     15 O          -3.0751    3.1926   -1.5806 O.3     1  LIG1       -0.5028
     16 C          -0.9537    2.1041    2.7479 C.2     1  LIG1        0.3401
     17 O           0.3260    1.9850    3.1963 O.3     1  LIG1       -0.4584
     18 C           1.2578    1.1243    2.4797 C.3     1  LIG1        0.1216
     19 O          -1.8658    1.4825    3.2669 O.2     1  LIG1       -0.2449
     20 C          -3.4447    0.5006    0.6409 C.ar    1  LIG1        0.0740
     21 C          -2.2875   -0.2371    0.1074 C.2     1  LIG1        0.3404
     22 O          -2.0571   -1.2632    0.9639 O.3     1  LIG1       -0.4523
     23 C          -0.7527   -1.9136    1.1208 C.3     1  LIG1        0.1631
     24 H          -1.0272   -2.8839    1.5515 H       1  LIG1        0.0790
     25 C           0.0842   -2.2046   -0.1351 C.3     1  LIG1        0.1565
     26 H           0.6908   -3.0739    0.1316 H       1  LIG1        0.0694
     27 C           1.0565   -1.0493   -0.5493 C.3     1  LIG1        0.2352
     28 H           0.5515   -0.3520   -1.2222 H       1  LIG1        0.1086
     29 O           1.6167   -0.2756    0.5247 O.3     1  LIG1       -0.3300
     30 C           0.6454    0.1126    1.5005 C.3     1  LIG1        0.1260
     31 H          -0.1363    0.6325    0.9641 H       1  LIG1        0.0659
     32 C           0.0993   -1.1613    2.1568 C.3     1  LIG1        0.1241
     33 H           0.9542   -1.8003    2.4151 H       1  LIG1        0.0658
     34 O          -0.6248   -0.9666    3.3626 O.3     1  LIG1       -0.3853
     35 O           2.1283   -1.5617   -1.3663 O.3     1  LIG1       -0.4287
     36 C           2.9887   -2.4110   -0.7514 C.2     1  LIG1        0.3417
     37 C           4.0035   -2.8756   -1.7288 C.ar    1  LIG1        0.0662
     38 C           4.0194   -2.4222   -3.0595 C.ar    1  LIG1       -0.0023
     39 C           4.9783   -2.9200   -3.9309 C.ar    1  LIG1        0.1628
     40 O           5.0400   -2.5242   -5.2374 O.3     1  LIG1       -0.5032
     41 C           5.9079   -3.8539   -3.4874 C.ar    1  LIG1        0.2006
     42 C           5.8916   -4.2947   -2.1709 C.ar    1  LIG1        0.1628
     43 O           6.8027   -5.2132   -1.7410 O.3     1  LIG1       -0.5032
     44 C           4.9445   -3.8126   -1.2816 C.ar    1  LIG1       -0.0023
     45 O           6.8470   -4.3570   -4.3450 O.3     1  LIG1       -0.5009
     46 O           2.9382   -2.7947    0.3969 O.2     1  LIG1       -0.2449
     47 O          -0.7119   -2.6711   -1.2323 O.3     1  LIG1       -0.3818
     48 O          -1.5857    0.1355   -0.8003 O.2     1  LIG1       -0.2449
     49 C          -4.6209   -0.2285    0.9337 C.ar    1  LIG1       -0.0017
     50 O          -6.6863    2.4331    2.3552 O.3     1  LIG1       -0.5009
     51 H          -6.7733   -1.1608    1.5646 H       1  LIG1        0.2923
     52 H          -5.3243    4.0165    2.2038 H       1  LIG1        0.2923
     53 H           0.7566    4.0180    1.9076 H       1  LIG1        0.0664
     54 H           1.5882    5.4344    0.3452 H       1  LIG1        0.2923
     55 H          -0.2020    5.3803   -2.1741 H       1  LIG1        0.2924
     56 H          -2.7921    3.7305   -2.3471 H       1  LIG1        0.2923
     57 H           1.8542    0.5998    3.2344 H       1  LIG1        0.0725
     58 H           1.9569    1.7842    1.9528 H       1  LIG1        0.0725
     59 H          -1.3442   -0.3147    3.2266 H       1  LIG1        0.2101
     60 H           3.2874   -1.6982   -3.4053 H       1  LIG1        0.0663
     61 H           4.3254   -1.8821   -5.3988 H       1  LIG1        0.2923
     62 H           7.3497   -5.4081   -2.5284 H       1  LIG1        0.2923
     63 H           4.9364   -4.1699   -0.2548 H       1  LIG1        0.0663
     64 H           6.6532   -3.9153   -5.1975 H       1  LIG1        0.2924
     65 H          -1.2265   -3.4342   -0.9162 H       1  LIG1        0.2102
     66 H          -4.6599   -1.2915    0.7206 H       1  LIG1        0.0664
     67 H          -7.3642    1.7353    2.4687 H       1  LIG1        0.2924
@<TRIPOS>BOND
     1     1     2    1
     2     2     3   ar
     3     3     4   ar
     4     4     5    1
     5     4     6   ar
     6     6     7    1
     7     7     8   ar
     8     8     9   ar
     9     9    10   ar
    10    10    11    1
    11    10    12   ar
    12    12    13    1
    13    12    14   ar
    14     7    14   ar
    15    14    15    1
    16     8    16    1
    17    16    17    1
    18    17    18    1
    19    16    19    2
    20     6    20   ar
    21    20    21    1
    22    21    22    1
    23    22    23    1
    24    23    24    1
    25    23    25    1
    26    25    26    1
    27    25    27    1
    28    27    28    1
    29    27    29    1
    30    29    30    1
    31    30    31    1
    32    18    30    1
    33    30    32    1
    34    23    32    1
    35    27    35    1
    36    35    36    1
    37    36    37    1
    38    37    38   ar
    39    38    39   ar
    40    39    40    1
    41    39    41   ar
    42    41    42   ar
    43    42    43    1
    44    42    44   ar
    45    37    44   ar
    46    41    45    1
    47    36    46    2
    48    25    47    1
    49    21    48    2
    50    20    49   ar
    51     2    49   ar
    52     3    50    1
    53    32    34    1
    54    32    33    1
    55     1    51    1
    56     5    52    1
    57     9    53    1
    58    11    54    1
    59    13    55    1
    60    15    56    1
    61    18    57    1
    62    18    58    1
    63    34    59    1
    64    38    60    1
    65    40    61    1
    66    43    62    1
    67    44    63    1
    68    45    64    1
    69    47    65    1
    70    49    66    1
    71    50    67    1
