REMARK  Name = NuBBE_1075
REMARK  6 active torsions:
REMARK  status: ('A' for Active; 'I' for Inactive)
REMARK    1  A    between atoms: C_1  and  N_2
REMARK    2  A    between atoms: C_7  and  O_8
REMARK    3  A    between atoms: C_10  and  O_11
REMARK    4  A    between atoms: C_12  and  O_13
REMARK    5  A    between atoms: O_13  and  C_14
REMARK    6  A    between atoms: C_20  and  O_21
REMARK                            x       y       z     vdW  Elec       q    Type
REMARK                         _______ _______ _______ _____ _____    ______ ____
ROOT
ATOM      1  C   LIG A   1      -1.851   0.565   0.904  0.00  0.00    +0.149 C 
ATOM      2  N   LIG A   1      -0.722   0.584  -0.054  0.00  0.00    -0.337 N 
ATOM      3  C   LIG A   1       0.005  -0.649  -0.079  0.00  0.00    +0.102 A 
ATOM      4  C   LIG A   1       1.409  -0.623   0.045  0.00  0.00    +0.091 A 
ATOM      5  C   LIG A   1       2.095   0.681   0.188  0.00  0.00    +0.201 A 
ATOM      6  O   LIG A   1       3.305   0.713   0.407  0.00  0.00    -0.286 OA
ATOM      7  C   LIG A   1       2.153  -1.810   0.040  0.00  0.00    +0.133 A 
ATOM      8  C   LIG A   1       1.524  -3.036  -0.126  0.00  0.00    +0.095 A 
ATOM      9  C   LIG A   1       0.141  -3.084  -0.290  0.00  0.00    +0.164 A 
ATOM     10  C   LIG A   1      -0.632  -1.909  -0.252  0.00  0.00    +0.186 A 
ATOM     11  C   LIG A   1      -0.066   1.838  -0.131  0.00  0.00    +0.095 A 
ATOM     12  C   LIG A   1       1.323   1.927   0.024  0.00  0.00    +0.050 A 
ATOM     13  C   LIG A   1       1.983   3.164   0.011  0.00  0.00    +0.014 A 
ATOM     14  C   LIG A   1       1.258   4.337  -0.194  0.00  0.00    +0.004 A 
ATOM     15  C   LIG A   1      -0.115   4.269  -0.418  0.00  0.00    +0.047 A 
ATOM     16  C   LIG A   1      -0.755   3.031  -0.409  0.00  0.00    +0.141 A 
ENDROOT
BRANCH   7  17
ATOM     17  O   LIG A   1       3.515  -1.844   0.183  0.00  0.00    -0.506 OA
ATOM     18  H   LIG A   1       3.826  -0.918   0.312  0.00  0.00    +0.292 HD
ENDBRANCH   7  17
BRANCH   9  19
ATOM     19  O   LIG A   1      -0.442  -4.302  -0.521  0.00  0.00    -0.503 OA
ATOM     20  H   LIG A   1       0.253  -4.973  -0.627  0.00  0.00    +0.292 HD
ENDBRANCH   9  19
BRANCH  10  21
ATOM     21  O   LIG A   1      -1.990  -1.874  -0.475  0.00  0.00    -0.489 OA
ATOM     22  C   LIG A   1      -2.746  -2.959   0.054  0.00  0.00    +0.277 C 
ENDBRANCH  10  21
BRANCH  16  23
ATOM     23  O   LIG A   1      -2.080   3.013  -0.755  0.00  0.00    -0.505 OA
ATOM     24  H   LIG A   1      -2.250   2.108  -1.081  0.00  0.00    +0.292 HD
ENDBRANCH  16  23
TORSDOF 4
