REMARK  Name = NuBBE_2110
REMARK  14 active torsions:
REMARK  status: ('A' for Active; 'I' for Inactive)
REMARK    1  A    between atoms: C_1  and  C_2
REMARK    2  A    between atoms: C_2  and  C_3
REMARK    3  A    between atoms: C_3  and  C_4
REMARK    4  A    between atoms: C_4  and  C_5
REMARK    5  A    between atoms: C_5  and  C_6
REMARK    6  A    between atoms: C_6  and  C_7
REMARK    7  A    between atoms: C_7  and  C_8
REMARK    8  A    between atoms: C_8  and  C_9
REMARK    9  A    between atoms: C_9  and  C_10
REMARK   10  A    between atoms: C_10  and  C_11
REMARK   11  A    between atoms: C_11  and  C_12
REMARK   12  A    between atoms: C_12  and  C_13
REMARK   13  A    between atoms: C_13  and  C_14
REMARK   14  A    between atoms: C_14  and  C_15
REMARK                            x       y       z     vdW  Elec       q    Type
REMARK                         _______ _______ _______ _____ _____    ______ ____
ROOT
ATOM      1  C   LIG A   1       0.139  -0.767  -2.407  0.00  0.00    -0.000 C 
ENDROOT
BRANCH   1   2
ATOM      2  C   LIG A   1       0.754   0.640  -2.257  0.00  0.00    -0.000 C 
BRANCH   2   3
ATOM      3  C   LIG A   1       0.911   1.101  -0.802  0.00  0.00    -0.000 C 
BRANCH   3   4
ATOM      4  C   LIG A   1       1.455   2.538  -0.679  0.00  0.00    -0.000 C 
BRANCH   4   5
ATOM      5  C   LIG A   1       1.584   2.942   0.795  0.00  0.00    -0.000 C 
BRANCH   5   6
ATOM      6  C   LIG A   1       2.119   4.353   1.063  0.00  0.00    -0.000 C 
BRANCH   6   8
ATOM      7  C   LIG A   1      -0.109   5.651   0.958  0.00  0.00    +0.004 C 
ATOM      8  C   LIG A   1       1.347   5.560   0.526  0.00  0.00    -0.003 C 
ENDBRANCH   6   8
ENDBRANCH   5   6
ENDBRANCH   4   5
ENDBRANCH   3   4
ENDBRANCH   2   3
ENDBRANCH   1   2
BRANCH   1   9
ATOM      9  C   LIG A   1      -1.289  -0.867  -1.860  0.00  0.00    -0.000 C 
BRANCH   9  10
ATOM     10  C   LIG A   1      -1.956  -2.243  -2.007  0.00  0.00    -0.000 C 
BRANCH  10  11
ATOM     11  C   LIG A   1      -1.286  -3.424  -1.295  0.00  0.00    -0.000 C 
BRANCH  11  12
ATOM     12  C   LIG A   1      -1.092  -3.220   0.209  0.00  0.00    -0.000 C 
BRANCH  12  13
ATOM     13  C   LIG A   1      -0.362  -4.401   0.862  0.00  0.00    -0.000 C 
BRANCH  13  14
ATOM     14  C   LIG A   1      -0.185  -4.230   2.373  0.00  0.00    -0.003 C 
ATOM     15  C   LIG A   1      -1.503  -4.147   3.129  0.00  0.00    +0.004 C 
ENDBRANCH  13  14
ENDBRANCH  12  13
ENDBRANCH  11  12
ENDBRANCH  10  11
ENDBRANCH   9  10
ENDBRANCH   1   9
TORSDOF 12
