@<TRIPOS>MOLECULE
NuBBE_1930
 39 41 0 0 0
SMALL
GASTEIGER

@<TRIPOS>ATOM
      1 C          -2.7621   -1.9892    1.4046 C.3     1  LIG1       -0.0590
      2 C          -1.3068   -1.7736    1.0017 C.3     1  LIG1       -0.0247
      3 C          -1.1093   -2.6861   -0.2281 C.3     1  LIG1       -0.0590
      4 C          -0.1244   -0.8263    0.8681 C.3     1  LIG1       -0.0106
      5 H           0.6618   -1.0441    1.5916 H       1  LIG1        0.0354
      6 C          -1.3045   -0.1248    1.2781 C.3     1  LIG1       -0.0283
      7 H          -2.0893    0.3124    0.6674 H       1  LIG1        0.0312
      8 C          -0.7811    0.9749    2.1692 C.3     1  LIG1       -0.0489
      9 C          -0.6484    2.2785    1.3177 C.3     1  LIG1       -0.0496
     10 C           0.1600    2.2241   -0.0322 C.3     1  LIG1       -0.0373
     11 H          -0.1379    3.1207   -0.5943 H       1  LIG1        0.0304
     12 C          -0.1890    1.0011   -0.9378 C.3     1  LIG1       -0.0165
     13 H          -1.2792    0.9498   -1.0470 H       1  LIG1        0.0348
     14 C           0.4066   -0.2812   -0.3884 C.2     1  LIG1       -0.0633
     15 C           1.4680   -0.6660   -1.0945 C.2     1  LIG1       -0.0728
     16 C           2.4612   -1.7170   -0.7314 C.3     1  LIG1       -0.0435
     17 C           1.6364    0.1506   -2.3376 C.3     1  LIG1       -0.0312
     18 C           0.3619    0.9887   -2.3654 C.3     1  LIG1       -0.0426
     19 C           1.6625    2.3839    0.2427 C.3     1  LIG1       -0.0619
     20 H          -3.0489   -3.0452    1.3345 H       1  LIG1        0.0235
     21 H          -3.4227   -1.4603    0.6990 H       1  LIG1        0.0235
     22 H          -2.9849   -1.6568    2.4195 H       1  LIG1        0.0235
     23 H          -1.5953   -3.6587   -0.0955 H       1  LIG1        0.0235
     24 H          -0.0541   -2.9421   -0.3802 H       1  LIG1        0.0235
     25 H          -1.5046   -2.2219   -1.1373 H       1  LIG1        0.0235
     26 H           0.1982    0.7618    2.6235 H       1  LIG1        0.0268
     27 H          -1.4656    1.1559    3.0043 H       1  LIG1        0.0268
     28 H          -0.2333    3.0732    1.9521 H       1  LIG1        0.0268
     29 H          -1.6668    2.6033    1.0660 H       1  LIG1        0.0268
     30 H           2.2235   -2.1945    0.2229 H       1  LIG1        0.0274
     31 H           3.4533   -1.2684   -0.6267 H       1  LIG1        0.0274
     32 H           2.5033   -2.4962   -1.4975 H       1  LIG1        0.0274
     33 H           1.6987   -0.4835   -3.2258 H       1  LIG1        0.0310
     34 H           2.5302    0.7813   -2.2847 H       1  LIG1        0.0310
     35 H          -0.3725    0.4754   -3.0083 H       1  LIG1        0.0274
     36 H           0.5029    1.9856   -2.7894 H       1  LIG1        0.0274
     37 H           2.0594    1.5678    0.8543 H       1  LIG1        0.0233
     38 H           1.8603    3.3198    0.7754 H       1  LIG1        0.0233
     39 H           2.2322    2.4272   -0.6904 H       1  LIG1        0.0233
@<TRIPOS>BOND
     1     1     2    1
     2     2     3    1
     3     2     4    1
     4     4     5    1
     5     4     6    1
     6     6     7    1
     7     2     6    1
     8     6     8    1
     9     8     9    1
    10     9    10    1
    11    10    12    1
    12    12    13    1
    13    12    14    1
    14     4    14    1
    15    14    15    2
    16    15    16    1
    17    15    17    1
    18    17    18    1
    19    12    18    1
    20    10    19    1
    21    10    11    1
    22     1    20    1
    23     1    21    1
    24     1    22    1
    25     3    23    1
    26     3    24    1
    27     3    25    1
    28     8    26    1
    29     8    27    1
    30     9    28    1
    31     9    29    1
    32    16    30    1
    33    16    31    1
    34    16    32    1
    35    17    33    1
    36    17    34    1
    37    18    35    1
    38    18    36    1
    39    19    37    1
    40    19    38    1
    41    19    39    1
