@<TRIPOS>MOLECULE
NuBBE_1235
 39 41 0 0 0
SMALL
GASTEIGER

@<TRIPOS>ATOM
      1 C          -2.4165    2.0918   -0.1724 C.3     1  LIG1        0.0124
      2 N          -0.9876    1.7739   -0.1856 N.ar    1  LIG1       -0.3425
      3 C          -0.5705    0.4238   -0.1658 C.ar    1  LIG1        0.0602
      4 C           0.7504    0.0706   -0.5235 C.ar    1  LIG1        0.0912
      5 C           1.1990   -1.2762   -0.4510 C.ar    1  LIG1        0.1780
      6 O           2.5219   -1.5131   -0.7665 O.3     1  LIG1       -0.4906
      7 C           2.8946   -2.8380   -1.1497 C.3     1  LIG1        0.0790
      8 C           0.3008   -2.2766    0.0009 C.ar    1  LIG1        0.2044
      9 O           0.7526   -3.5715    0.0151 O.3     1  LIG1       -0.4885
     10 C           0.3386   -4.4489    1.0500 C.3     1  LIG1        0.0791
     11 C          -1.0268   -1.9347    0.3098 C.ar    1  LIG1        0.1672
     12 O          -1.8928   -2.9479    0.6301 O.3     1  LIG1       -0.4913
     13 C          -3.2384   -2.5935    0.9187 C.3     1  LIG1        0.0790
     14 C          -1.4302   -0.5976    0.2431 C.ar    1  LIG1        0.0082
     15 C          -0.0572    2.8260   -0.1439 C.ar    1  LIG1        0.0529
     16 C          -0.3630    4.1170    0.3168 C.ar    1  LIG1       -0.0375
     17 C           0.6169    5.1131    0.3739 C.ar    1  LIG1       -0.0598
     18 C           1.9190    4.8370   -0.0392 C.ar    1  LIG1       -0.0610
     19 C           2.2440    3.5659   -0.5107 C.ar    1  LIG1       -0.0489
     20 C           1.2632    2.5677   -0.5436 C.ar    1  LIG1        0.0459
     21 C           1.5817    1.1999   -1.0296 C.ar    1  LIG1        0.2007
     22 O           2.4689    1.0499   -1.8788 O.2     1  LIG1       -0.2864
     23 H          -2.9940    1.3670   -0.7595 H       1  LIG1        0.0456
     24 H          -2.6320    3.0582   -0.6424 H       1  LIG1        0.0456
     25 H          -2.8020    2.1049    0.8527 H       1  LIG1        0.0456
     26 H           3.8481   -2.7988   -1.6826 H       1  LIG1        0.0660
     27 H           2.1678   -3.2855   -1.8382 H       1  LIG1        0.0660
     28 H           3.0585   -3.4691   -0.2669 H       1  LIG1        0.0660
     29 H           1.0884   -5.2457    1.1107 H       1  LIG1        0.0660
     30 H          -0.6059   -4.9309    0.7874 H       1  LIG1        0.0660
     31 H           0.2936   -3.9582    2.0268 H       1  LIG1        0.0660
     32 H          -3.7994   -3.5133    1.0981 H       1  LIG1        0.0660
     33 H          -3.7060   -2.0803    0.0709 H       1  LIG1        0.0660
     34 H          -3.2862   -1.9847    1.8279 H       1  LIG1        0.0660
     35 H          -2.4393   -0.3302    0.5250 H       1  LIG1        0.0676
     36 H          -1.3588    4.3675    0.6725 H       1  LIG1        0.0638
     37 H           0.3619    6.1026    0.7473 H       1  LIG1        0.0618
     38 H           2.6796    5.6122    0.0115 H       1  LIG1        0.0618
     39 H           3.2572    3.3457   -0.8392 H       1  LIG1        0.0625
@<TRIPOS>BOND
     1     1     2    1
     2     2     3   ar
     3     3     4   ar
     4     4     5   ar
     5     5     6    1
     6     6     7    1
     7     5     8   ar
     8     8     9    1
     9     9    10    1
    10     8    11   ar
    11    11    12    1
    12    12    13    1
    13    11    14   ar
    14     3    14   ar
    15     2    15   ar
    16    15    16   ar
    17    16    17   ar
    18    17    18   ar
    19    18    19   ar
    20    19    20   ar
    21    15    20   ar
    22    20    21   ar
    23     4    21   ar
    24    21    22    2
    25     1    23    1
    26     1    24    1
    27     1    25    1
    28     7    26    1
    29     7    27    1
    30     7    28    1
    31    10    29    1
    32    10    30    1
    33    10    31    1
    34    13    32    1
    35    13    33    1
    36    13    34    1
    37    14    35    1
    38    16    36    1
    39    17    37    1
    40    18    38    1
    41    19    39    1
