REMARK  Name = NuBBE_1406
REMARK  15 active torsions:
REMARK  status: ('A' for Active; 'I' for Inactive)
REMARK    1  A    between atoms: C_1  and  C_2
REMARK    2  A    between atoms: C_3  and  C_4
REMARK    3  A    between atoms: C_5  and  C_9
REMARK    4  A    between atoms: C_11  and  O_13
REMARK    5  A    between atoms: O_13  and  C_14
REMARK    6  A    between atoms: C_16  and  C_19
REMARK    7  A    between atoms: C_19  and  C_21
REMARK    8  A    between atoms: C_19  and  O_26
REMARK    9  A    between atoms: C_21  and  O_22
REMARK   10  A    between atoms: C_21  and  C_24
REMARK   11  A    between atoms: C_21  and  C_25
REMARK   12  A    between atoms: O_22  and  C_23
REMARK   13  A    between atoms: C_36  and  C_37
REMARK   14  A    between atoms: C_42  and  C_43
REMARK   15  A    between atoms: C_42  and  C_44
REMARK                            x       y       z     vdW  Elec       q    Type
REMARK                         _______ _______ _______ _____ _____    ______ ____
ROOT
ATOM      1  C   LIG A   1      -0.555   1.040  -1.823  0.00  0.00    +0.016 C 
ATOM      2  C   LIG A   1       0.936   1.191  -1.387  0.00  0.00    -0.005 C 
ATOM      3  C   LIG A   1       1.286   0.734   0.075  0.00  0.00    -0.020 C 
ATOM      4  C   LIG A   1       2.799   1.009   0.427  0.00  0.00    +0.012 C 
ATOM      5  C   LIG A   1       0.465   1.713   0.981  0.00  0.00    +0.004 C 
ATOM      6  C   LIG A   1       0.537   3.044   0.145  0.00  0.00    +0.005 C 
ATOM      7  C   LIG A   1       1.162   2.710  -1.242  0.00  0.00    +0.012 C 
ATOM      8  C   LIG A   1       1.076  -0.777   0.236  0.00  0.00    +0.008 C 
ATOM      9  C   LIG A   1       1.909  -1.576  -0.768  0.00  0.00    +0.009 C 
ATOM     10  C   LIG A   1       1.591  -1.166  -2.219  0.00  0.00    +0.021 C 
ATOM     11  C   LIG A   1       1.694   0.348  -2.428  0.00  0.00    -0.063 C 
ATOM     12  C   LIG A   1       2.218   0.861  -3.553  0.00  0.00    -0.026 C 
ATOM     13  C   LIG A   1       2.657   0.033  -4.727  0.00  0.00    +0.032 C 
ATOM     14  C   LIG A   1       2.210  -1.454  -4.719  0.00  0.00    +0.012 C 
ATOM     15  C   LIG A   1       2.331  -2.064  -3.277  0.00  0.00    -0.021 C 
ATOM     16  C   LIG A   1       3.846  -2.190  -2.949  0.00  0.00    +0.012 C 
ATOM     17  C   LIG A   1       1.714  -3.497  -3.212  0.00  0.00    +0.015 C 
ATOM     18  C   LIG A   1       1.541  -4.142  -4.573  0.00  0.00    +0.075 C 
ATOM     19  C   LIG A   1       0.595  -3.298  -5.389  0.00  0.00    +0.139 C 
ATOM     20  O   LIG A   1      -0.347  -3.828  -5.993  0.00  0.00    -0.297 OA
ATOM     21  C   LIG A   1       0.864  -1.785  -5.468  0.00  0.00    +0.027 C 
ATOM     22  C   LIG A   1       0.993  -1.450  -6.971  0.00  0.00    +0.019 C 
ATOM     23  C   LIG A   1      -0.380  -1.063  -4.937  0.00  0.00    +0.019 C 
ENDROOT
BRANCH   5  24
ATOM     24  C   LIG A   1      -1.000   1.360   1.413  0.00  0.00    +0.051 C 
ATOM     25  C   LIG A   1      -1.184   0.063   2.216  0.00  0.00    +0.254 C 
ATOM     26  O   LIG A   1      -1.563   0.411   3.537  0.00  0.00    -0.345 OA
ATOM     27  C   LIG A   1      -2.243   1.663   3.501  0.00  0.00    +0.153 C 
ATOM     28  C   LIG A   1      -1.595   2.429   2.346  0.00  0.00    +0.043 C 
BRANCH  25  29
ATOM     29  O   LIG A   1      -2.209  -0.706   1.578  0.00  0.00    -0.354 OA
ATOM     30  C   LIG A   1      -2.456  -1.940   2.238  0.00  0.00    +0.197 C 
ENDBRANCH  25  29
BRANCH  27  31
ATOM     31  C   LIG A   1      -2.146   2.364   4.882  0.00  0.00    +0.174 C 
BRANCH  31  32
ATOM     32  C   LIG A   1      -2.787   1.552   6.074  0.00  0.00    +0.092 C 
ATOM     33  C   LIG A   1      -2.052   0.224   6.338  0.00  0.00    +0.044 C 
ATOM     34  C   LIG A   1      -2.723   2.408   7.356  0.00  0.00    +0.044 C 
BRANCH  32  35
ATOM     35  O   LIG A   1      -4.169   1.324   5.718  0.00  0.00    -0.374 OA
ATOM     36  C   LIG A   1      -4.962   0.592   6.643  0.00  0.00    +0.194 C 
ENDBRANCH  32  35
ENDBRANCH  31  32
BRANCH  31  37
ATOM     37  O   LIG A   1      -0.768   2.686   5.152  0.00  0.00    -0.386 OA
ATOM     38  H   LIG A   1      -0.753   3.378   5.833  0.00  0.00    +0.210 HD
ENDBRANCH  31  37
ENDBRANCH  27  31
ENDBRANCH   5  24
TORSDOF 6
