REMARK  Name = NuBBE_1610
REMARK  5 active torsions:
REMARK  status: ('A' for Active; 'I' for Inactive)
REMARK    1  A    between atoms: O_1  and  C_2
REMARK    2  A    between atoms: O_1  and  C_7
REMARK    3  A    between atoms: C_2  and  C_3
REMARK    4  A    between atoms: C_4  and  C_5
REMARK    5  A    between atoms: C_4  and  C_6
REMARK                            x       y       z     vdW  Elec       q    Type
REMARK                         _______ _______ _______ _____ _____    ______ ____
ROOT
ATOM      1  C   LIG A   1       0.718   0.618   0.537  0.00  0.00    +0.142 A 
ATOM      2  C   LIG A   1       1.173   1.974   0.571  0.00  0.00    +0.060 A 
ATOM      3  C   LIG A   1       2.330   2.308   1.300  0.00  0.00    +0.146 A 
ATOM      4  C   LIG A   1       3.055   1.383   2.033  0.00  0.00    +0.094 A 
ATOM      5  C   LIG A   1       2.626   0.072   1.937  0.00  0.00    +0.142 A 
ATOM      6  C   LIG A   1       1.538  -0.362   1.165  0.00  0.00    +0.063 A 
ATOM      7  C   LIG A   1       1.643  -1.787   1.223  0.00  0.00    +0.053 A 
ATOM      8  C   LIG A   1       2.619  -2.096   2.140  0.00  0.00    +0.196 A 
ATOM      9  O   LIG A   1       3.227  -0.968   2.568  0.00  0.00    -0.463 OA
ATOM     10  O   LIG A   1       2.846   3.627   1.336  0.00  0.00    -0.422 OA
ATOM     11  C   LIG A   1       2.251   4.672   0.658  0.00  0.00    +0.337 A 
ATOM     12  O   LIG A   1       2.680   5.812   0.679  0.00  0.00    -0.245 OA
ATOM     13  C   LIG A   1       1.038   4.328  -0.092  0.00  0.00    +0.093 A 
ATOM     14  C   LIG A   1       0.525   3.087  -0.138  0.00  0.00    +0.022 A 
ENDROOT
BRANCH   1  15
ATOM     15  O   LIG A   1      -0.486   0.356  -0.141  0.00  0.00    -0.486 OA
BRANCH  15  16
ATOM     16  C   LIG A   1      -1.100  -0.927   0.091  0.00  0.00    +0.257 C 
BRANCH  16  17
ATOM     17  C   LIG A   1      -2.416  -1.018  -0.648  0.00  0.00    +0.012 C 
ATOM     18  C   LIG A   1      -2.795  -1.911  -1.593  0.00  0.00    -0.076 C 
ATOM     19  C   LIG A   1      -1.992  -3.088  -2.091  0.00  0.00    +0.038 C 
ATOM     20  C   LIG A   1      -4.118  -1.767  -2.307  0.00  0.00    +0.038 C 
ENDBRANCH  16  17
ENDBRANCH  15  16
ENDBRANCH   1  15
TORSDOF 3
