REMARK  Name = NuBBE_2149
REMARK  15 active torsions:
REMARK  status: ('A' for Active; 'I' for Inactive)
REMARK    1  A    between atoms: C_1  and  O_2
REMARK    2  A    between atoms: O_2  and  C_3
REMARK    3  A    between atoms: C_4  and  O_5
REMARK    4  A    between atoms: O_5  and  C_6
REMARK    5  A    between atoms: C_7  and  O_8
REMARK    6  A    between atoms: O_8  and  C_9
REMARK    7  A    between atoms: C_11  and  C_12
REMARK    8  A    between atoms: C_14  and  C_16
REMARK    9  A    between atoms: C_17  and  C_18
REMARK   10  A    between atoms: C_18  and  C_19
REMARK   11  A    between atoms: C_24  and  O_26
REMARK   12  A    between atoms: O_26  and  C_27
REMARK   13  A    between atoms: C_28  and  O_30
REMARK   14  A    between atoms: C_31  and  O_32
REMARK   15  A    between atoms: O_32  and  C_33
REMARK                            x       y       z     vdW  Elec       q    Type
REMARK                         _______ _______ _______ _____ _____    ______ ____
ROOT
ATOM      1  C   LIG A   1       0.378  -0.322  -1.481  0.00  0.00    +0.065 C 
ATOM      2  C   LIG A   1       1.602   0.799  -1.453  0.00  0.00    +0.010 C 
ATOM      3  C   LIG A   1       2.145   1.302  -2.789  0.00  0.00    +0.009 C 
ATOM      4  C   LIG A   1       2.681   0.339  -0.364  0.00  0.00    +0.041 C 
ATOM      5  C   LIG A   1       1.622  -0.506   0.055  0.00  0.00    +0.175 C 
ATOM      6  O   LIG A   1       1.030  -0.329   1.135  0.00  0.00    -0.294 OA
ATOM      7  C   LIG A   1       3.721  -0.937  -0.390  0.00  0.00    +0.049 C 
ATOM      8  C   LIG A   1       3.171  -2.301   0.379  0.00  0.00    +0.150 C 
ATOM      9  C   LIG A   1       1.606  -2.641   0.013  0.00  0.00    +0.183 C 
ATOM     10  C   LIG A   1       1.172  -1.562  -1.028  0.00  0.00    +0.162 C 
ENDROOT
BRANCH   1  15
ATOM     11  C   LIG A   1      -2.770   1.596  -0.219  0.00  0.00    +0.165 A 
ATOM     12  C   LIG A   1      -3.559   0.561   0.347  0.00  0.00    +0.203 A 
ATOM     13  C   LIG A   1      -2.989  -0.715   0.490  0.00  0.00    +0.165 A 
ATOM     14  C   LIG A   1      -1.752  -0.991  -0.153  0.00  0.00    +0.053 A 
ATOM     15  C   LIG A   1      -0.963   0.010  -0.761  0.00  0.00    -0.034 A 
ATOM     16  C   LIG A   1      -1.484   1.313  -0.740  0.00  0.00    +0.053 A 
BRANCH  11  18
ATOM     17  C   LIG A   1      -4.436   3.330   0.031  0.00  0.00    +0.277 C 
ATOM     18  O   LIG A   1      -3.129   2.925  -0.375  0.00  0.00    -0.491 OA
ENDBRANCH  11  18
BRANCH  12  19
ATOM     19  O   LIG A   1      -4.852   0.909   0.612  0.00  0.00    -0.488 OA
ATOM     20  C   LIG A   1      -5.838  -0.045   0.908  0.00  0.00    +0.277 C 
ENDBRANCH  12  19
BRANCH  13  21
ATOM     21  O   LIG A   1      -3.555  -1.817   1.100  0.00  0.00    -0.491 OA
ATOM     22  C   LIG A   1      -4.105  -1.685   2.422  0.00  0.00    +0.277 C 
ENDBRANCH  13  21
ENDBRANCH   1  15
BRANCH   8  23
ATOM     23  O   LIG A   1       3.519  -2.381   1.776  0.00  0.00    -0.377 OA
ATOM     24  C   LIG A   1       3.135  -1.351   2.674  0.00  0.00    +0.194 C 
ENDBRANCH   8  23
BRANCH   9  25
ATOM     25  O   LIG A   1       0.743  -2.894   1.115  0.00  0.00    -0.386 OA
ATOM     26  H   LIG A   1       0.747  -2.098   1.679  0.00  0.00    +0.210 HD
ENDBRANCH   9  25
BRANCH  10  27
ATOM     27  O   LIG A   1       1.984  -2.057  -2.121  0.00  0.00    -0.366 OA
ATOM     28  C   LIG A   1       1.784  -1.763  -3.488  0.00  0.00    +0.195 C 
ENDBRANCH  10  27
BRANCH   4  29
ATOM     29  C   LIG A   1       3.251   1.525   0.414  0.00  0.00    +0.041 C 
BRANCH  29  30
ATOM     30  C   LIG A   1       2.312   2.239   1.345  0.00  0.00    -0.034 C 
ATOM     31  C   LIG A   1       1.623   3.359   1.088  0.00  0.00    +0.004 C 
ENDBRANCH  29  30
ENDBRANCH   4  29
TORSDOF 9
