@<TRIPOS>MOLECULE
NuBBE_2135
 19 19 0 0 0
SMALL
GASTEIGER

@<TRIPOS>ATOM
      1 C           0.3302    0.2028    2.5417 C.3     1  LIG1       -0.0616
      2 C          -0.7876   -0.1476    1.5709 C.3     1  LIG1       -0.0346
      3 C          -0.3220   -0.1837    0.1513 C.2     1  LIG1       -0.0737
      4 C          -0.2639   -1.2579   -0.6465 C.2     1  LIG1       -0.0848
      5 C           0.2696   -0.9196   -1.9984 C.3     1  LIG1       -0.0342
      6 C           0.2038    0.6060   -2.0164 C.3     1  LIG1       -0.0459
      7 C           0.1578    1.0481   -0.5539 C.3     1  LIG1       -0.0315
      8 H          -0.0451    0.1855    3.5700 H       1  LIG1        0.0233
      9 H           0.7289    1.2041    2.3482 H       1  LIG1        0.0233
     10 H           1.1554   -0.5138    2.4707 H       1  LIG1        0.0233
     11 H          -1.5994    0.5829    1.6663 H       1  LIG1        0.0307
     12 H          -1.2081   -1.1202    1.8540 H       1  LIG1        0.0307
     13 H          -0.5399   -2.2621   -0.3542 H       1  LIG1        0.0572
     14 H          -0.3413   -1.3500   -2.7971 H       1  LIG1        0.0307
     15 H           1.2977   -1.2810   -2.1026 H       1  LIG1        0.0307
     16 H          -0.7113    0.9304   -2.5291 H       1  LIG1        0.0271
     17 H           1.0481    1.0489   -2.5547 H       1  LIG1        0.0271
     18 H          -0.5253    1.8930   -0.4240 H       1  LIG1        0.0310
     19 H           1.1524    1.3341   -0.1961 H       1  LIG1        0.0310
@<TRIPOS>BOND
     1     1     2    1
     2     2     3    1
     3     3     4    2
     4     4     5    1
     5     5     6    1
     6     6     7    1
     7     3     7    1
     8     1     8    1
     9     1     9    1
    10     1    10    1
    11     2    11    1
    12     2    12    1
    13     4    13    1
    14     5    14    1
    15     5    15    1
    16     6    16    1
    17     6    17    1
    18     7    18    1
    19     7    19    1
