@<TRIPOS>MOLECULE
NuBBE_995
 74 77 0 0 0
SMALL
GASTEIGER

@<TRIPOS>ATOM
      1 C          -2.1840    2.5018    1.4238 C.3     1  LIG1       -0.0586
      2 C          -1.5952    2.1481    0.0399 C.3     1  LIG1       -0.0191
      3 C          -0.1540    1.5659    0.2428 C.3     1  LIG1       -0.0252
      4 C           0.7376    2.8038    0.3947 C.3     1  LIG1        0.0097
      5 C           0.0318    3.8527   -0.4124 C.2     1  LIG1        0.1372
      6 C          -1.3434    3.4037   -0.8764 C.3     1  LIG1        0.0229
      7 H          -1.2049    3.0746   -1.9160 H       1  LIG1        0.0383
      8 C          -2.4117    4.5013   -0.8568 C.3     1  LIG1       -0.0459
      9 C          -2.1125    5.6608   -1.8099 C.3     1  LIG1       -0.0646
     10 O           0.5515    4.9315   -0.6758 O.2     1  LIG1       -0.2971
     11 C           0.2309    0.6126   -0.9179 C.3     1  LIG1       -0.0340
     12 C           2.0339    0.3247   -1.0244 C.3     1  LIG1       -0.0493
     13 C           2.6908   -1.3775   -1.2943 C.3     1  LIG1       -0.0459
     14 C           1.3417   -2.6345   -1.0861 C.3     1  LIG1        0.0056
     15 C           1.2661   -1.5769   -0.1592 C.3     1  LIG1        0.1465
     16 H           0.4794   -1.0234    0.3381 H       1  LIG1        0.0776
     17 O           0.7764   -1.2235   -1.9366 O.3     1  LIG1       -0.4574
     18 C           0.9208   -1.3926   -3.3052 C.2     1  LIG1        0.3043
     19 C           0.1905   -0.2865   -4.0644 C.3     1  LIG1        0.0332
     20 O           1.5906   -2.2382   -3.8544 O.2     1  LIG1       -0.2512
     21 C           1.4988   -2.5333    1.0748 C.3     1  LIG1        0.1765
     22 H           2.3147   -3.2628    0.9593 H       1  LIG1        0.0809
     23 O           1.9114   -1.5846    2.1195 O.3     1  LIG1       -0.4540
     24 C           3.2310   -1.3547    2.2578 C.2     1  LIG1        0.3044
     25 C           3.4870   -0.0907    3.0001 C.3     1  LIG1        0.0332
     26 O           4.1177   -2.0254    1.7405 O.2     1  LIG1       -0.2512
     27 C           0.2224   -3.2813    1.5048 C.3     1  LIG1        0.1438
     28 H           0.4430   -4.3580    1.6209 H       1  LIG1        0.0773
     29 O          -0.2859   -2.7678    2.7586 O.3     1  LIG1       -0.4576
     30 C           0.4330   -3.1260    3.8730 C.2     1  LIG1        0.3043
     31 C           0.0986   -2.0627    4.9083 C.3     1  LIG1        0.0332
     32 O           1.1807   -4.0700    3.9921 O.2     1  LIG1       -0.2512
     33 C          -0.9085   -3.1276    0.4930 C.3     1  LIG1       -0.0060
     34 C          -0.4706   -2.5259   -0.8768 C.3     1  LIG1       -0.0192
     35 C          -1.1086   -3.3947   -1.9887 C.3     1  LIG1       -0.0588
     36 C          -1.0270   -0.7578   -0.9822 C.3     1  LIG1       -0.0320
     37 C          -2.2813   -0.3181   -0.2298 C.3     1  LIG1       -0.0489
     38 C          -2.5649    1.1399   -0.6364 C.3     1  LIG1       -0.0464
     39 H          -1.6341    3.3052    1.9222 H       1  LIG1        0.0235
     40 H          -2.1546    1.6262    2.0837 H       1  LIG1        0.0235
     41 H          -3.2327    2.8108    1.3499 H       1  LIG1        0.0235
     42 H          -0.0880    0.9878    1.1734 H       1  LIG1        0.0313
     43 H           1.7562    2.6800    0.0286 H       1  LIG1        0.0345
     44 H           0.7624    3.1416    1.4359 H       1  LIG1        0.0345
     45 H          -2.5377    4.9147    0.1495 H       1  LIG1        0.0269
     46 H          -3.3708    4.0602   -1.1529 H       1  LIG1        0.0269
     47 H          -1.3407    6.3229   -1.4037 H       1  LIG1        0.0230
     48 H          -3.0079    6.2734   -1.9582 H       1  LIG1        0.0230
     49 H          -1.7778    5.3067   -2.7901 H       1  LIG1        0.0230
     50 H           0.0334    1.1674   -1.8423 H       1  LIG1        0.0307
     51 H           2.4259    0.9496   -1.8346 H       1  LIG1        0.0268
     52 H           2.4789    0.6481   -0.0745 H       1  LIG1        0.0268
     53 H           3.5085   -1.5497   -0.5800 H       1  LIG1        0.0269
     54 H           3.1434   -1.4340   -2.2917 H       1  LIG1        0.0269
     55 H           1.7464   -3.6339   -0.8999 H       1  LIG1        0.0343
     56 H           0.6374    0.6858   -3.8419 H       1  LIG1        0.0342
     57 H          -0.8778   -0.2618   -3.8472 H       1  LIG1        0.0342
     58 H           0.2835   -0.4518   -5.1407 H       1  LIG1        0.0342
     59 H           2.6445    0.1653    3.6458 H       1  LIG1        0.0342
     60 H           3.6414    0.7217    2.2732 H       1  LIG1        0.0342
     61 H           4.3809   -0.1951    3.6217 H       1  LIG1        0.0342
     62 H          -0.6613   -1.3482    4.5569 H       1  LIG1        0.0342
     63 H           1.0212   -1.4919    5.0838 H       1  LIG1        0.0342
     64 H          -0.2607   -2.5030    5.8509 H       1  LIG1        0.0342
     65 H          -1.7175   -2.5287    0.9222 H       1  LIG1        0.0307
     66 H          -1.3723   -4.1159    0.3773 H       1  LIG1        0.0307
     67 H          -0.4345   -3.5262   -2.8394 H       1  LIG1        0.0235
     68 H          -2.0471   -2.9676   -2.3490 H       1  LIG1        0.0235
     69 H          -1.3147   -4.4157   -1.6446 H       1  LIG1        0.0235
     70 H          -1.3802   -0.7343   -2.0194 H       1  LIG1        0.0309
     71 H          -2.1577   -0.4006    0.8529 H       1  LIG1        0.0268
     72 H          -3.1278   -0.9513   -0.5207 H       1  LIG1        0.0268
     73 H          -3.6059    1.3936   -0.4052 H       1  LIG1        0.0271
     74 H          -2.4900    1.2215   -1.7306 H       1  LIG1        0.0271
@<TRIPOS>BOND
     1     1     2    1
     2     2     3    1
     3     3     4    1
     4     4     5    1
     5     5     6    1
     6     6     7    1
     7     2     6    1
     8     6     8    1
     9     8     9    1
    10     5    10    2
    11     3    11    1
    12    11    12    1
    13    12    13    1
    14    13    14    1
    15    14    15    1
    16    17    18    1
    17    18    19    1
    18    18    20    2
    19    15    21    1
    20    23    24    1
    21    24    25    1
    22    24    26    2
    23    21    27    1
    24    29    30    1
    25    30    31    1
    26    30    32    2
    27    27    33    1
    28    33    34    1
    29    34    35    1
    30    14    34    1
    31    34    36    1
    32    11    36    1
    33    36    37    1
    34    37    38    1
    35     2    38    1
    36    15    17    1
    37    15    16    1
    38    21    23    1
    39    21    22    1
    40    27    29    1
    41    27    28    1
    42     1    39    1
    43     1    40    1
    44     1    41    1
    45     3    42    1
    46     4    43    1
    47     4    44    1
    48     8    45    1
    49     8    46    1
    50     9    47    1
    51     9    48    1
    52     9    49    1
    53    11    50    1
    54    12    51    1
    55    12    52    1
    56    13    53    1
    57    13    54    1
    58    14    55    1
    59    19    56    1
    60    19    57    1
    61    19    58    1
    62    25    59    1
    63    25    60    1
    64    25    61    1
    65    31    62    1
    66    31    63    1
    67    31    64    1
    68    33    65    1
    69    33    66    1
    70    35    67    1
    71    35    68    1
    72    35    69    1
    73    36    70    1
    74    37    71    1
    75    37    72    1
    76    38    73    1
    77    38    74    1
