REMARK  Name = NuBBE_1456
REMARK  7 active torsions:
REMARK  status: ('A' for Active; 'I' for Inactive)
REMARK    1  A    between atoms: C_4  and  O_5
REMARK    2  A    between atoms: C_9  and  C_10
REMARK    3  A    between atoms: C_9  and  C_11
REMARK    4  A    between atoms: C_22  and  O_23
REMARK    5  A    between atoms: O_23  and  C_24
REMARK    6  A    between atoms: C_25  and  O_26
REMARK    7  A    between atoms: O_26  and  C_27
REMARK                            x       y       z     vdW  Elec       q    Type
REMARK                         _______ _______ _______ _____ _____    ______ ____
ROOT
ATOM      1  O   LIG A   1      -1.560   0.818   0.646  0.00  0.00    -0.291 OA
ATOM      2  C   LIG A   1      -0.443   0.346   0.454  0.00  0.00    +0.181 C 
ATOM      3  C   LIG A   1      -0.297  -1.128   0.380  0.00  0.00    +0.102 A 
ATOM      4  C   LIG A   1      -1.368  -1.991   0.656  0.00  0.00    +0.141 A 
ATOM      5  C   LIG A   1      -1.176  -3.382   0.637  0.00  0.00    +0.059 A 
ATOM      6  C   LIG A   1       0.096  -3.890   0.349  0.00  0.00    +0.136 A 
ATOM      7  O   LIG A   1       0.403  -5.222   0.328  0.00  0.00    -0.481 OA
ATOM      8  C   LIG A   1      -0.656  -6.190   0.487  0.00  0.00    +0.123 C 
ATOM      9  C   LIG A   1      -0.201  -7.142   1.599  0.00  0.00    +0.060 C 
ATOM     10  C   LIG A   1      -0.753  -6.953  -0.839  0.00  0.00    +0.060 C 
ATOM     11  C   LIG A   1      -2.010  -5.624   0.842  0.00  0.00    +0.020 C 
ATOM     12  C   LIG A   1      -2.260  -4.314   0.919  0.00  0.00    +0.015 C 
ATOM     13  C   LIG A   1       1.160  -3.030   0.066  0.00  0.00    +0.092 A 
ATOM     14  C   LIG A   1       0.959  -1.653   0.058  0.00  0.00    +0.139 A 
ATOM     15  O   LIG A   1       2.047  -0.878  -0.265  0.00  0.00    -0.483 OA
ATOM     16  C   LIG A   1       1.654   0.424  -0.718  0.00  0.00    +0.226 C 
ATOM     17  C   LIG A   1       0.849   1.135   0.366  0.00  0.00    +0.138 C 
ATOM     18  C   LIG A   1       0.736   2.611   0.065  0.00  0.00    +0.012 A 
ATOM     19  C   LIG A   1      -0.127   3.443   0.791  0.00  0.00    +0.057 A 
ATOM     20  C   LIG A   1      -0.234   4.815   0.515  0.00  0.00    +0.162 A 
ATOM     21  C   LIG A   1       0.561   5.385  -0.490  0.00  0.00    +0.165 A 
ATOM     22  C   LIG A   1       1.466   4.568  -1.179  0.00  0.00    +0.095 A 
ATOM     23  C   LIG A   1       1.566   3.204  -0.891  0.00  0.00    +0.128 A 
ATOM     24  O   LIG A   1       2.518   2.520  -1.603  0.00  0.00    -0.488 OA
ATOM     25  C   LIG A   1       2.884   1.260  -1.035  0.00  0.00    +0.274 C 
ENDROOT
BRANCH   4  26
ATOM     26  O   LIG A   1      -2.621  -1.509   0.956  0.00  0.00    -0.505 OA
ATOM     27  H   LIG A   1      -2.599  -0.526   0.910  0.00  0.00    +0.292 HD
ENDBRANCH   4  26
BRANCH  20  28
ATOM     28  O   LIG A   1      -1.123   5.459   1.337  0.00  0.00    -0.491 OA
ATOM     29  C   LIG A   1      -1.788   6.594   0.797  0.00  0.00    +0.277 C 
ENDBRANCH  20  28
BRANCH  21  30
ATOM     30  O   LIG A   1       0.486   6.737  -0.700  0.00  0.00    -0.491 OA
ATOM     31  C   LIG A   1       0.797   7.186  -2.015  0.00  0.00    +0.277 C 
ENDBRANCH  21  30
TORSDOF 3
