@<TRIPOS>MOLECULE
NuBBE_2038
 43 44 0 0 0
SMALL
GASTEIGER

@<TRIPOS>ATOM
      1 O          -2.6943   -0.0597   -1.7500 O.3     1  LIG1       -0.4942
      2 C          -2.6430    1.1335   -1.0477 C.3     1  LIG1        0.0788
      3 C          -2.4306   -1.1221   -0.8990 C.ar    1  LIG1        0.1375
      4 C          -1.5778   -1.2649    0.2590 C.ar    1  LIG1        0.1005
      5 C          -0.5107   -0.3039    0.8475 C.2     1  LIG1        0.1705
      6 O           0.5761   -0.8219    1.3322 O.2     1  LIG1       -0.2918
      7 C          -0.6711    1.2239    0.9960 C.3     1  LIG1        0.0147
      8 C          -0.0340    2.1043   -0.1681 C.3     1  LIG1       -0.0207
      9 C           1.4471    2.1347   -0.2310 C.ar    1  LIG1       -0.0467
     10 C           2.1051    2.0805    0.9766 C.ar    1  LIG1       -0.0551
     11 C           3.4230    2.4155    1.0479 C.ar    1  LIG1       -0.0197
     12 C           4.1436    2.6954   -0.1072 C.ar    1  LIG1        0.1201
     13 C           3.5300    2.5824   -1.3579 C.ar    1  LIG1       -0.0197
     14 C           2.1625    2.3230   -1.4266 C.ar    1  LIG1       -0.0551
     15 O           5.4544    3.0857   -0.0779 O.3     1  LIG1       -0.4951
     16 C           5.9812    3.2050    1.2446 C.3     1  LIG1        0.0788
     17 C          -1.7176   -2.5045    0.9244 C.ar    1  LIG1        0.1343
     18 O          -1.1746   -2.6982    2.1748 O.3     1  LIG1       -0.5058
     19 C          -2.4852   -3.5640    0.4206 C.ar    1  LIG1        0.0225
     20 C          -3.2303   -3.4089   -0.7387 C.ar    1  LIG1        0.1271
     21 C          -3.2389   -2.1796   -1.3553 C.ar    1  LIG1        0.0227
     22 O          -4.0384   -4.3648   -1.2817 O.3     1  LIG1       -0.4949
     23 C          -3.5406   -5.6911   -1.1377 C.3     1  LIG1        0.0788
     24 H          -3.2804    1.1797   -0.1619 H       1  LIG1        0.0660
     25 H          -2.5935    2.0705   -1.6067 H       1  LIG1        0.0660
     26 H          -1.6560    1.0019   -0.7513 H       1  LIG1        0.0660
     27 H          -0.2948    1.5418    1.9791 H       1  LIG1        0.0348
     28 H          -1.7316    1.4349    1.1631 H       1  LIG1        0.0348
     29 H          -0.4152    3.1316   -0.0591 H       1  LIG1        0.0317
     30 H          -0.2792    1.8323   -1.2022 H       1  LIG1        0.0317
     31 H           1.6046    1.8100    1.8939 H       1  LIG1        0.0621
     32 H           3.8230    2.4582    2.0498 H       1  LIG1        0.0654
     33 H           4.1043    2.7231   -2.2699 H       1  LIG1        0.0654
     34 H           1.6731    2.2801   -2.4013 H       1  LIG1        0.0621
     35 H           7.0188    3.5258    1.1759 H       1  LIG1        0.0660
     36 H           5.9617    2.2347    1.7580 H       1  LIG1        0.0660
     37 H           5.4330    3.9603    1.8254 H       1  LIG1        0.0660
     38 H          -1.4971   -3.5359    2.5462 H       1  LIG1        0.2922
     39 H          -2.5253   -4.4988    0.9634 H       1  LIG1        0.0691
     40 H          -3.8933   -2.0004   -2.2088 H       1  LIG1        0.0691
     41 H          -4.2216   -6.3696   -1.6567 H       1  LIG1        0.0660
     42 H          -3.5186   -6.0005   -0.0890 H       1  LIG1        0.0660
     43 H          -2.5478   -5.7798   -1.5925 H       1  LIG1        0.0660
@<TRIPOS>BOND
     1     1     2    1
     2     1     3    1
     3     3     4   ar
     4     4     5    1
     5     5     6    2
     6     5     7    1
     7     7     8    1
     8     8     9    1
     9     9    10   ar
    10    10    11   ar
    11    11    12   ar
    12    12    13   ar
    13    13    14   ar
    14     9    14   ar
    15    12    15    1
    16    15    16    1
    17     4    17   ar
    18    17    18    1
    19    17    19   ar
    20    19    20   ar
    21    20    21   ar
    22     3    21   ar
    23    20    22    1
    24    22    23    1
    25     2    24    1
    26     2    25    1
    27     2    26    1
    28     7    27    1
    29     7    28    1
    30     8    29    1
    31     8    30    1
    32    10    31    1
    33    11    32    1
    34    13    33    1
    35    14    34    1
    36    16    35    1
    37    16    36    1
    38    16    37    1
    39    18    38    1
    40    19    39    1
    41    21    40    1
    42    23    41    1
    43    23    42    1
    44    23    43    1
