REMARK  Name = NuBBE_1475
REMARK  5 active torsions:
REMARK  status: ('A' for Active; 'I' for Inactive)
REMARK    1  A    between atoms: O_1  and  C_2
REMARK    2  A    between atoms: C_4  and  O_5
REMARK    3  A    between atoms: C_6  and  O_19
REMARK    4  A    between atoms: C_14  and  O_15
REMARK    5  A    between atoms: O_19  and  C_20
REMARK                            x       y       z     vdW  Elec       q    Type
REMARK                         _______ _______ _______ _____ _____    ______ ____
ROOT
ATOM      1  C   LIG A   1      -2.876   1.137  -0.149  0.00  0.00    +0.164 A 
ATOM      2  C   LIG A   1      -2.314   2.410  -0.068  0.00  0.00    +0.095 A 
ATOM      3  C   LIG A   1      -0.923   2.553  -0.010  0.00  0.00    +0.133 A 
ATOM      4  C   LIG A   1      -2.056   0.004  -0.163  0.00  0.00    +0.185 A 
ATOM      5  C   LIG A   1      -0.657   0.144  -0.149  0.00  0.00    +0.100 A 
ATOM      6  C   LIG A   1      -0.085   1.427  -0.046  0.00  0.00    +0.091 A 
ATOM      7  C   LIG A   1       1.410   1.521   0.015  0.00  0.00    +0.201 A 
ATOM      8  C   LIG A   1       2.218   0.277  -0.094  0.00  0.00    +0.049 A 
ATOM      9  C   LIG A   1       3.618   0.333  -0.094  0.00  0.00    +0.014 A 
ATOM     10  C   LIG A   1       4.362  -0.845  -0.196  0.00  0.00    +0.004 A 
ATOM     11  C   LIG A   1       3.712  -2.076  -0.296  0.00  0.00    +0.047 A 
ATOM     12  C   LIG A   1       2.319  -2.121  -0.294  0.00  0.00    +0.141 A 
ATOM     13  C   LIG A   1       1.557  -0.950  -0.204  0.00  0.00    +0.093 A 
ATOM     14  N   LIG A   1       0.161  -0.998  -0.147  0.00  0.00    -0.348 N 
ATOM     15  O   LIG A   1       2.002   2.587   0.151  0.00  0.00    -0.286 OA
ATOM     16  H   LIG A   1      -0.273  -1.879  -0.409  0.00  0.00    +0.166 HD
ENDROOT
BRANCH   1  17
ATOM     17  O   LIG A   1      -4.233   0.997  -0.230  0.00  0.00    -0.503 OA
ATOM     18  H   LIG A   1      -4.644   1.869  -0.344  0.00  0.00    +0.292 HD
ENDBRANCH   1  17
BRANCH   3  19
ATOM     19  O   LIG A   1      -0.402   3.813   0.071  0.00  0.00    -0.506 OA
ATOM     20  H   LIG A   1      -1.104   4.479   0.121  0.00  0.00    +0.292 HD
ENDBRANCH   3  19
BRANCH  12  21
ATOM     21  O   LIG A   1       1.659  -3.319  -0.388  0.00  0.00    -0.505 OA
ATOM     22  H   LIG A   1       2.316  -4.033  -0.424  0.00  0.00    +0.292 HD
ENDBRANCH  12  21
BRANCH   4  23
ATOM     23  O   LIG A   1      -2.552  -1.275  -0.270  0.00  0.00    -0.489 OA
ATOM     24  C   LIG A   1      -3.373  -1.621   0.845  0.00  0.00    +0.277 C 
ENDBRANCH   4  23
TORSDOF 4
