@<TRIPOS>MOLECULE
NuBBE_1998
 58 59 0 0 0
SMALL
GASTEIGER

@<TRIPOS>ATOM
      1 C           1.2021    2.3562    3.4908 C.3     1  LIG1       -0.0327
      2 C           1.4535    1.0324    2.7826 C.ar    1  LIG1        0.0344
      3 C           2.4269    0.2292    3.3917 C.ar    1  LIG1        0.1300
      4 O           2.9551    0.6896    4.5743 O.3     1  LIG1       -0.4946
      5 C           4.2754    0.2628    4.8880 C.3     1  LIG1        0.0788
      6 C           2.7806   -0.9738    2.8033 C.ar    1  LIG1        0.0230
      7 C           2.1929   -1.4178    1.5945 C.ar    1  LIG1        0.1379
      8 O           2.6674   -2.6734    1.2596 O.3     1  LIG1       -0.4942
      9 C           3.4989   -2.7084    0.0950 C.3     1  LIG1        0.0788
     10 C           1.1295   -0.7017    0.9549 C.ar    1  LIG1        0.1068
     11 C           0.3434   -1.4202   -0.2103 C.2     1  LIG1        0.2073
     12 C          -0.7511   -0.8259   -1.0775 C.ar    1  LIG1        0.1068
     13 C          -1.8812   -0.2698   -0.4664 C.ar    1  LIG1        0.1379
     14 O          -2.0780   -0.4221    0.8903 O.3     1  LIG1       -0.4942
     15 C          -2.8748    0.6156    1.4731 C.3     1  LIG1        0.0788
     16 C          -2.8720    0.3837   -1.2237 C.ar    1  LIG1        0.0230
     17 C          -2.8432    0.4684   -2.5992 C.ar    1  LIG1        0.1300
     18 O          -3.7231    1.2509   -3.3067 O.3     1  LIG1       -0.4946
     19 C          -4.8896    1.7156   -2.6148 C.3     1  LIG1        0.0788
     20 C          -1.9048   -0.3181   -3.2668 C.ar    1  LIG1        0.0344
     21 C          -2.1088   -0.4956   -4.7579 C.3     1  LIG1       -0.0327
     22 C          -0.8584   -0.9590   -2.5094 C.ar    1  LIG1        0.1523
     23 O          -0.1354   -1.9998   -3.2282 O.3     1  LIG1       -0.4248
     24 C           1.2114   -2.3360   -3.1253 C.2     1  LIG1        0.3092
     25 C           1.2540   -3.8370   -3.5674 C.3     1  LIG1        0.0336
     26 O           2.1105   -1.6294   -2.8718 O.2     1  LIG1       -0.2507
     27 O           0.5690   -2.6129   -0.4453 O.2     1  LIG1       -0.2861
     28 C           0.8457    0.5856    1.5466 C.ar    1  LIG1        0.1523
     29 O          -0.1550    1.4334    0.9873 O.3     1  LIG1       -0.4248
     30 C           0.0935    2.7993    0.8446 C.2     1  LIG1        0.3092
     31 C          -1.1888    3.5921    0.8833 C.3     1  LIG1        0.0336
     32 O           1.2021    3.3183    0.7779 O.2     1  LIG1       -0.2507
     33 H           0.9963    2.2060    4.5590 H       1  LIG1        0.0280
     34 H           0.3609    2.9443    3.1302 H       1  LIG1        0.0280
     35 H           2.1087    2.9700    3.4029 H       1  LIG1        0.0280
     36 H           4.6227    0.8401    5.7517 H       1  LIG1        0.0660
     37 H           4.9610    0.4580    4.0566 H       1  LIG1        0.0660
     38 H           4.2862   -0.7919    5.1756 H       1  LIG1        0.0660
     39 H           3.4968   -1.6271    3.2939 H       1  LIG1        0.0691
     40 H           2.9686   -2.3367   -0.7767 H       1  LIG1        0.0660
     41 H           3.7471   -3.7606   -0.0921 H       1  LIG1        0.0660
     42 H           4.4501   -2.1650    0.2074 H       1  LIG1        0.0660
     43 H          -3.9384    0.3521    1.4851 H       1  LIG1        0.0660
     44 H          -2.7636    1.5553    0.9258 H       1  LIG1        0.0660
     45 H          -2.5194    0.8018    2.4864 H       1  LIG1        0.0660
     46 H          -3.7097    0.8347   -0.7167 H       1  LIG1        0.0691
     47 H          -5.4544    2.3784   -3.2770 H       1  LIG1        0.0660
     48 H          -4.6581    2.3109   -1.7211 H       1  LIG1        0.0660
     49 H          -5.5248    0.8618   -2.3529 H       1  LIG1        0.0660
     50 H          -3.1797   -0.4233   -5.0113 H       1  LIG1        0.0280
     51 H          -1.7928   -1.4794   -5.1143 H       1  LIG1        0.0280
     52 H          -1.5959    0.2926   -5.3153 H       1  LIG1        0.0280
     53 H           0.7082   -4.0445   -4.4633 H       1  LIG1        0.0342
     54 H           0.7297   -4.5033   -2.7315 H       1  LIG1        0.0342
     55 H           2.2516   -4.2413   -3.6124 H       1  LIG1        0.0342
     56 H          -0.9622    4.6182    1.1903 H       1  LIG1        0.0342
     57 H          -1.8749    3.2184    1.6523 H       1  LIG1        0.0342
     58 H          -1.6617    3.5981   -0.0993 H       1  LIG1        0.0342
@<TRIPOS>BOND
     1     1     2    1
     2     2     3   ar
     3     3     4    1
     4     4     5    1
     5     3     6   ar
     6     6     7   ar
     7     7     8    1
     8     8     9    1
     9     7    10   ar
    10    10    11    1
    11    11    12    1
    12    12    13   ar
    13    13    14    1
    14    14    15    1
    15    13    16   ar
    16    16    17   ar
    17    17    18    1
    18    18    19    1
    19    17    20   ar
    20    20    21    1
    21    20    22   ar
    22    12    22   ar
    23    22    23    1
    24    23    24    1
    25    24    25    1
    26    24    26    2
    27    11    27    2
    28    10    28   ar
    29     2    28   ar
    30    28    29    1
    31    29    30    1
    32    30    31    1
    33    30    32    2
    34     1    33    1
    35     1    34    1
    36     1    35    1
    37     5    36    1
    38     5    37    1
    39     5    38    1
    40     6    39    1
    41     9    40    1
    42     9    41    1
    43     9    42    1
    44    15    43    1
    45    15    44    1
    46    15    45    1
    47    16    46    1
    48    19    47    1
    49    19    48    1
    50    19    49    1
    51    21    50    1
    52    21    51    1
    53    21    52    1
    54    25    53    1
    55    25    54    1
    56    25    55    1
    57    31    56    1
    58    31    57    1
    59    31    58    1
