@<TRIPOS>MOLECULE
NuBBE_210
 26 25 0 0 0
SMALL
GASTEIGER

@<TRIPOS>ATOM
      1 O          -0.4082   -3.0513   -2.3209 O.3     1  LIG1       -0.3924
      2 C          -0.4365   -2.0683   -1.2794 C.3     1  LIG1        0.0727
      3 C           0.2955   -0.8132   -1.7768 C.3     1  LIG1        0.1065
      4 H           1.3269   -1.0570   -2.0507 H       1  LIG1        0.0643
      5 O          -0.3807   -0.3817   -2.9841 O.3     1  LIG1       -0.3869
      6 C           0.2448    0.3842   -0.8147 C.3     1  LIG1        0.1114
      7 H           0.6937    1.2563   -1.3174 H       1  LIG1        0.0647
      8 C           0.9617    0.1562    0.5253 C.3     1  LIG1        0.1114
      9 H           1.9739   -0.2257    0.3424 H       1  LIG1        0.0647
     10 O           0.2748   -0.8708    1.2818 O.3     1  LIG1       -0.3865
     11 C           1.0836    1.4340    1.3914 C.3     1  LIG1        0.1065
     12 H           1.7011    2.1760    0.8714 H       1  LIG1        0.0643
     13 O           1.7871    1.0784    2.5949 O.3     1  LIG1       -0.3869
     14 C          -0.2435    2.0905    1.7996 C.3     1  LIG1        0.0727
     15 O          -1.0879    1.1391    2.4489 O.3     1  LIG1       -0.3924
     16 O          -1.1350    0.7108   -0.5887 O.3     1  LIG1       -0.3865
     17 H          -0.8575   -3.8375   -1.9573 H       1  LIG1        0.2095
     18 H           0.0327   -2.5025   -0.3958 H       1  LIG1        0.0584
     19 H          -1.4912   -1.8547   -1.0802 H       1  LIG1        0.0584
     20 H          -0.6036   -1.2069   -3.4557 H       1  LIG1        0.2100
     21 H          -0.6244   -0.5081    1.4129 H       1  LIG1        0.2100
     22 H           1.2582    0.3464    2.9772 H       1  LIG1        0.2100
     23 H          -0.7680    2.5004    0.9321 H       1  LIG1        0.0584
     24 H          -0.0648    2.9136    2.5000 H       1  LIG1        0.0584
     25 H          -1.9881    1.5221    2.4322 H       1  LIG1        0.2095
     26 H          -1.5446    0.6696   -1.4886 H       1  LIG1        0.2100
@<TRIPOS>BOND
     1     1     2    1
     2     2     3    1
     3     3     4    1
     4     3     5    1
     5     8    10    1
     6    11    13    1
     7    11    14    1
     8    14    15    1
     9     6    16    1
    10    11    12    1
    11    11     8    1
    12     8     9    1
    13     8     6    1
    14     6     7    1
    15     6     3    1
    16     1    17    1
    17     2    18    1
    18     2    19    1
    19     5    20    1
    20    10    21    1
    21    13    22    1
    22    14    23    1
    23    14    24    1
    24    15    25    1
    25    16    26    1
