@<TRIPOS>MOLECULE
NuBBE_203
 79 81 0 0 0
SMALL
GASTEIGER

@<TRIPOS>ATOM
      1 H           0.6336   -1.5977   -0.7618 H       1  LIG1        0.0318
      2 C           1.1463   -0.9442   -0.0455 C.3     1  LIG1       -0.0170
      3 C           0.7826    0.5646   -0.4254 C.3     1  LIG1        0.0668
      4 C           1.2187    1.5591    0.6928 C.3     1  LIG1        0.0002
      5 C           1.0065    1.1478    2.1455 C.3     1  LIG1        0.1071
      6 H           1.7580    1.6954    2.7369 H       1  LIG1        0.0737
      7 O          -0.2757    1.6159    2.5717 O.3     1  LIG1       -0.4610
      8 C          -0.3092    2.9608    2.8765 C.2     1  LIG1        0.3073
      9 C          -1.7126    3.4505    3.1210 C.3     1  LIG1        0.0447
     10 C          -2.4104    2.8033    4.3089 C.3     1  LIG1       -0.0458
     11 C          -2.5532    1.2963    4.1681 C.3     1  LIG1       -0.0648
     12 O           0.6582    3.7152    2.8531 O.2     1  LIG1       -0.2508
     13 C           1.3275   -0.3367    2.4290 C.3     1  LIG1       -0.0007
     14 H           2.4129   -0.3301    2.2407 H       1  LIG1        0.0339
     15 C           1.3133   -0.6785    3.9291 C.3     1  LIG1       -0.0585
     16 C           0.8071   -1.4528    1.4217 C.3     1  LIG1       -0.0188
     17 C           1.6236   -2.7448    1.7947 C.3     1  LIG1       -0.0586
     18 C          -0.7050   -1.8984    1.5163 C.3     1  LIG1       -0.0282
     19 C          -1.1923   -3.0635    0.5847 C.2     1  LIG1       -0.0806
     20 C          -2.2998   -3.0455   -0.1976 C.2     1  LIG1       -0.0549
     21 C          -2.7583   -4.0849   -1.1980 C.3     1  LIG1       -0.0400
     22 C          -3.0987   -1.8562   -0.2093 C.2     1  LIG1       -0.0662
     23 C          -4.4167   -1.7235   -0.0544 C.2     1  LIG1       -0.0985
     24 C           1.5708    1.0190   -1.6523 C.2     1  LIG1        0.0090
     25 C           0.9709    2.2896   -2.1736 C.3     1  LIG1        0.2314
     26 H           1.4242    3.1686   -1.7002 H       1  LIG1        0.1111
     27 O           0.9911    2.4910   -3.6197 O.3     1  LIG1       -0.4311
     28 C           2.2136    2.6836   -4.2676 C.2     1  LIG1        0.3063
     29 C           2.2476    3.8784   -5.0518 C.3     1  LIG1        0.0333
     30 O           3.2267    1.9032   -4.2971 O.2     1  LIG1       -0.2511
     31 O          -0.3865    2.2705   -1.6563 O.3     1  LIG1       -0.2972
     32 C          -0.6164    0.9749   -1.0160 C.3     1  LIG1        0.2182
     33 H          -1.3428    1.1144   -0.2033 H       1  LIG1        0.1067
     34 O          -1.1706    0.1418   -2.0474 O.3     1  LIG1       -0.4342
     35 C          -2.4743    0.4777   -2.3011 C.2     1  LIG1        0.3061
     36 C          -2.7664    0.6798   -3.7476 C.3     1  LIG1        0.0333
     37 O          -3.3083    0.7760   -1.4463 O.2     1  LIG1       -0.2511
     38 C           2.5480    0.2840   -2.1889 C.2     1  LIG1       -0.0498
     39 C           3.0737   -0.9890   -1.7043 C.3     1  LIG1        0.0772
     40 H           4.1654   -0.9811   -1.8130 H       1  LIG1        0.0640
     41 O           2.4932   -1.9603   -2.5604 O.3     1  LIG1       -0.3757
     42 C           2.9568   -3.2723   -2.3178 C.3     1  LIG1        0.0372
     43 C           2.6894   -1.1241   -0.2592 C.3     1  LIG1       -0.0186
     44 H           0.7214    2.5264    0.5363 H       1  LIG1        0.0311
     45 H           2.2903    1.7738    0.5891 H       1  LIG1        0.0311
     46 H          -2.2833    3.3196    2.1959 H       1  LIG1        0.0377
     47 H          -1.6553    4.5338    3.2991 H       1  LIG1        0.0377
     48 H          -3.4111    3.2433    4.3972 H       1  LIG1        0.0268
     49 H          -1.8748    3.0369    5.2364 H       1  LIG1        0.0268
     50 H          -2.9594    1.0366    3.1848 H       1  LIG1        0.0230
     51 H          -3.2123    0.8927    4.9394 H       1  LIG1        0.0230
     52 H          -1.5886    0.7958    4.2933 H       1  LIG1        0.0230
     53 H           1.4043    0.2215    4.5488 H       1  LIG1        0.0234
     54 H           2.2006   -1.2834    4.1712 H       1  LIG1        0.0234
     55 H           0.4328   -1.2373    4.2463 H       1  LIG1        0.0234
     56 H           2.6842   -2.5239    1.9740 H       1  LIG1        0.0235
     57 H           1.5759   -3.5047    1.0082 H       1  LIG1        0.0235
     58 H           1.2666   -3.1978    2.7255 H       1  LIG1        0.0235
     59 H          -0.9161   -2.2397    2.5371 H       1  LIG1        0.0313
     60 H          -1.3132   -1.0033    1.3720 H       1  LIG1        0.0313
     61 H          -0.6207   -3.9929    0.6046 H       1  LIG1        0.0575
     62 H          -2.0692   -4.9275   -1.2969 H       1  LIG1        0.0277
     63 H          -2.8454   -3.6288   -2.1977 H       1  LIG1        0.0277
     64 H          -3.7518   -4.4756   -0.9462 H       1  LIG1        0.0277
     65 H          -2.4948   -0.9782   -0.3484 H       1  LIG1        0.0614
     66 H          -5.0765   -2.5531    0.1586 H       1  LIG1        0.0535
     67 H          -4.8479   -0.7278   -0.1255 H       1  LIG1        0.0535
     68 H           3.2944    4.0599   -5.3369 H       1  LIG1        0.0342
     69 H           1.9161    4.7673   -4.4896 H       1  LIG1        0.0342
     70 H           1.6671    3.7336   -5.9786 H       1  LIG1        0.0342
     71 H          -2.0801    0.1492   -4.4087 H       1  LIG1        0.0342
     72 H          -2.6917    1.7617   -3.9073 H       1  LIG1        0.0342
     73 H          -3.7907    0.3550   -3.9577 H       1  LIG1        0.0342
     74 H           3.0735    0.5198   -3.0838 H       1  LIG1        0.0599
     75 H           2.5267   -3.9269   -3.0774 H       1  LIG1        0.0524
     76 H           2.6107   -3.6173   -1.3419 H       1  LIG1        0.0524
     77 H           4.0477   -3.3131   -2.3778 H       1  LIG1        0.0524
     78 H           3.2471   -0.3790    0.3232 H       1  LIG1        0.0296
     79 H           3.0607   -2.0939    0.0585 H       1  LIG1        0.0296
@<TRIPOS>BOND
     1     2     3    1
     2     3     4    1
     3     4     5    1
     4     7     8    1
     5     8     9    1
     6     9    10    1
     7    10    11    1
     8     8    12    2
     9     5    13    1
    10    13    16    1
    11     2    16    1
    12    18    19    1
    13    19    20    2
    14    20    21    1
    15    20    22    1
    16    22    23    2
    17     3    24    1
    18    24    25    1
    19    27    28    1
    20    28    29    1
    21    28    30    2
    22    25    31    1
    23    31    32    1
    24     3    32    1
    25    34    35    1
    26    35    36    1
    27    35    37    2
    28    24    38    2
    29    38    39    1
    30    41    42    1
    31    39    43    1
    32     2    43    1
    33     1     2    1
    34     5     6    1
    35     5     7    1
    36    16    17    1
    37    16    18    1
    38    25    26    1
    39    25    27    1
    40    32    33    1
    41    32    34    1
    42    39    40    1
    43    39    41    1
    44    13    15    1
    45    13    14    1
    46     4    44    1
    47     4    45    1
    48     9    46    1
    49     9    47    1
    50    10    48    1
    51    10    49    1
    52    11    50    1
    53    11    51    1
    54    11    52    1
    55    15    53    1
    56    15    54    1
    57    15    55    1
    58    17    56    1
    59    17    57    1
    60    17    58    1
    61    18    59    1
    62    18    60    1
    63    19    61    1
    64    21    62    1
    65    21    63    1
    66    21    64    1
    67    22    65    1
    68    23    66    1
    69    23    67    1
    70    29    68    1
    71    29    69    1
    72    29    70    1
    73    36    71    1
    74    36    72    1
    75    36    73    1
    76    38    74    1
    77    42    75    1
    78    42    76    1
    79    42    77    1
    80    43    78    1
    81    43    79    1
