@<TRIPOS>MOLECULE
NuBBE_1095
 69 74 0 0 0
SMALL
GASTEIGER

@<TRIPOS>ATOM
      1 C          -1.1434    0.0071    1.4087 C.3     1  LIG1       -0.0531
      2 C           0.0411   -0.1348    0.4286 C.3     1  LIG1        0.0412
      3 C           0.5549   -1.6480    0.3461 C.3     1  LIG1        0.1250
      4 C          -0.3255   -2.7046   -0.2878 C.3     1  LIG1        0.0419
      5 C           0.5106   -3.9088   -0.8550 C.3     1  LIG1       -0.0531
      6 C          -1.2112   -3.3063    0.8988 C.3     1  LIG1        0.1391
      7 H          -1.1510   -4.4027    0.8465 H       1  LIG1        0.0793
      8 O          -0.6917   -3.0181    2.2748 O.3     1  LIG1       -0.4539
      9 C           0.5196   -2.4534    2.5770 C.2     1  LIG1        0.3398
     10 O           0.8326   -2.0949    3.6897 O.2     1  LIG1       -0.2478
     11 C           1.4627   -2.4831    1.4482 C.3     1  LIG1        0.1858
     12 H           1.8684   -3.4713    1.3573 H       1  LIG1        0.0743
     13 O           1.9398   -1.6656    0.4117 O.3     1  LIG1       -0.3515
     14 C          -2.6974   -3.0339    0.9102 C.ar    1  LIG1        0.0310
     15 C          -3.4370   -2.3889    1.9559 C.ar    1  LIG1       -0.0172
     16 C          -4.7591   -2.4119    1.5924 C.ar    1  LIG1        0.0921
     17 O          -4.9048   -3.0718    0.4178 O.2     1  LIG1       -0.4706
     18 C          -3.6654   -3.4685    0.0255 C.ar    1  LIG1        0.0984
     19 C          -1.0118   -2.1567   -1.5627 C.3     1  LIG1       -0.0409
     20 C          -1.4877   -0.7095   -1.5434 C.3     1  LIG1       -0.0480
     21 C          -0.3700    0.2449   -1.0455 C.3     1  LIG1       -0.0204
     22 H           0.5013   -0.0190   -1.6573 H       1  LIG1        0.0316
     23 C          -0.6321    1.7710   -1.3510 C.3     1  LIG1       -0.0063
     24 C          -1.9645    2.2874   -0.7414 C.3     1  LIG1       -0.0555
     25 C           0.5369    2.6803   -0.8240 C.3     1  LIG1       -0.0164
     26 H           0.1033    3.6926   -0.7488 H       1  LIG1        0.0320
     27 C           0.9054    2.3200    0.6297 C.3     1  LIG1       -0.0105
     28 C           1.1797    0.8363    0.9106 C.3     1  LIG1        0.1117
     29 H           2.1191    0.5702    0.4273 H       1  LIG1        0.0740
     30 O           1.3259    0.6892    2.3469 O.3     1  LIG1       -0.4609
     31 C           2.5620    0.8990    2.8727 C.2     1  LIG1        0.3042
     32 O           3.5583    1.2029    2.2374 O.2     1  LIG1       -0.2512
     33 C           2.5359    0.7484    4.3667 C.3     1  LIG1        0.0332
     34 C           1.7574    2.8900   -1.8034 C.3     1  LIG1        0.0311
     35 C           2.6430    4.0567   -1.3007 C.3     1  LIG1       -0.0525
     36 C           2.6805    1.6857   -2.0358 C.3     1  LIG1       -0.0525
     37 C           1.2280    3.2886   -3.1872 C.2     1  LIG1        0.1617
     38 O           1.8363    4.0254   -3.9620 O.2     1  LIG1       -0.2921
     39 C          -0.0261    2.6755   -3.6646 C.2     1  LIG1       -0.0221
     40 C          -0.8230    1.9783   -2.8499 C.2     1  LIG1       -0.0742
     41 H          -2.0515   -0.4379    1.0195 H       1  LIG1        0.0237
     42 H          -1.3910    1.0448    1.6313 H       1  LIG1        0.0237
     43 H          -0.9440   -0.4426    2.3817 H       1  LIG1        0.0237
     44 H           0.9142   -4.5621   -0.0761 H       1  LIG1        0.0237
     45 H           1.3557   -3.5597   -1.4604 H       1  LIG1        0.0237
     46 H          -0.1138   -4.5530   -1.4866 H       1  LIG1        0.0237
     47 H          -3.0416   -1.9590    2.8680 H       1  LIG1        0.0653
     48 H          -5.6665   -2.0420    2.0507 H       1  LIG1        0.1029
     49 H          -3.6445   -4.0552   -0.8829 H       1  LIG1        0.1033
     50 H          -1.8207   -2.8151   -1.8960 H       1  LIG1        0.0273
     51 H          -0.2745   -2.1909   -2.3817 H       1  LIG1        0.0273
     52 H          -2.4106   -0.6235   -0.9679 H       1  LIG1        0.0269
     53 H          -1.7631   -0.4660   -2.5749 H       1  LIG1        0.0269
     54 H          -1.9034    2.4768    0.3300 H       1  LIG1        0.0238
     55 H          -2.7977    1.5999   -0.9162 H       1  LIG1        0.0238
     56 H          -2.2533    3.2501   -1.1854 H       1  LIG1        0.0238
     57 H           0.1014    2.6619    1.2946 H       1  LIG1        0.0304
     58 H           1.7623    2.9106    0.9692 H       1  LIG1        0.0304
     59 H           1.5532    0.4163    4.7139 H       1  LIG1        0.0342
     60 H           2.7554    1.7148    4.8275 H       1  LIG1        0.0342
     61 H           3.2764    0.0036    4.6682 H       1  LIG1        0.0342
     62 H           2.0486    4.9617   -1.1321 H       1  LIG1        0.0239
     63 H           3.4194    4.3170   -2.0307 H       1  LIG1        0.0239
     64 H           3.1628    3.8063   -0.3712 H       1  LIG1        0.0239
     65 H           3.1885    1.3718   -1.1224 H       1  LIG1        0.0239
     66 H           3.4723    1.9418   -2.7524 H       1  LIG1        0.0239
     67 H           2.1605    0.8313   -2.4720 H       1  LIG1        0.0239
     68 H          -0.2624    2.8259   -4.7123 H       1  LIG1        0.0649
     69 H          -1.7331    1.5749   -3.2937 H       1  LIG1        0.0579
@<TRIPOS>BOND
     1     2     3    1
     2     3     4    1
     3     4     6    1
     4     6     8    1
     5     8     9    1
     6     9    11    1
     7     3    11    1
     8    11    13    1
     9     3    13    1
    10    14    15   ar
    11    15    16   ar
    12    16    17   ar
    13    17    18   ar
    14    14    18   ar
    15     4    19    1
    16    19    20    1
    17    20    21    1
    18     2    21    1
    19    21    23    1
    20    23    25    1
    21    25    27    1
    22    27    28    1
    23     2    28    1
    24    30    31    1
    25    31    32    2
    26    31    33    1
    27    25    34    1
    28    34    37    1
    29    37    39    1
    30    39    40    2
    31    23    40    1
    32     1     2    1
    33     4     5    1
    34     6     7    1
    35     6    14    1
    36     9    10    2
    37    11    12    1
    38    21    22    1
    39    23    24    1
    40    25    26    1
    41    28    29    1
    42    28    30    1
    43    34    35    1
    44    34    36    1
    45    37    38    2
    46     1    41    1
    47     1    42    1
    48     1    43    1
    49     5    44    1
    50     5    45    1
    51     5    46    1
    52    15    47    1
    53    16    48    1
    54    18    49    1
    55    19    50    1
    56    19    51    1
    57    20    52    1
    58    20    53    1
    59    24    54    1
    60    24    55    1
    61    24    56    1
    62    27    57    1
    63    27    58    1
    64    33    59    1
    65    33    60    1
    66    33    61    1
    67    35    62    1
    68    35    63    1
    69    35    64    1
    70    36    65    1
    71    36    66    1
    72    36    67    1
    73    39    68    1
    74    40    69    1
