REMARK  Name = NuBBE_180
REMARK  5 active torsions:
REMARK  status: ('A' for Active; 'I' for Inactive)
REMARK    1  A    between atoms: O_1  and  C_2
REMARK    2  A    between atoms: C_8  and  C_9
REMARK    3  A    between atoms: C_12  and  O_13
REMARK    4  A    between atoms: O_13  and  C_14
REMARK    5  A    between atoms: C_15  and  O_16
REMARK                            x       y       z     vdW  Elec       q    Type
REMARK                         _______ _______ _______ _____ _____    ______ ____
ROOT
ATOM      1  C   LIG A   1      -4.414   2.395  -0.150  0.00  0.00    +0.120 A 
ATOM      2  C   LIG A   1      -3.514   1.332  -0.129  0.00  0.00    +0.092 A 
ATOM      3  C   LIG A   1      -2.148   1.599  -0.029  0.00  0.00    +0.143 A 
ATOM      4  C   LIG A   1      -1.700   2.916   0.050  0.00  0.00    +0.064 A 
ATOM      5  C   LIG A   1      -0.256   3.162   0.153  0.00  0.00    +0.193 A 
ATOM      6  C   LIG A   1       0.613   1.975   0.170  0.00  0.00    +0.098 A 
ATOM      7  C   LIG A   1       0.069   0.752   0.079  0.00  0.00    +0.139 A 
ATOM      8  O   LIG A   1      -1.298   0.520  -0.015  0.00  0.00    -0.455 OA
ATOM      9  O   LIG A   1       0.217   4.288   0.219  0.00  0.00    -0.287 OA
ATOM     10  C   LIG A   1      -2.606   3.979   0.030  0.00  0.00    +0.019 A 
ATOM     11  C   LIG A   1      -3.972   3.713  -0.071  0.00  0.00    +0.046 A 
ENDROOT
BRANCH   7  12
ATOM     12  C   LIG A   1       0.896  -0.476   0.089  0.00  0.00    +0.021 A 
ATOM     13  C   LIG A   1       2.183  -0.504  -0.478  0.00  0.00    +0.015 A 
ATOM     14  C   LIG A   1       2.962  -1.670  -0.471  0.00  0.00    +0.050 A 
ATOM     15  C   LIG A   1       2.461  -2.840   0.092  0.00  0.00    +0.161 A 
ATOM     16  C   LIG A   1       1.178  -2.815   0.648  0.00  0.00    +0.159 A 
ATOM     17  C   LIG A   1       0.400  -1.660   0.649  0.00  0.00    +0.060 A 
BRANCH  15  18
ATOM     18  O   LIG A   1       3.104  -4.048   0.155  0.00  0.00    -0.491 OA
ATOM     19  C   LIG A   1       4.409  -4.102  -0.413  0.00  0.00    +0.277 C 
ENDBRANCH  15  18
BRANCH  16  20
ATOM     20  O   LIG A   1       0.653  -3.947   1.214  0.00  0.00    -0.503 OA
ATOM     21  H   LIG A   1       1.351  -4.624   1.118  0.00  0.00    +0.292 HD
ENDBRANCH  16  20
ENDBRANCH   7  12
BRANCH   1  22
ATOM     22  O   LIG A   1      -5.758   2.187  -0.250  0.00  0.00    -0.507 OA
ATOM     23  H   LIG A   1      -5.928   1.232  -0.302  0.00  0.00    +0.292 HD
ENDBRANCH   1  22
TORSDOF 4
