@<TRIPOS>MOLECULE
NuBBE_2517
 46 49 0 0 0
SMALL
GASTEIGER

@<TRIPOS>ATOM
      1 C          -2.9538    0.9017    1.6450 C.3     1  LIG1       -0.0263
      2 C          -4.0798    0.6817    0.6625 C.2     1  LIG1       -0.0905
      3 C          -5.2040    0.0113    0.9458 C.2     1  LIG1       -0.1026
      4 C          -1.5332    0.9256    1.0190 C.3     1  LIG1        0.0103
      5 C          -1.0879   -0.3855    0.2837 C.3     1  LIG1       -0.0279
      6 H          -1.3159   -0.2739   -0.7791 H       1  LIG1        0.0310
      7 C          -1.7678   -1.6854    0.7273 C.3     1  LIG1       -0.0612
      8 C           0.4486   -0.5052    0.5651 C.3     1  LIG1       -0.0046
      9 H           0.5599   -1.2905    1.3310 H       1  LIG1        0.0356
     10 C           0.8348    0.8089    1.2815 C.3     1  LIG1        0.0255
     11 H           1.6852    0.6642    1.9604 H       1  LIG1        0.0361
     12 C          -0.4395    1.0851    2.0986 C.3     1  LIG1        0.0679
     13 O          -0.4784    2.3561    2.7193 O.3     1  LIG1       -0.3908
     14 C           1.1560    1.9760    0.3451 C.3     1  LIG1        0.1187
     15 H           1.9900    1.7187   -0.3160 H       1  LIG1        0.0676
     16 C          -0.0411    2.3767   -0.5008 C.2     1  LIG1        0.1625
     17 O           0.1214    3.0175   -1.5488 O.2     1  LIG1       -0.2946
     18 C          -1.4296    2.1402    0.0482 C.3     1  LIG1        0.0170
     19 O           1.5627    3.1012    1.1304 O.3     1  LIG1       -0.3839
     20 C           1.3378   -0.9487   -0.5816 C.ar    1  LIG1       -0.0399
     21 C           2.5242   -1.6505   -0.2854 C.ar    1  LIG1       -0.0127
     22 C           3.3167   -2.0887   -1.3292 C.ar    1  LIG1        0.1665
     23 C           2.9841   -1.8512   -2.6391 C.ar    1  LIG1        0.1662
     24 C           1.8437   -1.1629   -2.9768 C.ar    1  LIG1       -0.0159
     25 C           1.0205   -0.7083   -1.9394 C.ar    1  LIG1       -0.0546
     26 O           3.8882   -2.3681   -3.5117 O.3     1  LIG1       -0.4526
     27 C           4.8318   -2.9650   -2.5994 C.3     1  LIG1        0.2332
     28 O           4.4749   -2.7926   -1.2107 O.3     1  LIG1       -0.4526
     29 H          -2.9960    0.1365    2.4310 H       1  LIG1        0.0314
     30 H          -3.1387    1.8603    2.1470 H       1  LIG1        0.0314
     31 H          -3.9834    1.0920   -0.3392 H       1  LIG1        0.0566
     32 H          -5.3897   -0.4114    1.9277 H       1  LIG1        0.0532
     33 H          -5.9751   -0.1152    0.1908 H       1  LIG1        0.0532
     34 H          -1.6988   -1.8319    1.8098 H       1  LIG1        0.0233
     35 H          -1.2952   -2.5454    0.2395 H       1  LIG1        0.0233
     36 H          -2.8214   -1.7053    0.4414 H       1  LIG1        0.0233
     37 H          -0.5546    0.3312    2.8875 H       1  LIG1        0.0603
     38 H           0.3843    2.8025    2.5784 H       1  LIG1        0.2098
     39 H          -2.0879    2.0027   -0.8140 H       1  LIG1        0.0349
     40 H          -1.7359    3.0652    0.5575 H       1  LIG1        0.0349
     41 H           1.8022    3.8003    0.4886 H       1  LIG1        0.2104
     42 H           2.8159   -1.8711    0.7371 H       1  LIG1        0.0658
     43 H           1.5871   -0.9832   -4.0150 H       1  LIG1        0.0655
     44 H           0.1242   -0.1663   -2.2288 H       1  LIG1        0.0622
     45 H           5.8157   -2.5120   -2.7678 H       1  LIG1        0.1166
     46 H           4.8975   -4.0375   -2.8167 H       1  LIG1        0.1166
@<TRIPOS>BOND
     1     1     2    1
     2     2     3    2
     3     1     4    1
     4     4     5    1
     5     5     8    1
     6     8    10    1
     7    10    11    1
     8    10    12    1
     9     4    12    1
    10    12    13    1
    11    10    14    1
    12    14    15    1
    13    14    16    1
    14    16    17    2
    15    16    18    1
    16     4    18    1
    17    14    19    1
    18    20    21   ar
    19    21    22   ar
    20    22    23   ar
    21    23    24   ar
    22    24    25   ar
    23    20    25   ar
    24    23    26    1
    25    26    27    1
    26    27    28    1
    27    22    28    1
    28     8    20    1
    29     8     9    1
    30     5     7    1
    31     5     6    1
    32     1    29    1
    33     1    30    1
    34     2    31    1
    35     3    32    1
    36     3    33    1
    37     7    34    1
    38     7    35    1
    39     7    36    1
    40    12    37    1
    41    13    38    1
    42    18    39    1
    43    18    40    1
    44    19    41    1
    45    21    42    1
    46    24    43    1
    47    25    44    1
    48    27    45    1
    49    27    46    1
