@<TRIPOS>MOLECULE
NuBBE_1477
 44 47 0 0 0
SMALL
GASTEIGER

@<TRIPOS>ATOM
      1 O          -2.3744   -2.2482    2.1910 O.2     1  LIG1       -0.2865
      2 C          -1.4387   -2.1501    1.4024 C.ar    1  LIG1        0.1973
      3 C          -1.0745   -0.8358    0.8305 C.ar    1  LIG1        0.0502
      4 C          -0.0683   -0.7690   -0.1475 C.ar    1  LIG1        0.0989
      5 C           0.3073    0.5240   -0.5766 C.ar    1  LIG1        0.1863
      6 O           1.3585    0.6879   -1.4561 O.3     1  LIG1       -0.4895
      7 C           2.5692    0.8888   -0.7247 C.3     1  LIG1        0.0791
      8 C          -0.3687    1.6795   -0.1338 C.ar    1  LIG1        0.1723
      9 O           0.0493    2.8792   -0.6444 O.3     1  LIG1       -0.4779
     10 C          -0.6048    4.0955   -0.2355 C.3     1  LIG1        0.1237
     11 C          -1.1630    4.7377   -1.5107 C.3     1  LIG1       -0.0215
     12 C           0.4889    4.9913    0.3581 C.3     1  LIG1       -0.0215
     13 C          -1.7182    3.9361    0.7729 C.2     1  LIG1       -0.0409
     14 C          -2.0981    2.7542    1.2643 C.2     1  LIG1       -0.0512
     15 C          -1.4005    1.5683    0.7972 C.ar    1  LIG1        0.0210
     16 C          -1.7434    0.3095    1.2900 C.ar    1  LIG1       -0.0380
     17 N           0.5344   -1.9683   -0.5995 N.ar    1  LIG1       -0.3370
     18 C           0.9508   -2.0098   -2.0090 C.3     1  LIG1        0.0126
     19 C           0.3523   -3.2170    0.0437 C.ar    1  LIG1        0.0950
     20 C          -0.6334   -3.3360    1.0399 C.ar    1  LIG1        0.0494
     21 C          -0.8764   -4.5484    1.7039 C.ar    1  LIG1       -0.0487
     22 C          -0.1141   -5.6712    1.4017 C.ar    1  LIG1       -0.0575
     23 C           0.8976   -5.5788    0.4505 C.ar    1  LIG1       -0.0181
     24 C           1.1326   -4.3656   -0.2105 C.ar    1  LIG1        0.1409
     25 O           2.1822   -4.3064   -1.0934 O.3     1  LIG1       -0.5047
     26 H           2.5365    1.8167   -0.1436 H       1  LIG1        0.0660
     27 H           3.3851    0.9732   -1.4487 H       1  LIG1        0.0660
     28 H           2.7864    0.0380   -0.0695 H       1  LIG1        0.0660
     29 H          -0.3720    4.8744   -2.2575 H       1  LIG1        0.0271
     30 H          -1.6215    5.7129   -1.3129 H       1  LIG1        0.0271
     31 H          -1.9167    4.0909   -1.9758 H       1  LIG1        0.0271
     32 H           1.3087    5.1323   -0.3564 H       1  LIG1        0.0271
     33 H           0.9329    4.5277    1.2474 H       1  LIG1        0.0271
     34 H           0.1047    5.9778    0.6400 H       1  LIG1        0.0271
     35 H          -2.2280    4.8365    1.1059 H       1  LIG1        0.0611
     36 H          -2.9008    2.6630    1.9873 H       1  LIG1        0.0623
     37 H          -2.5294    0.2066    2.0358 H       1  LIG1        0.0632
     38 H           0.4400   -1.2549   -2.6188 H       1  LIG1        0.0456
     39 H           0.6833   -2.9568   -2.4935 H       1  LIG1        0.0456
     40 H           2.0321   -1.8598   -2.0951 H       1  LIG1        0.0456
     41 H          -1.6562   -4.6112    2.4604 H       1  LIG1        0.0625
     42 H          -0.2998   -6.6098    1.9176 H       1  LIG1        0.0619
     43 H           1.4993   -6.4584    0.2399 H       1  LIG1        0.0655
     44 H           2.6686   -5.1462   -1.0670 H       1  LIG1        0.2922
@<TRIPOS>BOND
     1     1     2    2
     2     2     3   ar
     3     3     4   ar
     4     4     5   ar
     5     5     6    1
     6     6     7    1
     7     5     8   ar
     8     8     9    1
     9     9    10    1
    10    10    11    1
    11    10    12    1
    12    10    13    1
    13    13    14    2
    14     8    15   ar
    15    14    15    1
    16    15    16   ar
    17     3    16   ar
    18     4    17   ar
    19    17    18    1
    20    17    19   ar
    21    19    20   ar
    22     2    20   ar
    23    20    21   ar
    24    21    22   ar
    25    22    23   ar
    26    23    24   ar
    27    19    24   ar
    28    24    25    1
    29     7    26    1
    30     7    27    1
    31     7    28    1
    32    11    29    1
    33    11    30    1
    34    11    31    1
    35    12    32    1
    36    12    33    1
    37    12    34    1
    38    13    35    1
    39    14    36    1
    40    16    37    1
    41    18    38    1
    42    18    39    1
    43    18    40    1
    44    21    41    1
    45    22    42    1
    46    23    43    1
    47    25    44    1
