REMARK  Name = NuBBE_2304
REMARK  2 active torsions:
REMARK  status: ('A' for Active; 'I' for Inactive)
REMARK    1  A    between atoms: C_1  and  O_26
REMARK    2  A    between atoms: C_14  and  C_16
REMARK                            x       y       z     vdW  Elec       q    Type
REMARK                         _______ _______ _______ _____ _____    ______ ____
ROOT
ATOM      1  C   LIG A   1       3.900  -0.105  -0.186  0.00  0.00    +0.139 A 
ATOM      2  C   LIG A   1       4.283  -1.238  -0.908  0.00  0.00    +0.047 A 
ATOM      3  C   LIG A   1       3.331  -2.165  -1.333  0.00  0.00    +0.004 A 
ATOM      4  C   LIG A   1       1.989  -1.981  -1.011  0.00  0.00    +0.006 A 
ATOM      5  C   LIG A   1       1.611  -0.861  -0.267  0.00  0.00    -0.013 A 
ATOM      6  C   LIG A   1       0.228  -0.536   0.293  0.00  0.00    +0.036 C 
ATOM      7  C   LIG A   1      -0.919  -0.845  -0.667  0.00  0.00    +0.075 C 
ATOM      8  C   LIG A   1      -1.977   0.263  -0.827  0.00  0.00    -0.013 C 
ATOM      9  C   LIG A   1      -1.254   1.480  -1.431  0.00  0.00    +0.010 C 
ATOM     10  C   LIG A   1       0.073   1.827  -0.722  0.00  0.00    +0.028 C 
ATOM     11  C   LIG A   1       0.403   1.000   0.577  0.00  0.00    +0.053 C 
ATOM     12  N   LIG A   1       1.906   1.153   0.846  0.00  0.00    -0.261 N 
ATOM     13  C   LIG A   1       2.554   0.098   0.126  0.00  0.00    +0.082 A 
ATOM     14  C   LIG A   1       2.561   2.330   1.171  0.00  0.00    +0.217 C 
ATOM     15  O   LIG A   1       3.546   2.756   0.561  0.00  0.00    -0.276 OA
ATOM     16  C   LIG A   1       2.104   3.073   2.396  0.00  0.00    +0.110 C 
ATOM     17  C   LIG A   1      -0.502   1.506   1.719  0.00  0.00    +0.027 C 
ATOM     18  C   LIG A   1      -1.979   1.700   1.394  0.00  0.00    +0.003 C 
ATOM     19  C   LIG A   1      -2.668   0.662   0.520  0.00  0.00    +0.008 C 
ATOM     20  C   LIG A   1      -3.098  -0.293  -1.785  0.00  0.00    +0.009 C 
ATOM     21  C   LIG A   1      -2.922  -1.778  -2.180  0.00  0.00    +0.016 C 
ATOM     22  C   LIG A   1      -2.469  -2.695  -1.025  0.00  0.00    +0.085 C 
ATOM     23  N   LIG A   1      -1.631  -1.976  -0.093  0.00  0.00    -0.298 NA
ATOM     24  C   LIG A   1      -0.782  -2.685   0.833  0.00  0.00    +0.086 C 
ATOM     25  C   LIG A   1      -0.024  -1.513   1.470  0.00  0.00    +0.030 C 
ENDROOT
BRANCH   1  26
ATOM     26  O   LIG A   1       4.925   0.725   0.158  0.00  0.00    -0.505 OA
ATOM     27  H   LIG A   1       4.549   1.625   0.272  0.00  0.00    +0.292 HD
ENDBRANCH   1  26
TORSDOF 1
