@<TRIPOS>MOLECULE
NuBBE_2454
 72 73 0 0 0
SMALL
GASTEIGER

@<TRIPOS>ATOM
      1 C           0.7082    3.7096   -0.6976 C.3     1  LIG1        0.0790
      2 O           2.1256    3.6240   -0.4903 O.3     1  LIG1       -0.4914
      3 C           2.5493    2.7602    0.4862 C.ar    1  LIG1        0.1625
      4 C           1.6706    1.7758    1.0118 C.ar    1  LIG1       -0.0131
      5 C           1.9920    0.9325    2.0546 C.ar    1  LIG1       -0.0433
      6 C           1.1593   -0.3939    2.2516 C.3     1  LIG1       -0.0213
      7 C           0.1566   -1.0497    1.1398 C.3     1  LIG1        0.0035
      8 H          -0.6300   -0.2984    0.9963 H       1  LIG1        0.0341
      9 C          -0.5442   -2.3159    1.7419 C.3     1  LIG1        0.0959
     10 O          -1.2073   -2.0912    3.0045 O.3     1  LIG1       -0.4645
     11 C          -2.5623   -2.2504    3.0254 C.2     1  LIG1        0.3040
     12 C          -2.9834   -3.1724    4.1354 C.3     1  LIG1        0.0332
     13 O          -3.3421   -1.7531    2.2281 O.2     1  LIG1       -0.2512
     14 C           0.7336   -1.3822   -0.3222 C.3     1  LIG1        0.0035
     15 H           1.1430   -0.4379   -0.6937 H       1  LIG1        0.0341
     16 C          -0.3276   -1.8187   -1.4002 C.3     1  LIG1       -0.0213
     17 C          -1.5743   -0.9829   -1.6174 C.ar    1  LIG1       -0.0433
     18 C          -2.7448   -1.3456   -0.9546 C.ar    1  LIG1       -0.0131
     19 C          -4.0079   -0.8471   -1.3056 C.ar    1  LIG1        0.1625
     20 O          -5.1525   -1.3755   -0.7548 O.3     1  LIG1       -0.4914
     21 C          -5.0560   -2.7802   -0.4775 C.3     1  LIG1        0.0790
     22 C          -4.0933    0.1640   -2.2716 C.ar    1  LIG1        0.1730
     23 C          -2.9166    0.6487   -2.8487 C.ar    1  LIG1       -0.0153
     24 C          -1.6731    0.0481   -2.5535 C.ar    1  LIG1       -0.0549
     25 O          -5.3941    0.5714   -2.7018 O.3     1  LIG1       -0.4223
     26 C          -5.7074    1.1490   -3.9454 C.2     1  LIG1        0.3093
     27 C          -7.1969    1.1167   -4.1720 C.3     1  LIG1        0.0336
     28 O          -4.9164    1.5530   -4.7887 O.2     1  LIG1       -0.2507
     29 C           1.8637   -2.4676   -0.4159 C.3     1  LIG1        0.0959
     30 O           2.9264   -2.2720    0.4855 O.3     1  LIG1       -0.4645
     31 C           3.9446   -1.5146   -0.0231 C.2     1  LIG1        0.3040
     32 C           4.3225   -0.5997    1.0570 C.3     1  LIG1        0.0332
     33 O           4.2765   -1.3398   -1.1236 O.2     1  LIG1       -0.2512
     34 C           3.2398    1.2093    2.6898 C.ar    1  LIG1       -0.0549
     35 C           4.2193    2.0394    2.0520 C.ar    1  LIG1       -0.0153
     36 C           3.8853    2.8119    0.9369 C.ar    1  LIG1        0.1730
     37 O           4.9036    3.4622    0.1582 O.3     1  LIG1       -0.4223
     38 C           6.1685    3.8029    0.6786 C.2     1  LIG1        0.3093
     39 C           7.0577    4.4306   -0.3587 C.3     1  LIG1        0.0336
     40 O           6.5577    3.6179    1.8272 O.2     1  LIG1       -0.2507
     41 H           0.0672    2.9808   -0.2039 H       1  LIG1        0.0660
     42 H           0.5189    3.5756   -1.7628 H       1  LIG1        0.0660
     43 H           0.3318    4.6696   -0.3381 H       1  LIG1        0.0660
     44 H           0.7168    1.5554    0.5633 H       1  LIG1        0.0658
     45 H           0.5649   -0.2126    3.1500 H       1  LIG1        0.0317
     46 H           1.8351   -1.2128    2.5299 H       1  LIG1        0.0317
     47 H           0.2039   -3.0883    1.9511 H       1  LIG1        0.0700
     48 H          -1.2376   -2.7888    1.0418 H       1  LIG1        0.0700
     49 H          -2.1186   -3.7137    4.5298 H       1  LIG1        0.0342
     50 H          -3.6790   -3.9214    3.7394 H       1  LIG1        0.0342
     51 H          -3.4605   -2.6091    4.9387 H       1  LIG1        0.0342
     52 H          -0.6390   -2.8619   -1.2152 H       1  LIG1        0.0317
     53 H           0.1790   -1.8920   -2.3770 H       1  LIG1        0.0317
     54 H          -2.6663   -2.0873   -0.1779 H       1  LIG1        0.0658
     55 H          -4.2800   -3.0334    0.2514 H       1  LIG1        0.0660
     56 H          -4.8820   -3.3370   -1.4055 H       1  LIG1        0.0660
     57 H          -5.9914   -3.1208   -0.0296 H       1  LIG1        0.0660
     58 H          -2.9418    1.4471   -3.5837 H       1  LIG1        0.0656
     59 H          -0.7993    0.3696   -3.1140 H       1  LIG1        0.0621
     60 H          -7.4536    0.2272   -4.7554 H       1  LIG1        0.0342
     61 H          -7.5124    2.0090   -4.7237 H       1  LIG1        0.0342
     62 H          -7.7384    1.1013   -3.2239 H       1  LIG1        0.0342
     63 H           2.2688   -2.5116   -1.4322 H       1  LIG1        0.0700
     64 H           1.4825   -3.4648   -0.1799 H       1  LIG1        0.0700
     65 H           4.4198    0.3507    0.5511 H       1  LIG1        0.0342
     66 H           5.0547   -0.8290    1.8128 H       1  LIG1        0.0342
     67 H           3.4064   -0.6247    1.5926 H       1  LIG1        0.0342
     68 H           3.6411    0.4849    3.4072 H       1  LIG1        0.0621
     69 H           5.2794    1.8059    2.2303 H       1  LIG1        0.0656
     70 H           6.4732    4.8537   -1.1759 H       1  LIG1        0.0342
     71 H           7.7651    3.6906   -0.7447 H       1  LIG1        0.0342
     72 H           7.6180    5.2500    0.1098 H       1  LIG1        0.0342
@<TRIPOS>BOND
     1     1     2    1
     2     2     3    1
     3     3     4   ar
     4     4     5   ar
     5     5     6    1
     6     7     9    1
     7     9    10    1
     8    10    11    1
     9    11    12    1
    10    11    13    2
    11    14    16    1
    12    16    17    1
    13    17    18   ar
    14    18    19   ar
    15    19    20    1
    16    20    21    1
    17    19    22   ar
    18    22    23   ar
    19    23    24   ar
    20    17    24   ar
    21    22    25    1
    22    25    26    1
    23    26    27    1
    24    26    28    2
    25    14    29    1
    26    29    30    1
    27    30    31    1
    28    31    32    1
    29    31    33    2
    30     5    34   ar
    31    34    35   ar
    32    35    36   ar
    33     3    36   ar
    34    36    37    1
    35    37    38    1
    36    38    39    1
    37    38    40    2
    38     7     8    1
    39     7     6    1
    40    14    15    1
    41    14     7    1
    42     1    41    1
    43     1    42    1
    44     1    43    1
    45     4    44    1
    46     6    45    1
    47     6    46    1
    48     9    47    1
    49     9    48    1
    50    12    49    1
    51    12    50    1
    52    12    51    1
    53    16    52    1
    54    16    53    1
    55    18    54    1
    56    21    55    1
    57    21    56    1
    58    21    57    1
    59    23    58    1
    60    24    59    1
    61    27    60    1
    62    27    61    1
    63    27    62    1
    64    29    63    1
    65    29    64    1
    66    32    65    1
    67    32    66    1
    68    32    67    1
    69    34    68    1
    70    35    69    1
    71    39    70    1
    72    39    71    1
    73    39    72    1
