REMARK  Name = NuBBE_1112
REMARK  13 active torsions:
REMARK  status: ('A' for Active; 'I' for Inactive)
REMARK    1  A    between atoms: C_1  and  C_2
REMARK    2  A    between atoms: C_5  and  O_7
REMARK    3  A    between atoms: C_18  and  C_19
REMARK    4  A    between atoms: C_23  and  C_25
REMARK    5  A    between atoms: C_25  and  C_27
REMARK    6  A    between atoms: C_25  and  C_28
REMARK    7  A    between atoms: C_28  and  C_29
REMARK    8  A    between atoms: C_29  and  C_30
REMARK    9  A    between atoms: C_30  and  C_32
REMARK   10  A    between atoms: C_30  and  C_34
REMARK   11  A    between atoms: C_32  and  C_33
REMARK   12  A    between atoms: C_34  and  C_35
REMARK   13  A    between atoms: C_34  and  C_36
REMARK                            x       y       z     vdW  Elec       q    Type
REMARK                         _______ _______ _______ _____ _____    ______ ____
ROOT
ATOM      1  C   LIG A   1      -4.266   4.147   1.430  0.00  0.00    +0.016 C 
ATOM      2  C   LIG A   1      -2.748   3.890   1.607  0.00  0.00    -0.007 C 
ATOM      3  C   LIG A   1      -2.569   3.156   2.938  0.00  0.00    -0.058 C 
ATOM      4  C   LIG A   1      -2.405   3.968   4.208  0.00  0.00    +0.062 C 
ATOM      5  C   LIG A   1      -1.573   5.239   4.040  0.00  0.00    +0.119 C 
ATOM      6  C   LIG A   1      -2.113   6.070   2.882  0.00  0.00    +0.032 C 
ATOM      7  C   LIG A   1      -2.034   5.279   1.576  0.00  0.00    +0.013 C 
ATOM      8  C   LIG A   1      -2.655   1.820   3.029  0.00  0.00    +0.046 C 
ATOM      9  C   LIG A   1      -2.955   0.956   1.863  0.00  0.00    +0.160 C 
ATOM     10  C   LIG A   1      -2.854   1.543   0.452  0.00  0.00    +0.067 C 
ATOM     11  C   LIG A   1      -2.221   2.971   0.426  0.00  0.00    +0.010 C 
ATOM     12  C   LIG A   1      -0.665   2.938   0.348  0.00  0.00    +0.005 C 
ATOM     13  C   LIG A   1      -0.067   1.922  -0.624  0.00  0.00    +0.007 C 
ATOM     14  C   LIG A   1      -0.615   0.508  -0.406  0.00  0.00    -0.025 C 
ATOM     15  C   LIG A   1      -0.188  -0.058   0.968  0.00  0.00    +0.012 C 
ATOM     16  C   LIG A   1      -2.149   0.632  -0.574  0.00  0.00    +0.006 C 
ATOM     17  C   LIG A   1      -2.606  -0.805  -0.776  0.00  0.00    +0.005 C 
ATOM     18  C   LIG A   1      -1.492  -1.428  -1.631  0.00  0.00    +0.004 C 
ATOM     19  C   LIG A   1      -0.256  -0.484  -1.561  0.00  0.00    -0.002 C 
ATOM     20  O   LIG A   1      -3.326  -0.183   2.090  0.00  0.00    -0.292 OA
ENDROOT
BRANCH   5  21
ATOM     21  O   LIG A   1      -0.202   4.922   3.799  0.00  0.00    -0.392 OA
ATOM     22  H   LIG A   1       0.091   4.303   4.489  0.00  0.00    +0.210 HD
ENDBRANCH   5  21
BRANCH  19  23
ATOM     23  C   LIG A   1       1.097  -1.268  -1.477  0.00  0.00    -0.010 C 
ATOM     24  C   LIG A   1       2.317  -0.345  -1.331  0.00  0.00    +0.008 C 
BRANCH  23  25
ATOM     25  C   LIG A   1       1.284  -2.183  -2.720  0.00  0.00    +0.004 C 
BRANCH  25  26
ATOM     26  C   LIG A   1       2.602  -2.991  -2.774  0.00  0.00    +0.004 C 
BRANCH  26  27
ATOM     27  C   LIG A   1       2.811  -3.999  -1.611  0.00  0.00    -0.009 C 
BRANCH  27  28
ATOM     28  C   LIG A   1       4.220  -4.673  -1.614  0.00  0.00    -0.014 C 
ATOM     29  C   LIG A   1       4.555  -5.412  -2.910  0.00  0.00    +0.007 C 
ATOM     30  C   LIG A   1       5.353  -3.699  -1.267  0.00  0.00    +0.007 C 
ENDBRANCH  27  28
BRANCH  27  31
ATOM     31  C   LIG A   1       1.658  -5.036  -1.619  0.00  0.00    +0.000 C 
ATOM     32  C   LIG A   1       1.751  -6.108  -0.544  0.00  0.00    +0.004 C 
ENDBRANCH  27  31
ENDBRANCH  26  27
ENDBRANCH  25  26
ENDBRANCH  23  25
ENDBRANCH  19  23
TORSDOF 7
