REMARK  Name = NuBBE_343
REMARK  10 active torsions:
REMARK  status: ('A' for Active; 'I' for Inactive)
REMARK    1  A    between atoms: C_2  and  O_3
REMARK    2  A    between atoms: C_2  and  C_4
REMARK    3  A    between atoms: C_4  and  C_5
REMARK    4  A    between atoms: C_5  and  C_6
REMARK    5  A    between atoms: C_8  and  O_9
REMARK    6  A    between atoms: O_9  and  C_10
REMARK    7  A    between atoms: C_11  and  O_12
REMARK    8  A    between atoms: O_12  and  C_13
REMARK    9  A    between atoms: C_14  and  O_15
REMARK   10  A    between atoms: O_15  and  C_16
REMARK                            x       y       z     vdW  Elec       q    Type
REMARK                         _______ _______ _______ _____ _____    ______ ____
ROOT
ATOM      1  C   LIG A   1       0.448   1.369   0.090  0.00  0.00    -0.040 A 
ATOM      2  C   LIG A   1       1.582   0.582   0.291  0.00  0.00    +0.053 A 
ATOM      3  C   LIG A   1       1.476  -0.786   0.606  0.00  0.00    +0.165 A 
ATOM      4  C   LIG A   1       0.203  -1.384   0.730  0.00  0.00    +0.203 A 
ATOM      5  C   LIG A   1      -0.941  -0.574   0.592  0.00  0.00    +0.165 A 
ATOM      6  C   LIG A   1      -0.808   0.769   0.220  0.00  0.00    +0.053 A 
ENDROOT
BRANCH   3   7
ATOM      7  O   LIG A   1       2.713  -1.362   0.778  0.00  0.00    -0.491 OA
ATOM      8  C   LIG A   1       2.791  -2.748   1.077  0.00  0.00    +0.277 C 
ENDBRANCH   3   7
BRANCH   4   9
ATOM      9  O   LIG A   1       0.152  -2.703   1.099  0.00  0.00    -0.488 OA
ATOM     10  C   LIG A   1      -0.899  -3.525   0.604  0.00  0.00    +0.277 C 
ENDBRANCH   4   9
BRANCH   5  11
ATOM     11  O   LIG A   1      -2.168  -1.129   0.859  0.00  0.00    -0.491 OA
ATOM     12  C   LIG A   1      -3.181  -0.241   1.316  0.00  0.00    +0.277 C 
ENDBRANCH   5  11
BRANCH   1  13
ATOM     13  C   LIG A   1       0.544   2.845  -0.214  0.00  0.00    +0.046 C 
BRANCH  13  14
ATOM     14  C   LIG A   1       0.680   3.180  -1.698  0.00  0.00    +0.125 C 
BRANCH  14  16
ATOM     15  O   LIG A   1      -1.657   2.653  -2.118  0.00  0.00    -0.251 OA
ATOM     16  C   LIG A   1      -0.498   2.729  -2.526  0.00  0.00    +0.305 C 
BRANCH  16  17
ATOM     17  O   LIG A   1      -0.184   2.479  -3.813  0.00  0.00    -0.481 OA
ATOM     18  H   LIG A   1       0.762   2.599  -4.028  0.00  0.00    +0.295 HD
ENDBRANCH  16  17
ENDBRANCH  14  16
ENDBRANCH  13  14
ENDBRANCH   1  13
TORSDOF 7
