@<TRIPOS>MOLECULE
NuBBE_1793
 53 53 0 0 0
SMALL
GASTEIGER

@<TRIPOS>ATOM
      1 O           3.9769   -1.9293   -2.5834 O.2     1  LIG1       -0.2505
      2 C           3.5099   -1.0728   -1.7783 C.2     1  LIG1        0.3107
      3 O           2.6104   -1.3864   -0.8177 O.3     1  LIG1       -0.4611
      4 C           3.9320    0.3601   -1.7201 C.3     1  LIG1        0.0622
      5 C           3.8687    1.1356   -3.0448 C.3     1  LIG1       -0.0117
      6 C           2.5046    1.2641   -3.7601 C.3     1  LIG1        0.0790
      7 C           1.4187    2.1492   -3.0916 C.3     1  LIG1        0.0701
      8 O           0.9913    1.7722   -1.8162 O.3     1  LIG1       -0.3925
      9 O           2.7533    1.8558   -5.0507 O.3     1  LIG1       -0.3895
     10 C           3.0515    0.8800   -0.6174 C.3     1  LIG1       -0.0027
     11 C           1.9363   -0.1558   -0.6024 C.3     1  LIG1        0.1038
     12 C           1.1435   -0.0389    0.6649 C.3     1  LIG1       -0.0156
     13 C          -0.0717   -0.9344    0.6710 C.3     1  LIG1       -0.0497
     14 C          -1.2464   -0.6448   -0.2600 C.3     1  LIG1       -0.0529
     15 C          -2.3406   -1.7315   -0.2278 C.3     1  LIG1       -0.0531
     16 C          -3.3561   -1.9907    0.9041 C.3     1  LIG1       -0.0531
     17 C          -2.8773   -2.5832    2.2414 C.3     1  LIG1       -0.0531
     18 C          -1.9337   -1.8210    3.1768 C.3     1  LIG1       -0.0531
     19 C          -2.3429   -0.4087    3.6746 C.3     1  LIG1       -0.0533
     20 C          -2.5377    0.6009    2.5463 C.3     1  LIG1       -0.0559
     21 C          -2.9724    2.0260    2.7831 C.3     1  LIG1       -0.0653
     22 H           4.9624    0.3797   -1.3494 H       1  LIG1        0.0415
     23 H           4.5784    0.6568   -3.7389 H       1  LIG1        0.0299
     24 H           4.2843    2.1418   -2.8971 H       1  LIG1        0.0299
     25 H           2.1281    0.2527   -3.9502 H       1  LIG1        0.0616
     26 H           0.5344    2.1809   -3.7289 H       1  LIG1        0.0583
     27 H           1.8180    3.1579   -2.9746 H       1  LIG1        0.0583
     28 H           0.0515    1.9132   -1.6398 H       1  LIG1        0.2095
     29 H           2.6626    2.8222   -4.9644 H       1  LIG1        0.2099
     30 H           2.7892    1.9387   -0.7315 H       1  LIG1        0.0309
     31 H           3.5793    0.8650    0.3415 H       1  LIG1        0.0309
     32 H           1.2182   -0.1647   -1.4221 H       1  LIG1        0.0734
     33 H           0.8037    0.9937    0.8316 H       1  LIG1        0.0301
     34 H           1.7720   -0.3126    1.5216 H       1  LIG1        0.0301
     35 H          -0.4130   -0.6860    1.6482 H       1  LIG1        0.0266
     36 H           0.2178   -1.9885    0.6353 H       1  LIG1        0.0266
     37 H          -0.8730   -0.6402   -1.2906 H       1  LIG1        0.0265
     38 H          -1.6563    0.3591   -0.0975 H       1  LIG1        0.0265
     39 H          -1.8277   -2.6818   -0.3940 H       1  LIG1        0.0265
     40 H          -2.9518   -1.5395   -1.1212 H       1  LIG1        0.0265
     41 H          -4.0216   -2.7635    0.4841 H       1  LIG1        0.0265
     42 H          -4.0695   -1.1747    1.0419 H       1  LIG1        0.0265
     43 H          -2.3942   -3.5416    2.0038 H       1  LIG1        0.0265
     44 H          -3.7659   -2.8406    2.8303 H       1  LIG1        0.0265
     45 H          -0.9575   -1.8246    2.7233 H       1  LIG1        0.0265
     46 H          -1.7032   -2.4502    4.0459 H       1  LIG1        0.0265
     47 H          -1.5289   -0.0356    4.3100 H       1  LIG1        0.0265
     48 H          -3.2293   -0.4966    4.3124 H       1  LIG1        0.0265
     49 H          -3.2383    0.2205    1.8239 H       1  LIG1        0.0263
     50 H          -1.5750    0.7191    2.0666 H       1  LIG1        0.0263
     51 H          -3.7214    2.1470    3.5638 H       1  LIG1        0.0230
     52 H          -3.3971    2.4015    1.8387 H       1  LIG1        0.0230
     53 H          -2.0945    2.6443    2.9854 H       1  LIG1        0.0230
@<TRIPOS>BOND
     1     1     2    2
     2     2     3    1
     3     2     4    1
     4     4     5    1
     5     5     6    1
     6     6     7    1
     7     7     8    1
     8     6     9    1
     9     4    10    1
    10    10    11    1
    11     3    11    1
    12    11    12    1
    13    12    13    1
    14    13    14    1
    15    14    15    1
    16    15    16    1
    17    16    17    1
    18    17    18    1
    19    18    19    1
    20    19    20    1
    21    20    21    1
    22     4    22    1
    23     5    23    1
    24     5    24    1
    25     6    25    1
    26     7    26    1
    27     7    27    1
    28     8    28    1
    29     9    29    1
    30    10    30    1
    31    10    31    1
    32    11    32    1
    33    12    33    1
    34    12    34    1
    35    13    35    1
    36    13    36    1
    37    14    37    1
    38    14    38    1
    39    15    39    1
    40    15    40    1
    41    16    41    1
    42    16    42    1
    43    17    43    1
    44    17    44    1
    45    18    45    1
    46    18    46    1
    47    19    47    1
    48    19    48    1
    49    20    49    1
    50    20    50    1
    51    21    51    1
    52    21    52    1
    53    21    53    1
