REMARK  Name = NuBBE_257
REMARK  8 active torsions:
REMARK  status: ('A' for Active; 'I' for Inactive)
REMARK    1  A    between atoms: C_3  and  O_4
REMARK    2  A    between atoms: C_5  and  C_6
REMARK    3  A    between atoms: C_11  and  C_25
REMARK    4  A    between atoms: C_14  and  C_16
REMARK    5  A    between atoms: C_20  and  C_21
REMARK    6  A    between atoms: C_20  and  O_22
REMARK    7  A    between atoms: C_26  and  C_27
REMARK    8  A    between atoms: C_30  and  C_31
REMARK                            x       y       z     vdW  Elec       q    Type
REMARK                         _______ _______ _______ _____ _____    ______ ____
ROOT
ATOM      1  O   LIG A   1      -5.198  -1.839  -0.744  0.00  0.00    -0.284 OA
ATOM      2  C   LIG A   1      -4.436  -1.695   0.174  0.00  0.00    +0.221 C 
ATOM      3  C   LIG A   1      -3.637  -2.840   0.694  0.00  0.00    +0.167 C 
ATOM      4  C   LIG A   1      -2.683  -2.669   1.637  0.00  0.00    +0.002 C 
ATOM      5  C   LIG A   1      -1.996  -3.886   2.178  0.00  0.00    +0.048 C 
ATOM      6  C   LIG A   1      -2.243  -1.279   2.021  0.00  0.00    -0.014 C 
ATOM      7  C   LIG A   1      -1.115  -0.951   2.706  0.00  0.00    +0.008 C 
ATOM      8  C   LIG A   1      -0.342   0.350   2.571  0.00  0.00    +0.001 C 
ATOM      9  C   LIG A   1      -0.732   1.294   1.676  0.00  0.00    -0.053 C 
ATOM     10  C   LIG A   1       0.215   2.173   0.491  0.00  0.00    -0.004 C 
ATOM     11  C   LIG A   1       1.722   2.832   0.194  0.00  0.00    +0.012 C 
ATOM     12  C   LIG A   1       2.982   2.183  -0.489  0.00  0.00    +0.008 C 
ATOM     13  C   LIG A   1       2.758   0.914  -1.347  0.00  0.00    -0.022 C 
ATOM     14  C   LIG A   1       4.073   0.079  -1.415  0.00  0.00    +0.084 C 
ATOM     15  C   LIG A   1       2.503   1.216  -2.845  0.00  0.00    +0.012 C 
ATOM     16  C   LIG A   1       1.557   0.253  -0.593  0.00  0.00    +0.005 C 
ATOM     17  C   LIG A   1       1.512  -1.284  -0.609  0.00  0.00    +0.046 C 
ATOM     18  C   LIG A   1       2.889  -1.977  -0.520  0.00  0.00    +0.121 C 
ATOM     19  C   LIG A   1       2.720  -3.490  -0.566  0.00  0.00    +0.049 C 
ATOM     20  C   LIG A   1       3.763  -1.388  -1.613  0.00  0.00    +0.165 C 
ATOM     21  O   LIG A   1       4.220  -2.040  -2.548  0.00  0.00    -0.294 OA
ATOM     22  C   LIG A   1      -0.510   3.573   0.508  0.00  0.00    +0.016 C 
ATOM     23  C   LIG A   1       0.156   1.104  -0.751  0.00  0.00    -0.019 C 
ATOM     24  C   LIG A   1      -0.162   1.665  -2.164  0.00  0.00    +0.012 C 
ATOM     25  C   LIG A   1      -1.092   0.237  -0.632  0.00  0.00    +0.009 C 
ATOM     26  C   LIG A   1      -2.234   1.228  -0.244  0.00  0.00    +0.016 C 
ATOM     27  C   LIG A   1      -2.304   1.186   1.284  0.00  0.00    +0.015 C 
ATOM     28  C   LIG A   1      -3.217   2.182   2.030  0.00  0.00    +0.021 C 
ATOM     29  C   LIG A   1      -3.004  -0.174   1.445  0.00  0.00    -0.026 C 
ATOM     30  C   LIG A   1      -4.166  -0.378   0.778  0.00  0.00    +0.059 C 
ENDROOT
BRANCH   3  31
ATOM     31  O   LIG A   1      -3.925  -4.057   0.095  0.00  0.00    -0.503 OA
ATOM     32  H   LIG A   1      -4.534  -3.837  -0.650  0.00  0.00    +0.292 HD
ENDBRANCH   3  31
BRANCH  18  33
ATOM     33  O   LIG A   1       3.570  -1.674   0.710  0.00  0.00    -0.381 OA
ATOM     34  H   LIG A   1       4.443  -2.114   0.665  0.00  0.00    +0.211 HD
ENDBRANCH  18  33
TORSDOF 2
