@<TRIPOS>MOLECULE
NuBBE_1401
 55 56 0 0 0
SMALL
GASTEIGER

@<TRIPOS>ATOM
      1 C           2.0351   -1.1008   -1.4721 C.3     1  LIG1        0.0121
      2 C           2.1762    0.2873   -2.1761 C.3     1  LIG1        0.1637
      3 S           3.7787    0.3847   -3.1800 S.3     1  LIG1       -0.1290
      4 C           5.0735   -0.0024   -1.9631 C.3     1  LIG1       -0.0156
      5 C           2.2778    1.3618   -1.0294 C.2     1  LIG1        0.2509
      6 O           3.0778    1.2349   -0.0991 O.2     1  LIG1       -0.2722
      7 N           1.4267    2.4505   -1.0734 N.am    1  LIG1       -0.2820
      8 C           1.4180    3.3810    0.0458 C.3     1  LIG1        0.0048
      9 C           0.7129    2.8301   -2.2804 C.3     1  LIG1        0.1487
     10 H          -0.3122    3.0278   -1.9399 H       1  LIG1        0.0715
     11 C           0.5179    1.7602   -3.3757 C.2     1  LIG1        0.2476
     12 O          -0.1501    1.9922   -4.3794 O.2     1  LIG1       -0.2726
     13 N           1.0626    0.4976   -3.1428 N.am    1  LIG1       -0.2795
     14 C           0.8587   -0.4552   -4.2322 C.3     1  LIG1        0.0050
     15 S           1.2958    4.4120   -2.9948 S.3     1  LIG1       -0.1325
     16 C           3.0195    4.0153   -3.3440 C.3     1  LIG1       -0.0159
     17 C           0.8152   -1.2685   -0.5749 C.ar    1  LIG1       -0.0438
     18 C          -0.4155   -1.7340   -1.0558 C.ar    1  LIG1       -0.0550
     19 C          -1.4791   -1.9753   -0.1723 C.ar    1  LIG1       -0.0197
     20 C          -1.3394   -1.7321    1.1957 C.ar    1  LIG1        0.1210
     21 C          -0.1241   -1.2457    1.6734 C.ar    1  LIG1       -0.0197
     22 C           0.9355   -1.0065    0.7962 C.ar    1  LIG1       -0.0550
     23 O          -2.4348   -2.0057    1.9760 O.3     1  LIG1       -0.4880
     24 C          -2.4758   -1.3145    3.2262 C.3     1  LIG1        0.1080
     25 C          -3.8994   -1.1626    3.6735 C.2     1  LIG1       -0.0484
     26 C          -4.6308   -1.9207    4.5141 C.2     1  LIG1       -0.0765
     27 C          -4.1992   -3.2277    5.1174 C.3     1  LIG1       -0.0439
     28 C          -6.0215   -1.4827    4.8935 C.3     1  LIG1       -0.0439
     29 H           2.0332   -1.9256   -2.1938 H       1  LIG1        0.0347
     30 H           2.9113   -1.3009   -0.8432 H       1  LIG1        0.0347
     31 H           4.9901   -1.0277   -1.5966 H       1  LIG1        0.0341
     32 H           5.0954    0.7020   -1.1316 H       1  LIG1        0.0341
     33 H           6.0429    0.0844   -2.4656 H       1  LIG1        0.0341
     34 H           1.6580    2.8659    0.9806 H       1  LIG1        0.0429
     35 H           0.4269    3.8330    0.1437 H       1  LIG1        0.0429
     36 H           2.1702    4.1567   -0.1243 H       1  LIG1        0.0429
     37 H           1.3282   -0.0757   -5.1458 H       1  LIG1        0.0429
     38 H          -0.2168   -0.5558   -4.4128 H       1  LIG1        0.0429
     39 H           1.2598   -1.4435   -4.0093 H       1  LIG1        0.0429
     40 H           3.4758    4.8640   -3.8613 H       1  LIG1        0.0341
     41 H           3.0936    3.1462   -3.9970 H       1  LIG1        0.0341
     42 H           3.5732    3.8493   -2.4166 H       1  LIG1        0.0341
     43 H          -0.5640   -1.9354   -2.1138 H       1  LIG1        0.0621
     44 H          -2.4242   -2.3545   -0.5558 H       1  LIG1        0.0654
     45 H           0.0422   -1.0556    2.7284 H       1  LIG1        0.0654
     46 H           1.8705   -0.6280    1.2064 H       1  LIG1        0.0621
     47 H          -2.0972   -0.2908    3.1006 H       1  LIG1        0.0742
     48 H          -1.8603   -1.8231    3.9768 H       1  LIG1        0.0742
     49 H          -4.3562   -0.2526    3.2870 H       1  LIG1        0.0605
     50 H          -3.4026   -3.7118    4.5460 H       1  LIG1        0.0274
     51 H          -5.0441   -3.9276    5.1413 H       1  LIG1        0.0274
     52 H          -3.8599   -3.0822    6.1480 H       1  LIG1        0.0274
     53 H          -6.2492   -0.4746    4.5300 H       1  LIG1        0.0274
     54 H          -6.1346   -1.4695    5.9825 H       1  LIG1        0.0274
     55 H          -6.7625   -2.1674    4.4699 H       1  LIG1        0.0274
@<TRIPOS>BOND
     1     3     4    1
     2     2     5    1
     3     5     6    2
     4     5     7   am
     5     7     8    1
     6     7     9    1
     7     9    11    1
     8    11    12    2
     9    11    13   am
    10     2    13    1
    11    13    14    1
    12    15    16    1
    13     1    17    1
    14    17    18   ar
    15    18    19   ar
    16    19    20   ar
    17    20    21   ar
    18    21    22   ar
    19    17    22   ar
    20    20    23    1
    21    23    24    1
    22    24    25    1
    23    25    26    2
    24    26    27    1
    25    26    28    1
    26     9    15    1
    27     9    10    1
    28     2     3    1
    29     2     1    1
    30     1    29    1
    31     1    30    1
    32     4    31    1
    33     4    32    1
    34     4    33    1
    35     8    34    1
    36     8    35    1
    37     8    36    1
    38    14    37    1
    39    14    38    1
    40    14    39    1
    41    16    40    1
    42    16    41    1
    43    16    42    1
    44    18    43    1
    45    19    44    1
    46    21    45    1
    47    22    46    1
    48    24    47    1
    49    24    48    1
    50    25    49    1
    51    27    50    1
    52    27    51    1
    53    27    52    1
    54    28    53    1
    55    28    54    1
    56    28    55    1
