@<TRIPOS>MOLECULE
NuBBE_2116
 23 22 0 0 0
SMALL
GASTEIGER

@<TRIPOS>ATOM
      1 C          -3.5463   -0.4259    1.3231 C.3     1  LIG1       -0.0653
      2 C          -2.2106   -0.9974    0.8725 C.3     1  LIG1       -0.0559
      3 C          -1.2362    0.0994    0.4386 C.3     1  LIG1       -0.0533
      4 C           0.1050   -0.4927   -0.0018 C.3     1  LIG1       -0.0531
      5 C           1.0852    0.5918   -0.4550 C.3     1  LIG1       -0.0533
      6 C           2.4296   -0.0153   -0.8599 C.3     1  LIG1       -0.0559
      7 C           3.4141    1.0481   -1.3195 C.3     1  LIG1       -0.0653
      8 H          -4.2226   -1.2345    1.6177 H       1  LIG1        0.0230
      9 H          -4.0252    0.1385    0.5164 H       1  LIG1        0.0230
     10 H          -3.4208    0.2402    2.1824 H       1  LIG1        0.0230
     11 H          -2.3819   -1.6908    0.0414 H       1  LIG1        0.0263
     12 H          -1.7752   -1.5781    1.6944 H       1  LIG1        0.0263
     13 H          -1.0754    0.7989    1.2672 H       1  LIG1        0.0265
     14 H          -1.6740    0.6724   -0.3884 H       1  LIG1        0.0265
     15 H          -0.0578   -1.2023   -0.8213 H       1  LIG1        0.0265
     16 H           0.5447   -1.0569    0.8307 H       1  LIG1        0.0265
     17 H           1.2381    1.3137    0.3561 H       1  LIG1        0.0265
     18 H           0.6594    1.1431   -1.3029 H       1  LIG1        0.0265
     19 H           2.2838   -0.7426   -1.6666 H       1  LIG1        0.0263
     20 H           2.8608   -0.5573   -0.0095 H       1  LIG1        0.0263
     21 H           3.0472    1.5602   -2.2151 H       1  LIG1        0.0230
     22 H           4.3786    0.5911   -1.5620 H       1  LIG1        0.0230
     23 H           3.5797    1.7964   -0.5385 H       1  LIG1        0.0230
@<TRIPOS>BOND
     1     1     2    1
     2     2     3    1
     3     3     4    1
     4     4     5    1
     5     5     6    1
     6     6     7    1
     7     1     8    1
     8     1     9    1
     9     1    10    1
    10     2    11    1
    11     2    12    1
    12     3    13    1
    13     3    14    1
    14     4    15    1
    15     4    16    1
    16     5    17    1
    17     5    18    1
    18     6    19    1
    19     6    20    1
    20     7    21    1
    21     7    22    1
    22     7    23    1
