@<TRIPOS>MOLECULE
NuBBE_641
 70 70 0 0 0
SMALL
GASTEIGER

@<TRIPOS>ATOM
      1 C          -4.3250    1.5652   -1.6383 C.3     1  LIG1       -0.0438
      2 C          -2.9263    1.6904   -2.1827 C.2     1  LIG1       -0.0759
      3 C          -1.8916    0.6775   -1.6664 C.3     1  LIG1       -0.0286
      4 C          -2.0331    0.2766   -0.1807 C.3     1  LIG1       -0.0308
      5 C          -1.0092   -0.6842    0.3800 C.2     1  LIG1       -0.0847
      6 C           0.1525   -0.3549    0.9859 C.2     1  LIG1       -0.0762
      7 C           0.8916   -1.3495    1.8453 C.3     1  LIG1       -0.0286
      8 C           2.4164   -1.2086    1.9764 C.3     1  LIG1       -0.0303
      9 C           3.2245   -2.2563    2.7131 C.2     1  LIG1       -0.0738
     10 C           2.9625   -3.1927    3.6493 C.2     1  LIG1        0.0328
     11 C           1.6849   -3.4475    4.3523 C.2     1  LIG1        0.3325
     12 O           0.6509   -2.7269    3.9883 O.3     1  LIG1       -0.4773
     13 O           1.5259   -4.2883    5.2529 O.2     1  LIG1       -0.2455
     14 C           4.0253   -4.2361    3.9808 C.3     1  LIG1       -0.0178
     15 C           4.9543   -3.9818    5.1794 C.3     1  LIG1       -0.0303
     16 C           4.2829   -3.8356    6.5156 C.2     1  LIG1       -0.0850
     17 C           4.4696   -4.5985    7.6116 C.2     1  LIG1       -0.0796
     18 C           5.4114   -5.7689    7.6809 C.3     1  LIG1       -0.0440
     19 C           3.6884   -4.3174    8.8662 C.3     1  LIG1       -0.0440
     20 C           0.7057    1.0330    1.0418 C.3     1  LIG1       -0.0438
     21 C          -2.5929    2.6484   -3.0791 C.2     1  LIG1       -0.0806
     22 C          -3.5120    3.7141   -3.6459 C.3     1  LIG1       -0.0055
     23 C          -3.1390    4.1096   -5.0483 C.2     1  LIG1        0.0069
     24 C          -2.2569    5.0774   -5.3253 C.2     1  LIG1       -0.0076
     25 C          -1.8080    5.3270   -6.7059 C.2     1  LIG1        0.1826
     26 C          -2.6835    4.8434   -7.8091 C.2     1  LIG1        0.0027
     27 C          -2.3671    5.3790   -9.1744 C.3     1  LIG1       -0.0357
     28 C          -3.7019    4.0086   -7.5251 C.2     1  LIG1        0.0030
     29 C          -4.7827    3.5855   -8.4765 C.3     1  LIG1       -0.0357
     30 C          -3.7924    3.3904   -6.1675 C.2     1  LIG1        0.1858
     31 O          -4.4030    2.3436   -5.9875 O.2     1  LIG1       -0.2873
     32 O          -0.7727    5.9497   -6.9046 O.2     1  LIG1       -0.2876
     33 H          -4.3071    1.2432   -0.5982 H       1  LIG1        0.0274
     34 H          -4.9084    0.8361   -2.2089 H       1  LIG1        0.0274
     35 H          -4.8555    2.5213   -1.6210 H       1  LIG1        0.0274
     36 H          -0.8837    1.0849   -1.8175 H       1  LIG1        0.0313
     37 H          -1.9749   -0.2248   -2.2827 H       1  LIG1        0.0313
     38 H          -2.9975   -0.2306   -0.0394 H       1  LIG1        0.0310
     39 H          -2.0829    1.1696    0.4548 H       1  LIG1        0.0310
     40 H          -1.3534   -1.7200    0.4299 H       1  LIG1        0.0572
     41 H           0.6278   -2.3796    1.5707 H       1  LIG1        0.0313
     42 H           0.4738   -1.0907    2.8200 H       1  LIG1        0.0313
     43 H           2.6644   -0.2642    2.4725 H       1  LIG1        0.0311
     44 H           2.8237   -1.1318    0.9587 H       1  LIG1        0.0311
     45 H           4.2684   -2.1862    2.3864 H       1  LIG1        0.0577
     46 H          -0.1335   -3.0292    4.4779 H       1  LIG1        0.2954
     47 H           4.6710   -4.3652    3.0997 H       1  LIG1        0.0318
     48 H           3.5382   -5.2128    4.0978 H       1  LIG1        0.0318
     49 H           5.5511   -3.0822    4.9918 H       1  LIG1        0.0311
     50 H           5.6619   -4.8185    5.2105 H       1  LIG1        0.0311
     51 H           3.5621   -3.0213    6.5820 H       1  LIG1        0.0572
     52 H           6.4344   -5.4727    7.4261 H       1  LIG1        0.0274
     53 H           5.0873   -6.5675    7.0064 H       1  LIG1        0.0274
     54 H           5.4440   -6.1909    8.6919 H       1  LIG1        0.0274
     55 H           3.1903   -3.3425    8.8306 H       1  LIG1        0.0274
     56 H           4.3472   -4.3114    9.7407 H       1  LIG1        0.0274
     57 H           2.9223   -5.0861    9.0069 H       1  LIG1        0.0274
     58 H          -0.0616    1.7697    1.2739 H       1  LIG1        0.0274
     59 H           1.2051    1.2340    0.0931 H       1  LIG1        0.0274
     60 H           1.4539    1.1584    1.8288 H       1  LIG1        0.0274
     61 H          -1.5669    2.6784   -3.4472 H       1  LIG1        0.0575
     62 H          -3.4418    4.5964   -2.9960 H       1  LIG1        0.0357
     63 H          -4.5645    3.4085   -3.6254 H       1  LIG1        0.0357
     64 H          -1.7662    5.6567   -4.5518 H       1  LIG1        0.0660
     65 H          -1.7262    6.2653   -9.1364 H       1  LIG1        0.0279
     66 H          -3.2694    5.6726   -9.7177 H       1  LIG1        0.0279
     67 H          -1.8379    4.6152   -9.7556 H       1  LIG1        0.0279
     68 H          -4.5873    3.8827   -9.5096 H       1  LIG1        0.0279
     69 H          -5.7244    4.0609   -8.1740 H       1  LIG1        0.0279
     70 H          -4.9331    2.5022   -8.4724 H       1  LIG1        0.0279
@<TRIPOS>BOND
     1     1     2    1
     2     2     3    1
     3     3     4    1
     4     4     5    1
     5     5     6    2
     6     6     7    1
     7     7     8    1
     8     8     9    1
     9     9    10    2
    10    10    11    1
    11    11    12    1
    12    11    13    2
    13    10    14    1
    14    14    15    1
    15    15    16    1
    16    16    17    2
    17    17    18    1
    18    17    19    1
    19     6    20    1
    20     2    21    2
    21    21    22    1
    22    22    23    1
    23    23    24    2
    24    24    25    1
    25    25    26    1
    26    26    27    1
    27    26    28    2
    28    28    29    1
    29    28    30    1
    30    23    30    1
    31    30    31    2
    32    25    32    2
    33     1    33    1
    34     1    34    1
    35     1    35    1
    36     3    36    1
    37     3    37    1
    38     4    38    1
    39     4    39    1
    40     5    40    1
    41     7    41    1
    42     7    42    1
    43     8    43    1
    44     8    44    1
    45     9    45    1
    46    12    46    1
    47    14    47    1
    48    14    48    1
    49    15    49    1
    50    15    50    1
    51    16    51    1
    52    18    52    1
    53    18    53    1
    54    18    54    1
    55    19    55    1
    56    19    56    1
    57    19    57    1
    58    20    58    1
    59    20    59    1
    60    20    60    1
    61    21    61    1
    62    22    62    1
    63    22    63    1
    64    24    64    1
    65    27    65    1
    66    27    66    1
    67    27    67    1
    68    29    68    1
    69    29    69    1
    70    29    70    1
