@<TRIPOS>MOLECULE
NuBBE_1597
 32 33 0 0 0
SMALL
GASTEIGER

@<TRIPOS>ATOM
      1 C          -1.0181    0.9993    0.3252 C.3     1  LIG1       -0.0104
      2 C          -1.6526   -0.3932    0.3006 C.3     1  LIG1       -0.0476
      3 C          -3.1807   -0.3190    0.2528 C.3     1  LIG1       -0.0530
      4 C          -3.8025   -1.7168    0.2492 C.3     1  LIG1       -0.0559
      5 C          -5.3213   -1.6622    0.1928 C.3     1  LIG1       -0.0653
      6 C           0.4874    0.9104    0.3499 C.ar    1  LIG1        0.0420
      7 N           1.1180    0.8742   -0.8493 N.ar    1  LIG1       -0.2516
      8 C           2.4583    0.7600   -0.8724 C.ar    1  LIG1        0.0713
      9 C           3.2292    0.6731    0.3055 C.ar    1  LIG1        0.0004
     10 C           2.5558    0.7091    1.5314 C.ar    1  LIG1       -0.0509
     11 C           1.1705    0.8265    1.5569 C.ar    1  LIG1       -0.0398
     12 C           4.6283    0.5521    0.2309 C.ar    1  LIG1       -0.0526
     13 C           5.2673    0.5168   -1.0067 C.ar    1  LIG1       -0.0611
     14 C           4.5124    0.6018   -2.1712 C.ar    1  LIG1       -0.0597
     15 C           3.1215    0.7218   -2.0917 C.ar    1  LIG1       -0.0357
     16 H          -1.3698    1.5683    1.1946 H       1  LIG1        0.0328
     17 H          -1.3248    1.5665   -0.5625 H       1  LIG1        0.0328
     18 H          -1.3412   -0.9576    1.1887 H       1  LIG1        0.0269
     19 H          -1.2861   -0.9508   -0.5709 H       1  LIG1        0.0269
     20 H          -3.4943    0.2263   -0.6456 H       1  LIG1        0.0265
     21 H          -3.5489    0.2440    1.1189 H       1  LIG1        0.0265
     22 H          -3.4985   -2.2595    1.1519 H       1  LIG1        0.0263
     23 H          -3.4329   -2.2866   -0.6112 H       1  LIG1        0.0263
     24 H          -5.7285   -1.1238    1.0545 H       1  LIG1        0.0230
     25 H          -5.7359   -2.6755    0.2001 H       1  LIG1        0.0230
     26 H          -5.6642   -1.1631   -0.7191 H       1  LIG1        0.0230
     27 H           3.1034    0.6420    2.4678 H       1  LIG1        0.0625
     28 H           0.6391    0.8464    2.5024 H       1  LIG1        0.0636
     29 H           5.2253    0.4843    1.1374 H       1  LIG1        0.0624
     30 H           6.3486    0.4232   -1.0618 H       1  LIG1        0.0618
     31 H           4.9986    0.5751   -3.1428 H       1  LIG1        0.0618
     32 H           2.5366    0.7869   -3.0063 H       1  LIG1        0.0639
@<TRIPOS>BOND
     1     1     2    1
     2     2     3    1
     3     3     4    1
     4     4     5    1
     5     1     6    1
     6     6     7   ar
     7     7     8   ar
     8     8     9   ar
     9     9    10   ar
    10    10    11   ar
    11     6    11   ar
    12     9    12   ar
    13    12    13   ar
    14    13    14   ar
    15    14    15   ar
    16     8    15   ar
    17     1    16    1
    18     1    17    1
    19     2    18    1
    20     2    19    1
    21     3    20    1
    22     3    21    1
    23     4    22    1
    24     4    23    1
    25     5    24    1
    26     5    25    1
    27     5    26    1
    28    10    27    1
    29    11    28    1
    30    12    29    1
    31    13    30    1
    32    14    31    1
    33    15    32    1
