@<TRIPOS>MOLECULE
NuBBE_1855
 30 31 0 0 0
SMALL
GASTEIGER

@<TRIPOS>ATOM
      1 O           0.4993   -5.5128   -0.2128 O.3     1  LIG1       -0.5066
      2 C           0.7995   -4.2985    0.3323 C.ar    1  LIG1        0.1209
      3 C           0.0986   -3.1488   -0.0294 C.ar    1  LIG1       -0.0128
      4 C           0.4354   -1.9129    0.5427 C.ar    1  LIG1       -0.0181
      5 C          -0.3416   -0.7223    0.1629 C.2     1  LIG1       -0.0538
      6 C           0.1867    0.5051    0.0299 C.2     1  LIG1       -0.0539
      7 C          -0.5839    1.6942   -0.3676 C.ar    1  LIG1       -0.0213
      8 C           0.0493    2.6788   -1.1430 C.ar    1  LIG1       -0.0094
      9 C          -0.6496    3.8264   -1.5064 C.ar    1  LIG1        0.1588
     10 O          -0.0794    4.8106   -2.2667 O.3     1  LIG1       -0.5033
     11 C          -1.9672    4.0083   -1.0978 C.ar    1  LIG1        0.1582
     12 O          -2.6442    5.1374   -1.4583 O.3     1  LIG1       -0.5033
     13 C          -2.6047    3.0559   -0.3196 C.ar    1  LIG1       -0.0160
     14 C          -1.9097    1.9011    0.0511 C.ar    1  LIG1       -0.0509
     15 C           1.4613   -1.8614    1.4986 C.ar    1  LIG1       -0.0128
     16 C           2.1495   -3.0240    1.8443 C.ar    1  LIG1        0.1209
     17 O           3.1556   -3.0045    2.7658 O.3     1  LIG1       -0.5066
     18 C           1.8274   -4.2436    1.2640 C.ar    1  LIG1        0.0213
     19 H          -0.2343   -5.4037   -0.8396 H       1  LIG1        0.2921
     20 H          -0.7031   -3.2049   -0.7602 H       1  LIG1        0.0660
     21 H          -1.3945   -0.8998   -0.0447 H       1  LIG1        0.0624
     22 H           1.2507    0.6693    0.1835 H       1  LIG1        0.0624
     23 H           1.0773    2.5374   -1.4627 H       1  LIG1        0.0661
     24 H           0.8313    4.5424   -2.4781 H       1  LIG1        0.2923
     25 H          -2.0019    5.6491   -1.9893 H       1  LIG1        0.2923
     26 H          -3.6298    3.2115    0.0022 H       1  LIG1        0.0655
     27 H          -2.4146    1.1720    0.6804 H       1  LIG1        0.0625
     28 H           1.7113   -0.9199    1.9776 H       1  LIG1        0.0660
     29 H           3.2579   -2.0989    3.1007 H       1  LIG1        0.2921
     30 H           2.3675   -5.1437    1.5404 H       1  LIG1        0.0691
@<TRIPOS>BOND
     1     1     2    1
     2     2     3   ar
     3     3     4   ar
     4     4     5    1
     5     5     6    2
     6     6     7    1
     7     7     8   ar
     8     8     9   ar
     9     9    10    1
    10     9    11   ar
    11    11    12    1
    12    11    13   ar
    13    13    14   ar
    14     7    14   ar
    15     4    15   ar
    16    15    16   ar
    17    16    17    1
    18    16    18   ar
    19     2    18   ar
    20     1    19    1
    21     3    20    1
    22     5    21    1
    23     6    22    1
    24     8    23    1
    25    10    24    1
    26    12    25    1
    27    13    26    1
    28    14    27    1
    29    15    28    1
    30    17    29    1
    31    18    30    1
