@<TRIPOS>MOLECULE
NuBBE_996
 59 62 0 0 0
SMALL
GASTEIGER

@<TRIPOS>ATOM
      1 C          -2.4635    2.7251   -0.7748 C.3     1  LIG1       -0.0586
      2 C          -1.0052    2.2411   -0.9519 C.3     1  LIG1       -0.0191
      3 C          -0.4268    1.8746    0.4538 C.3     1  LIG1       -0.0252
      4 C           0.0129    3.2223    1.0470 C.3     1  LIG1        0.0097
      5 C           0.3615    4.0395   -0.1648 C.2     1  LIG1        0.1372
      6 C          -0.0548    3.3689   -1.4602 C.3     1  LIG1        0.0229
      7 H           0.8664    2.9277   -1.8643 H       1  LIG1        0.0383
      8 C          -0.6010    4.3896   -2.4630 C.3     1  LIG1       -0.0459
      9 C          -0.9043    3.8031   -3.8321 C.3     1  LIG1       -0.0646
     10 O           0.9256    5.1250   -0.0962 O.2     1  LIG1       -0.2971
     11 C           0.6901    0.7891    0.3912 C.3     1  LIG1       -0.0340
     12 C           1.3398    0.5801    1.7717 C.3     1  LIG1       -0.0493
     13 C           2.0460   -0.7467    2.0248 C.3     1  LIG1       -0.0470
     14 C           1.5251   -1.9606    1.2439 C.3     1  LIG1       -0.0067
     15 C           1.7484   -3.2909    2.0064 C.3     1  LIG1        0.0868
     16 H           2.8132   -3.3784    2.2579 H       1  LIG1        0.0623
     17 O           1.0135   -3.3320    3.2284 O.3     1  LIG1       -0.3889
     18 C           1.3517   -4.5002    1.1488 C.3     1  LIG1        0.1071
     19 H           1.4068   -5.4215    1.7407 H       1  LIG1        0.0645
     20 O           2.2782   -4.6555    0.0635 O.3     1  LIG1       -0.3867
     21 C          -0.0697   -4.3569    0.5870 C.3     1  LIG1        0.0840
     22 H          -0.8132   -4.4335    1.3873 H       1  LIG1        0.0620
     23 O          -0.3064   -5.4382   -0.3285 O.3     1  LIG1       -0.3891
     24 C          -0.2516   -3.0432   -0.1811 C.3     1  LIG1       -0.0183
     25 C           0.0924   -1.7736    0.6552 C.3     1  LIG1       -0.0213
     26 C          -1.0117   -1.6028    1.7246 C.3     1  LIG1       -0.0589
     27 C           0.1745   -0.5199   -0.2895 C.3     1  LIG1       -0.0321
     28 C          -1.0868   -0.2882   -1.1473 C.3     1  LIG1       -0.0489
     29 C          -0.9893    1.0291   -1.9078 C.3     1  LIG1       -0.0464
     30 H          -2.5274    3.6169   -0.1430 H       1  LIG1        0.0235
     31 H          -3.0793    1.9479   -0.3079 H       1  LIG1        0.0235
     32 H          -2.9303    2.9680   -1.7346 H       1  LIG1        0.0235
     33 H          -1.2214    1.4703    1.0964 H       1  LIG1        0.0313
     34 H           0.8659    3.1650    1.7227 H       1  LIG1        0.0345
     35 H          -0.8220    3.7115    1.5590 H       1  LIG1        0.0345
     36 H           0.1449    5.1835   -2.6002 H       1  LIG1        0.0269
     37 H          -1.4906    4.8938   -2.0684 H       1  LIG1        0.0269
     38 H          -0.0334    3.2782   -4.2369 H       1  LIG1        0.0230
     39 H          -1.1699    4.6034   -4.5306 H       1  LIG1        0.0230
     40 H          -1.7455    3.1071   -3.7984 H       1  LIG1        0.0230
     41 H           1.4864    1.1787   -0.2602 H       1  LIG1        0.0307
     42 H           2.0730    1.3780    1.9477 H       1  LIG1        0.0268
     43 H           0.5897    0.7237    2.5584 H       1  LIG1        0.0268
     44 H           2.0281   -0.9289    3.1049 H       1  LIG1        0.0269
     45 H           3.1103   -0.6251    1.7799 H       1  LIG1        0.0269
     46 H           2.1931   -2.0315    0.3697 H       1  LIG1        0.0332
     47 H           1.4956   -2.7939    3.8797 H       1  LIG1        0.2099
     48 H           1.7929   -5.1604   -0.6206 H       1  LIG1        0.2100
     49 H          -0.4320   -6.2407    0.2097 H       1  LIG1        0.2099
     50 H          -1.2858   -2.9997   -0.5467 H       1  LIG1        0.0296
     51 H           0.3679   -3.0729   -1.0883 H       1  LIG1        0.0296
     52 H          -1.0732   -2.4554    2.4041 H       1  LIG1        0.0235
     53 H          -2.0005   -1.5197    1.2614 H       1  LIG1        0.0235
     54 H          -0.8815   -0.7187    2.3473 H       1  LIG1        0.0235
     55 H           0.9585   -0.7646   -1.0258 H       1  LIG1        0.0309
     56 H          -1.9959   -0.2909   -0.5385 H       1  LIG1        0.0268
     57 H          -1.1925   -1.0997   -1.8766 H       1  LIG1        0.0268
     58 H          -1.8155    1.0886   -2.6259 H       1  LIG1        0.0271
     59 H          -0.0715    1.0146   -2.5092 H       1  LIG1        0.0271
@<TRIPOS>BOND
     1     1     2    1
     2     2     3    1
     3     3     4    1
     4     4     5    1
     5     5     6    1
     6     6     7    1
     7     2     6    1
     8     6     8    1
     9     8     9    1
    10     5    10    2
    11     3    11    1
    12    11    12    1
    13    12    13    1
    14    13    14    1
    15    14    15    1
    16    15    18    1
    17    18    19    1
    18    18    20    1
    19    18    21    1
    20    21    22    1
    21    21    23    1
    22    21    24    1
    23    24    25    1
    24    25    26    1
    25    14    25    1
    26    25    27    1
    27    11    27    1
    28    27    28    1
    29    28    29    1
    30     2    29    1
    31    15    17    1
    32    15    16    1
    33     1    30    1
    34     1    31    1
    35     1    32    1
    36     3    33    1
    37     4    34    1
    38     4    35    1
    39     8    36    1
    40     8    37    1
    41     9    38    1
    42     9    39    1
    43     9    40    1
    44    11    41    1
    45    12    42    1
    46    12    43    1
    47    13    44    1
    48    13    45    1
    49    14    46    1
    50    17    47    1
    51    20    48    1
    52    23    49    1
    53    24    50    1
    54    24    51    1
    55    26    52    1
    56    26    53    1
    57    26    54    1
    58    27    55    1
    59    28    56    1
    60    28    57    1
    61    29    58    1
    62    29    59    1
