@<TRIPOS>MOLECULE
NuBBE_22
 42 44 0 0 0
SMALL
GASTEIGER

@<TRIPOS>ATOM
      1 O          -0.3466    3.6035    0.1113 O.2     1  LIG1       -0.2706
      2 C          -1.0989    2.6462    0.2164 C.2     1  LIG1        0.2391
      3 N          -2.4894    2.7428    0.2878 N.am    1  LIG1       -0.2980
      4 C          -3.0740    4.0801    0.1935 C.3     1  LIG1        0.0150
      5 C          -4.4985    4.0431   -0.3592 C.3     1  LIG1       -0.0371
      6 C          -5.3730    3.0570    0.4095 C.3     1  LIG1       -0.0502
      7 C          -4.7210    1.6791    0.4306 C.3     1  LIG1       -0.0371
      8 C          -3.3066    1.7516    0.9939 C.3     1  LIG1        0.0150
      9 C          -0.5605    1.2572    0.1878 C.2     1  LIG1       -0.0036
     10 C           0.6143    0.9276    0.7518 C.2     1  LIG1       -0.0788
     11 C           1.2018   -0.4580    0.6728 C.3     1  LIG1       -0.0303
     12 C           2.5843   -0.4436    0.0125 C.3     1  LIG1       -0.0241
     13 C           3.1949   -1.8212   -0.1211 C.ar    1  LIG1       -0.0434
     14 C           2.9607   -2.5908   -1.2732 C.ar    1  LIG1       -0.0130
     15 C           3.5827   -3.8190   -1.3759 C.ar    1  LIG1        0.1665
     16 O           3.4891   -4.6723   -2.4316 O.3     1  LIG1       -0.4526
     17 C           4.3752   -5.7287   -2.0056 C.3     1  LIG1        0.2332
     18 O           4.9255   -5.5199   -0.6885 O.3     1  LIG1       -0.4526
     19 C           4.4005   -4.3030   -0.3832 C.ar    1  LIG1        0.1662
     20 C           4.6367   -3.5894    0.7710 C.ar    1  LIG1       -0.0159
     21 C           4.0259   -2.3363    0.9004 C.ar    1  LIG1       -0.0549
     22 H          -2.4548    4.7168   -0.4495 H       1  LIG1        0.0464
     23 H          -3.0633    4.5204    1.1980 H       1  LIG1        0.0464
     24 H          -4.4695    3.7443   -1.4148 H       1  LIG1        0.0280
     25 H          -4.9424    5.0439   -0.3204 H       1  LIG1        0.0280
     26 H          -6.3633    2.9929   -0.0547 H       1  LIG1        0.0266
     27 H          -5.5189    3.4134    1.4365 H       1  LIG1        0.0266
     28 H          -4.6852    1.2803   -0.5909 H       1  LIG1        0.0280
     29 H          -5.3249    0.9878    1.0283 H       1  LIG1        0.0280
     30 H          -2.8575    0.7566    0.9623 H       1  LIG1        0.0464
     31 H          -3.3307    2.0502    2.0495 H       1  LIG1        0.0464
     32 H          -1.1391    0.5285   -0.3672 H       1  LIG1        0.0666
     33 H           1.1830    1.6855    1.2898 H       1  LIG1        0.0574
     34 H           0.5325   -1.1227    0.1112 H       1  LIG1        0.0311
     35 H           1.2705   -0.8713    1.6866 H       1  LIG1        0.0311
     36 H           3.2684    0.1960    0.5858 H       1  LIG1        0.0316
     37 H           2.5192    0.0125   -0.9842 H       1  LIG1        0.0316
     38 H           2.3285   -2.2307   -2.0779 H       1  LIG1        0.0658
     39 H           5.2014   -5.8041   -2.7228 H       1  LIG1        0.1166
     40 H           3.8220   -6.6749   -2.0093 H       1  LIG1        0.1166
     41 H           5.2863   -3.9819    1.5452 H       1  LIG1        0.0655
     42 H           4.2149   -1.7494    1.7974 H       1  LIG1        0.0621
@<TRIPOS>BOND
     1     1     2    2
     2     2     3   am
     3     3     4    1
     4     4     5    1
     5     5     6    1
     6     6     7    1
     7     7     8    1
     8     3     8    1
     9     2     9    1
    10     9    10    2
    11    10    11    1
    12    11    12    1
    13    12    13    1
    14    13    14   ar
    15    14    15   ar
    16    15    16    1
    17    16    17    1
    18    17    18    1
    19    15    19   ar
    20    18    19    1
    21    19    20   ar
    22    20    21   ar
    23    13    21   ar
    24     4    22    1
    25     4    23    1
    26     5    24    1
    27     5    25    1
    28     6    26    1
    29     6    27    1
    30     7    28    1
    31     7    29    1
    32     8    30    1
    33     8    31    1
    34     9    32    1
    35    10    33    1
    36    11    34    1
    37    11    35    1
    38    12    36    1
    39    12    37    1
    40    14    38    1
    41    17    39    1
    42    17    40    1
    43    20    41    1
    44    21    42    1
