REMARK  Name = NuBBE_1319
REMARK  3 active torsions:
REMARK  status: ('A' for Active; 'I' for Inactive)
REMARK    1  A    between atoms: O_1  and  C_2
REMARK    2  A    between atoms: C_18  and  O_21
REMARK    3  A    between atoms: O_21  and  C_22
REMARK                            x       y       z     vdW  Elec       q    Type
REMARK                         _______ _______ _______ _____ _____    ______ ____
ROOT
ATOM      1  C   LIG A   1      -4.874  -0.305   0.968  0.00  0.00    +0.120 A 
ATOM      2  C   LIG A   1      -4.171   0.865   0.702  0.00  0.00    +0.091 A 
ATOM      3  C   LIG A   1      -2.776   0.838   0.702  0.00  0.00    +0.131 A 
ATOM      4  C   LIG A   1      -2.080  -0.340   1.002  0.00  0.00    +0.035 A 
ATOM      5  C   LIG A   1      -2.809  -1.510   1.263  0.00  0.00    +0.014 A 
ATOM      6  C   LIG A   1      -4.205  -1.492   1.242  0.00  0.00    +0.046 A 
ATOM      7  C   LIG A   1      -0.578  -0.341   1.097  0.00  0.00    +0.218 C 
ATOM      8  C   LIG A   1       0.048   1.033   0.806  0.00  0.00    +0.105 C 
ATOM      9  C   LIG A   1      -0.843   1.829  -0.136  0.00  0.00    +0.241 C 
ATOM     10  O   LIG A   1      -2.144   2.024   0.428  0.00  0.00    -0.491 OA
ATOM     11  C   LIG A   1       1.309   0.586   0.165  0.00  0.00    +0.005 A 
ATOM     12  C   LIG A   1       1.191  -0.750  -0.184  0.00  0.00    +0.129 A 
ATOM     13  O   LIG A   1      -0.010  -1.308   0.172  0.00  0.00    -0.483 OA
ATOM     14  C   LIG A   1       2.193  -1.420  -0.855  0.00  0.00    +0.091 A 
ATOM     15  C   LIG A   1       3.365  -0.723  -1.167  0.00  0.00    +0.124 A 
ATOM     16  C   LIG A   1       3.492   0.631  -0.806  0.00  0.00    +0.046 A 
ATOM     17  C   LIG A   1       2.455   1.297  -0.139  0.00  0.00    +0.011 A 
ENDROOT
BRANCH   1  18
ATOM     18  O   LIG A   1      -6.237  -0.330   0.969  0.00  0.00    -0.507 OA
ATOM     19  H   LIG A   1      -6.562   0.559   0.751  0.00  0.00    +0.292 HD
ENDBRANCH   1  18
BRANCH  15  20
ATOM     20  O   LIG A   1       4.308  -1.466  -1.823  0.00  0.00    -0.495 OA
ATOM     21  C   LIG A   1       5.525  -0.813  -2.162  0.00  0.00    +0.277 C 
ENDBRANCH  15  20
TORSDOF 2
