REMARK  Name = NuBBE_241
REMARK  7 active torsions:
REMARK  status: ('A' for Active; 'I' for Inactive)
REMARK    1  A    between atoms: O_1  and  C_2
REMARK    2  A    between atoms: C_6  and  O_7
REMARK    3  A    between atoms: C_9  and  O_10
REMARK    4  A    between atoms: C_14  and  C_16
REMARK    5  A    between atoms: C_18  and  O_19
REMARK    6  A    between atoms: C_20  and  O_21
REMARK    7  A    between atoms: C_22  and  O_23
REMARK                            x       y       z     vdW  Elec       q    Type
REMARK                         _______ _______ _______ _____ _____    ______ ____
ROOT
ATOM      1  C   LIG A   1      -1.047   1.278  -0.748  0.00  0.00    +0.164 C 
ATOM      2  C   LIG A   1      -0.496   2.563  -0.126  0.00  0.00    +0.078 C 
ATOM      3  C   LIG A   1       0.922   2.397   0.359  0.00  0.00    +0.038 A 
ATOM      4  C   LIG A   1       1.707   3.491   0.751  0.00  0.00    +0.127 A 
ATOM      5  C   LIG A   1       3.025   3.321   1.177  0.00  0.00    +0.091 A 
ATOM      6  C   LIG A   1       3.572   2.045   1.212  0.00  0.00    +0.124 A 
ATOM      7  C   LIG A   1       2.815   0.942   0.846  0.00  0.00    +0.091 A 
ATOM      8  C   LIG A   1       1.491   1.116   0.441  0.00  0.00    +0.132 A 
ATOM      9  O   LIG A   1       0.824  -0.032   0.098  0.00  0.00    -0.481 OA
ATOM     10  C   LIG A   1      -0.611   0.085   0.124  0.00  0.00    +0.233 C 
ENDROOT
BRANCH  10  11
ATOM     11  C   LIG A   1      -1.174  -1.285  -0.226  0.00  0.00    +0.002 A 
ATOM     12  C   LIG A   1      -0.901  -2.361   0.650  0.00  0.00    +0.056 A 
ATOM     13  C   LIG A   1      -1.400  -3.634   0.382  0.00  0.00    +0.162 A 
ATOM     14  C   LIG A   1      -2.170  -3.855  -0.750  0.00  0.00    +0.201 A 
ATOM     15  C   LIG A   1      -2.443  -2.811  -1.620  0.00  0.00    +0.162 A 
ATOM     16  C   LIG A   1      -1.953  -1.533  -1.371  0.00  0.00    +0.056 A 
BRANCH  13  17
ATOM     17  O   LIG A   1      -1.157  -4.697   1.207  0.00  0.00    -0.503 OA
ATOM     18  H   LIG A   1      -0.574  -4.395   1.926  0.00  0.00    +0.292 HD
ENDBRANCH  13  17
BRANCH  14  19
ATOM     19  O   LIG A   1      -2.667  -5.101  -1.024  0.00  0.00    -0.501 OA
ATOM     20  H   LIG A   1      -2.340  -5.654  -0.284  0.00  0.00    +0.292 HD
ENDBRANCH  14  19
BRANCH  15  21
ATOM     21  O   LIG A   1      -3.198  -3.033  -2.736  0.00  0.00    -0.503 OA
ATOM     22  H   LIG A   1      -3.406  -3.988  -2.705  0.00  0.00    +0.292 HD
ENDBRANCH  15  21
ENDBRANCH  10  11
BRANCH   1  23
ATOM     23  O   LIG A   1      -0.553   1.183  -2.093  0.00  0.00    -0.388 OA
ATOM     24  H   LIG A   1       0.341   0.792  -2.043  0.00  0.00    +0.210 HD
ENDBRANCH   1  23
BRANCH   4  25
ATOM     25  O   LIG A   1       1.251   4.779   0.747  0.00  0.00    -0.506 OA
ATOM     26  H   LIG A   1       0.352   4.816   0.387  0.00  0.00    +0.292 HD
ENDBRANCH   4  25
BRANCH   6  27
ATOM     27  O   LIG A   1       4.859   1.833   1.609  0.00  0.00    -0.506 OA
ATOM     28  H   LIG A   1       5.270   2.693   1.799  0.00  0.00    +0.292 HD
ENDBRANCH   6  27
TORSDOF 7
