REMARK  Name = NuBBE_1089
REMARK  12 active torsions:
REMARK  status: ('A' for Active; 'I' for Inactive)
REMARK    1  A    between atoms: C_2  and  O_3
REMARK    2  A    between atoms: C_2  and  C_4
REMARK    3  A    between atoms: C_4  and  C_5
REMARK    4  A    between atoms: C_7  and  O_8
REMARK    5  A    between atoms: C_9  and  C_10
REMARK    6  A    between atoms: C_10  and  O_11
REMARK    7  A    between atoms: O_11  and  C_12
REMARK    8  A    between atoms: C_16  and  C_17
REMARK    9  A    between atoms: C_19  and  O_20
REMARK   10  A    between atoms: O_20  and  C_21
REMARK   11  A    between atoms: C_22  and  O_23
REMARK   12  A    between atoms: O_23  and  C_24
REMARK                            x       y       z     vdW  Elec       q    Type
REMARK                         _______ _______ _______ _____ _____    ______ ____
ROOT
ATOM      1  C   LIG A   1       1.118  -1.711   1.581  0.00  0.00    +0.067 C 
ATOM      2  C   LIG A   1       2.016  -0.704   1.632  0.00  0.00    +0.023 C 
ENDROOT
BRANCH   1   3
ATOM      3  C   LIG A   1      -0.089  -1.709   0.722  0.00  0.00    -0.008 A 
ATOM      4  C   LIG A   1      -1.321  -1.231   1.199  0.00  0.00    +0.055 A 
ATOM      5  C   LIG A   1      -2.477  -1.336   0.418  0.00  0.00    +0.131 A 
ATOM      6  C   LIG A   1      -2.437  -1.947  -0.842  0.00  0.00    +0.100 A 
ATOM      7  C   LIG A   1      -1.202  -2.412  -1.327  0.00  0.00    +0.019 A 
ATOM      8  C   LIG A   1      -0.040  -2.282  -0.557  0.00  0.00    +0.010 A 
BRANCH   5   9
ATOM      9  O   LIG A   1      -3.636  -0.847   0.968  0.00  0.00    -0.506 OA
ATOM     10  H   LIG A   1      -4.348  -0.869   0.292  0.00  0.00    +0.292 HD
ENDBRANCH   5   9
BRANCH   6  11
ATOM     11  C   LIG A   1      -3.663  -2.091  -1.652  0.00  0.00    +0.343 C 
ATOM     12  O   LIG A   1      -4.624  -1.324  -1.561  0.00  0.00    -0.245 OA
BRANCH  11  13
ATOM     13  O   LIG A   1      -3.576  -3.196  -2.431  0.00  0.00    -0.464 OA
ATOM     14  C   LIG A   1      -4.703  -3.435  -3.277  0.00  0.00    +0.280 C 
ENDBRANCH  11  13
ENDBRANCH   6  11
ENDBRANCH   1   3
BRANCH   2  15
ATOM     15  C   LIG A   1       2.020   0.561   0.891  0.00  0.00    -0.021 A 
ATOM     16  C   LIG A   1       1.458   1.709   1.460  0.00  0.00    +0.057 A 
ATOM     17  C   LIG A   1       1.558   2.951   0.818  0.00  0.00    +0.162 A 
ATOM     18  C   LIG A   1       2.151   3.021  -0.456  0.00  0.00    +0.162 A 
ATOM     19  C   LIG A   1       2.744   1.877  -1.004  0.00  0.00    +0.050 A 
ATOM     20  C   LIG A   1       2.692   0.657  -0.327  0.00  0.00    +0.012 A 
BRANCH  17  21
ATOM     21  O   LIG A   1       1.053   4.113   1.350  0.00  0.00    -0.491 OA
ATOM     22  C   LIG A   1       1.067   4.202   2.774  0.00  0.00    +0.277 C 
ENDBRANCH  17  21
BRANCH  18  23
ATOM     23  O   LIG A   1       2.178   4.241  -1.091  0.00  0.00    -0.491 OA
ATOM     24  C   LIG A   1       2.062   4.175  -2.511  0.00  0.00    +0.277 C 
ENDBRANCH  18  23
ENDBRANCH   2  15
BRANCH   1  26
ATOM     25  O   LIG A   1       0.692  -3.936   2.441  0.00  0.00    -0.245 OA
ATOM     26  C   LIG A   1       1.375  -2.923   2.421  0.00  0.00    +0.337 C 
BRANCH  26  27
ATOM     27  O   LIG A   1       2.473  -2.840   3.196  0.00  0.00    -0.477 OA
ATOM     28  H   LIG A   1       2.490  -3.697   3.672  0.00  0.00    +0.295 HD
ENDBRANCH  26  27
ENDBRANCH   1  26
TORSDOF 9
