REMARK  Name = NuBBE_407
REMARK  9 active torsions:
REMARK  status: ('A' for Active; 'I' for Inactive)
REMARK    1  A    between atoms: C_3  and  O_4
REMARK    2  A    between atoms: C_5  and  C_6
REMARK    3  A    between atoms: C_11  and  C_26
REMARK    4  A    between atoms: C_14  and  C_15
REMARK    5  A    between atoms: C_19  and  C_20
REMARK    6  A    between atoms: C_19  and  C_21
REMARK    7  A    between atoms: C_21  and  O_22
REMARK    8  A    between atoms: C_27  and  C_28
REMARK    9  A    between atoms: C_31  and  C_32
REMARK                            x       y       z     vdW  Elec       q    Type
REMARK                         _______ _______ _______ _____ _____    ______ ____
ROOT
ATOM      1  O   LIG A   1      -5.837  -2.557   1.088  0.00  0.00    -0.284 OA
ATOM      2  C   LIG A   1      -4.773  -2.102   1.502  0.00  0.00    +0.221 C 
ATOM      3  C   LIG A   1      -4.062  -2.778   2.619  0.00  0.00    +0.167 C 
ATOM      4  C   LIG A   1      -2.910  -2.276   3.101  0.00  0.00    +0.002 C 
ATOM      5  C   LIG A   1      -2.150  -2.998   4.186  0.00  0.00    +0.048 C 
ATOM      6  C   LIG A   1      -2.354  -1.034   2.515  0.00  0.00    -0.014 C 
ATOM      7  C   LIG A   1      -1.240  -0.472   3.019  0.00  0.00    +0.008 C 
ATOM      8  C   LIG A   1      -0.509   0.584   2.369  0.00  0.00    +0.001 C 
ATOM      9  C   LIG A   1      -0.931   1.182   1.238  0.00  0.00    -0.053 C 
ATOM     10  C   LIG A   1       0.032   1.993   0.290  0.00  0.00    -0.004 C 
ATOM     11  C   LIG A   1       1.486   2.138   0.906  0.00  0.00    +0.012 C 
ATOM     12  C   LIG A   1       2.590   2.365  -0.124  0.00  0.00    +0.008 C 
ATOM     13  C   LIG A   1       2.757   1.146  -1.067  0.00  0.00    -0.029 C 
ATOM     14  C   LIG A   1       3.302   1.681  -2.417  0.00  0.00    +0.011 C 
ATOM     15  C   LIG A   1       1.419   0.335  -1.136  0.00  0.00    +0.003 C 
ATOM     16  C   LIG A   1       1.543  -0.822  -2.150  0.00  0.00    +0.022 C 
ATOM     17  C   LIG A   1       2.632  -1.837  -1.690  0.00  0.00    +0.065 C 
ATOM     18  C   LIG A   1       2.900  -2.863  -2.806  0.00  0.00    +0.023 C 
ATOM     19  C   LIG A   1       3.969  -1.111  -1.368  0.00  0.00    +0.018 C 
ATOM     20  C   LIG A   1       3.821   0.159  -0.510  0.00  0.00    +0.008 C 
ATOM     21  C   LIG A   1      -0.491   3.448   0.170  0.00  0.00    +0.016 C 
ATOM     22  C   LIG A   1       0.113   1.220  -1.141  0.00  0.00    -0.020 C 
ATOM     23  C   LIG A   1       0.100   2.183  -2.352  0.00  0.00    +0.012 C 
ATOM     24  C   LIG A   1      -1.127   0.285  -1.335  0.00  0.00    +0.009 C 
ATOM     25  C   LIG A   1      -2.412   0.896  -0.786  0.00  0.00    +0.016 C 
ATOM     26  C   LIG A   1      -2.391   0.923   0.766  0.00  0.00    +0.015 C 
ATOM     27  C   LIG A   1      -3.309   2.060   1.281  0.00  0.00    +0.021 C 
ATOM     28  C   LIG A   1      -2.995  -0.391   1.352  0.00  0.00    -0.026 C 
ATOM     29  C   LIG A   1      -4.161  -0.902   0.905  0.00  0.00    +0.059 C 
ENDROOT
BRANCH   3  30
ATOM     30  O   LIG A   1      -4.639  -3.937   3.110  0.00  0.00    -0.503 OA
ATOM     31  H   LIG A   1      -5.456  -4.054   2.579  0.00  0.00    +0.292 HD
ENDBRANCH   3  30
BRANCH  17  32
ATOM     32  C   LIG A   1       2.169  -2.620  -0.441  0.00  0.00    +0.311 C 
ATOM     33  O   LIG A   1       2.770  -2.648   0.622  0.00  0.00    -0.250 OA
BRANCH  32  34
ATOM     34  O   LIG A   1       1.015  -3.308  -0.598  0.00  0.00    -0.480 OA
ATOM     35  H   LIG A   1       0.602  -3.243  -1.477  0.00  0.00    +0.295 HD
ENDBRANCH  32  34
ENDBRANCH  17  32
TORSDOF 3
