REMARK  Name = NuBBE_1601
REMARK  18 active torsions:
REMARK  status: ('A' for Active; 'I' for Inactive)
REMARK    1  A    between atoms: C_1  and  C_2
REMARK    2  A    between atoms: C_5  and  C_6
REMARK    3  A    between atoms: C_8  and  O_11
REMARK    4  A    between atoms: C_12  and  C_13
REMARK    5  A    between atoms: C_12  and  C_17
REMARK    6  A    between atoms: C_13  and  O_15
REMARK    7  A    between atoms: O_15  and  C_16
REMARK    8  A    between atoms: C_22  and  O_24
REMARK    9  A    between atoms: O_24  and  C_25
REMARK   10  A    between atoms: C_25  and  C_27
REMARK   11  A    between atoms: C_28  and  O_44
REMARK   12  A    between atoms: C_30  and  C_43
REMARK   13  A    between atoms: C_34  and  C_36
REMARK   14  A    between atoms: C_38  and  O_42
REMARK   15  A    between atoms: O_44  and  C_45
REMARK   16  A    between atoms: C_45  and  C_47
REMARK   17  A    between atoms: C_47  and  C_48
REMARK   18  A    between atoms: C_47  and  C_49
REMARK                            x       y       z     vdW  Elec       q    Type
REMARK                         _______ _______ _______ _____ _____    ______ ____
ROOT
ATOM      1  C   LIG A   1       0.622   0.202  -3.754  0.00  0.00    +0.024 C 
ATOM      2  C   LIG A   1      -0.300   0.283  -2.511  0.00  0.00    +0.063 C 
ATOM      3  C   LIG A   1      -0.087  -0.911  -1.562  0.00  0.00    +0.065 C 
ATOM      4  C   LIG A   1      -1.333  -1.180  -0.567  0.00  0.00    +0.020 C 
ATOM      5  C   LIG A   1      -1.112  -2.635  -0.059  0.00  0.00    +0.021 C 
ATOM      6  C   LIG A   1      -2.713  -1.125  -1.283  0.00  0.00    +0.009 C 
ATOM      7  C   LIG A   1      -2.798  -0.651  -2.540  0.00  0.00    +0.162 C 
ATOM      8  C   LIG A   1      -1.699   0.156  -3.163  0.00  0.00    +0.207 C 
ATOM      9  O   LIG A   1      -2.013   0.746  -4.206  0.00  0.00    -0.288 OA
ATOM     10  C   LIG A   1      -3.991  -1.285  -0.362  0.00  0.00    +0.152 C 
ATOM     11  C   LIG A   1      -5.382  -1.160  -1.037  0.00  0.00    +0.036 C 
ATOM     12  C   LIG A   1      -3.896  -0.076   0.586  0.00  0.00    +0.176 C 
ATOM     13  O   LIG A   1      -4.861   0.581   0.977  0.00  0.00    -0.291 OA
ATOM     14  C   LIG A   1      -2.561   0.307   1.105  0.00  0.00    +0.044 C 
ATOM     15  C   LIG A   1      -1.436  -0.195   0.578  0.00  0.00    -0.012 C 
ATOM     16  C   LIG A   1       1.353  -0.859  -0.893  0.00  0.00    +0.223 C 
ATOM     17  C   LIG A   1       1.900   0.525  -0.327  0.00  0.00    +0.228 C 
ATOM     18  C   LIG A   1       1.346   1.824  -1.049  0.00  0.00    +0.038 C 
ATOM     19  C   LIG A   1      -0.038   1.537  -1.680  0.00  0.00    -0.050 C 
ATOM     20  C   LIG A   1      -0.980   2.372  -1.212  0.00  0.00    -0.025 C 
ATOM     21  C   LIG A   1      -0.484   3.289  -0.145  0.00  0.00    +0.036 C 
ATOM     22  C   LIG A   1       1.049   3.176  -0.230  0.00  0.00    +0.043 C 
ATOM     23  C   LIG A   1       2.366   2.284  -2.134  0.00  0.00    +0.020 C 
ENDROOT
BRANCH  22  24
ATOM     24  C   LIG A   1       1.788   3.627   1.004  0.00  0.00    +0.043 C 
ATOM     25  C   LIG A   1       1.502   4.657   1.823  0.00  0.00    +0.057 C 
ATOM     26  C   LIG A   1       2.551   4.872   2.821  0.00  0.00    +0.334 C 
ATOM     27  O   LIG A   1       3.444   3.792   2.615  0.00  0.00    -0.428 OA
ATOM     28  C   LIG A   1       3.128   3.215   1.423  0.00  0.00    +0.338 C 
ATOM     29  O   LIG A   1       3.839   2.509   0.804  0.00  0.00    -0.245 OA
BRANCH  26  30
ATOM     30  O   LIG A   1       3.212   6.093   2.538  0.00  0.00    -0.354 OA
ATOM     31  H   LIG A   1       3.748   6.298   3.324  0.00  0.00    +0.214 HD
ENDBRANCH  26  30
ENDBRANCH  22  24
BRANCH   7  32
ATOM     32  O   LIG A   1      -3.968  -0.686  -3.272  0.00  0.00    -0.503 OA
ATOM     33  H   LIG A   1      -3.779  -0.187  -4.097  0.00  0.00    +0.292 HD
ENDBRANCH   7  32
BRANCH  10  34
ATOM     34  C   LIG A   1      -4.085  -2.591   0.454  0.00  0.00    +0.325 C 
ATOM     35  O   LIG A   1      -4.398  -3.683  -0.005  0.00  0.00    -0.249 OA
BRANCH  34  36
ATOM     36  O   LIG A   1      -3.765  -2.377   1.766  0.00  0.00    -0.467 OA
ATOM     37  C   LIG A   1      -3.807  -3.496   2.654  0.00  0.00    +0.280 C 
ENDBRANCH  34  36
ENDBRANCH  10  34
BRANCH  16  38
ATOM     38  O   LIG A   1       2.327  -1.388  -1.847  0.00  0.00    -0.457 OA
BRANCH  38  39
ATOM     39  C   LIG A   1       2.458  -2.748  -1.901  0.00  0.00    +0.304 C 
ATOM     40  O   LIG A   1       1.812  -3.545  -1.236  0.00  0.00    -0.251 OA
ATOM     41  C   LIG A   1       3.467  -3.153  -2.932  0.00  0.00    +0.136 C 
ENDBRANCH  38  39
ENDBRANCH  16  38
BRANCH  17  42
ATOM     42  O   LIG A   1       1.630   0.488   1.111  0.00  0.00    -0.457 OA
BRANCH  42  43
ATOM     43  C   LIG A   1       2.560  -0.153   1.898  0.00  0.00    +0.310 C 
ATOM     44  O   LIG A   1       3.747  -0.282   1.613  0.00  0.00    -0.251 OA
BRANCH  43  45
ATOM     45  C   LIG A   1       1.923  -0.732   3.164  0.00  0.00    +0.092 C 
ATOM     46  C   LIG A   1       0.782  -1.699   2.861  0.00  0.00    +0.019 C 
ATOM     47  C   LIG A   1       2.944  -1.522   3.989  0.00  0.00    +0.019 C 
ENDBRANCH  43  45
ENDBRANCH  42  43
ENDBRANCH  17  42
TORSDOF 10
