@<TRIPOS>MOLECULE
NuBBE_1280
 28 30 0 0 0
SMALL
GASTEIGER

@<TRIPOS>ATOM
      1 O          -2.9293   -0.2153    0.0654 O.3     1  LIG1       -0.4884
      2 C          -3.7156    0.9649   -0.0168 C.3     1  LIG1        0.0791
      3 C          -1.5558   -0.0564    0.0035 C.ar    1  LIG1        0.2063
      4 C          -0.7887   -1.2314   -0.0220 C.ar    1  LIG1        0.1876
      5 C           0.6069   -1.2337   -0.0926 C.ar    1  LIG1        0.0637
      6 C           1.3096   -0.0061   -0.1309 C.ar    1  LIG1        0.1417
      7 C           0.5728    1.2080   -0.1168 C.ar    1  LIG1        0.0662
      8 C          -0.8241    1.1390   -0.0406 C.ar    1  LIG1        0.1834
      9 O          -1.3480    2.4008   -0.0261 O.2     1  LIG1       -0.4590
     10 C          -0.3224    3.2757   -0.1151 C.ar    1  LIG1        0.0934
     11 C           0.8715    2.6029   -0.1863 C.ar    1  LIG1       -0.0125
     12 O           2.6872   -0.1076   -0.2769 O.3     1  LIG1       -0.4937
     13 C           3.4630    0.9046    0.3492 C.3     1  LIG1        0.0788
     14 C           1.2915   -2.5269   -0.1144 C.ar    1  LIG1       -0.0406
     15 C           0.5971   -3.6672   -0.0738 C.ar    1  LIG1        0.0237
     16 C          -0.8709   -3.6911   -0.0089 C.ar    1  LIG1        0.3373
     17 O          -1.4805   -4.7525    0.0220 O.2     1  LIG1       -0.2452
     18 O          -1.5030   -2.4599    0.0171 O.2     1  LIG1       -0.4182
     19 H          -4.7673    0.6622   -0.0306 H       1  LIG1        0.0660
     20 H          -3.5224    1.5116   -0.9454 H       1  LIG1        0.0660
     21 H          -3.5677    1.5961    0.8649 H       1  LIG1        0.0660
     22 H          -0.5958    4.3219   -0.1222 H       1  LIG1        0.1030
     23 H           1.8360    3.0784   -0.2741 H       1  LIG1        0.0656
     24 H           4.4573    0.4897    0.5420 H       1  LIG1        0.0660
     25 H           3.0442    1.2230    1.3095 H       1  LIG1        0.0660
     26 H           3.5947    1.7497   -0.3314 H       1  LIG1        0.0660
     27 H           2.3754   -2.5459   -0.1614 H       1  LIG1        0.0628
     28 H           1.0844   -4.6343   -0.0872 H       1  LIG1        0.0689
@<TRIPOS>BOND
     1     1     2    1
     2     1     3    1
     3     3     4   ar
     4     4     5   ar
     5     5     6   ar
     6     6     7   ar
     7     7     8   ar
     8     3     8   ar
     9     8     9   ar
    10     9    10   ar
    11    10    11   ar
    12     7    11   ar
    13     6    12    1
    14    12    13    1
    15     5    14   ar
    16    14    15   ar
    17    15    16   ar
    18    16    17    2
    19    16    18   ar
    20     4    18   ar
    21     2    19    1
    22     2    20    1
    23     2    21    1
    24    10    22    1
    25    11    23    1
    26    13    24    1
    27    13    25    1
    28    13    26    1
    29    14    27    1
    30    15    28    1
