@<TRIPOS>MOLECULE
NuBBE_2513
 35 38 0 0 0
SMALL
GASTEIGER

@<TRIPOS>ATOM
      1 C          -3.6876    5.2779   -0.0411 C.3     1  LIG1        0.0788
      2 O          -2.2679    5.1754    0.0033 O.3     1  LIG1       -0.4950
      3 C          -1.7600    3.9038   -0.0085 C.ar    1  LIG1        0.1236
      4 C          -0.3640    3.8187    0.0455 C.ar    1  LIG1       -0.0191
      5 C           0.2738    2.5759    0.0449 C.ar    1  LIG1       -0.0441
      6 C          -0.4987    1.4156   -0.0146 C.ar    1  LIG1        0.0595
      7 C           0.0308    0.0909   -0.0134 C.ar    1  LIG1        0.1461
      8 O           1.3429   -0.1728    0.1093 O.2     1  LIG1       -0.4542
      9 C           1.4391   -1.5345    0.0743 C.ar    1  LIG1        0.1395
     10 C           2.6315   -2.2399    0.1657 C.ar    1  LIG1        0.0230
     11 C           2.5424   -3.6323    0.0981 C.ar    1  LIG1        0.1236
     12 O           3.6191   -4.4808    0.1562 O.3     1  LIG1       -0.4950
     13 C           4.8929   -3.8543    0.2805 C.3     1  LIG1        0.0788
     14 C           1.2976   -4.2616   -0.0409 C.ar    1  LIG1       -0.0192
     15 C           0.1040   -3.5252   -0.1249 C.ar    1  LIG1       -0.0471
     16 C           0.1826   -2.1239   -0.0693 C.ar    1  LIG1        0.0274
     17 C          -0.7274   -1.0454   -0.1245 C.ar    1  LIG1        0.0432
     18 C          -2.1894   -0.9371   -0.2785 C.3     1  LIG1        0.1187
     19 O          -2.7440    0.4010   -0.1235 O.3     1  LIG1       -0.4864
     20 C          -1.8992    1.4922   -0.0768 C.ar    1  LIG1        0.1351
     21 C          -2.5234    2.7350   -0.0676 C.ar    1  LIG1        0.0225
     22 H          -3.9534    6.3379   -0.0237 H       1  LIG1        0.0660
     23 H          -4.1425    4.8048    0.8364 H       1  LIG1        0.0660
     24 H          -4.0828    4.8495   -0.9689 H       1  LIG1        0.0660
     25 H           0.2322    4.7275    0.0915 H       1  LIG1        0.0654
     26 H           1.3568    2.5189    0.0917 H       1  LIG1        0.0627
     27 H           3.5587   -1.6962    0.2780 H       1  LIG1        0.0691
     28 H           5.6576   -4.6348    0.2996 H       1  LIG1        0.0660
     29 H           4.9623   -3.2943    1.2199 H       1  LIG1        0.0660
     30 H           5.0988   -3.2068   -0.5795 H       1  LIG1        0.0660
     31 H           1.2514   -5.3483   -0.0868 H       1  LIG1        0.0654
     32 H          -0.8486   -4.0334   -0.2329 H       1  LIG1        0.0626
     33 H          -2.6921   -1.5701    0.4611 H       1  LIG1        0.0749
     34 H          -2.4871   -1.2880   -1.2730 H       1  LIG1        0.0749
     35 H          -3.6063    2.7546   -0.1075 H       1  LIG1        0.0691
@<TRIPOS>BOND
     1     1     2    1
     2     2     3    1
     3     3     4   ar
     4     4     5   ar
     5     5     6   ar
     6     6     7    1
     7     7     8   ar
     8     8     9   ar
     9     9    10   ar
    10    10    11   ar
    11    11    12    1
    12    12    13    1
    13    11    14   ar
    14    14    15   ar
    15    15    16   ar
    16     9    16   ar
    17    16    17   ar
    18     7    17   ar
    19    17    18    1
    20    18    19    1
    21     6    20   ar
    22    19    20    1
    23    20    21   ar
    24     3    21   ar
    25     1    22    1
    26     1    23    1
    27     1    24    1
    28     4    25    1
    29     5    26    1
    30    10    27    1
    31    13    28    1
    32    13    29    1
    33    13    30    1
    34    14    31    1
    35    15    32    1
    36    18    33    1
    37    18    34    1
    38    21    35    1
