@<TRIPOS>MOLECULE
NuBBE_1324
 48 51 0 0 0
SMALL
GASTEIGER

@<TRIPOS>ATOM
      1 O          -1.7557   -0.6979   -1.5826 O.2     1  LIG1       -0.2915
      2 C          -0.5971   -0.6353   -1.1873 C.2     1  LIG1        0.1741
      3 C          -0.0670    0.6885   -0.7093 C.ar    1  LIG1        0.0602
      4 C           0.9340    0.8231    0.2737 C.ar    1  LIG1        0.1411
      5 O           1.2722   -0.3347    0.9225 O.3     1  LIG1       -0.4937
      6 C           1.8908   -0.3061    2.2033 C.3     1  LIG1        0.0788
      7 C           1.4801    2.1012    0.5226 C.ar    1  LIG1        0.0588
      8 C           2.7170    2.3280    1.2635 C.2     1  LIG1       -0.0478
      9 C           2.9848    3.5512    1.7190 C.2     1  LIG1       -0.0408
     10 C           2.1725    4.7540    1.3235 C.3     1  LIG1        0.1235
     11 C           3.1714    5.7804    0.7776 C.3     1  LIG1       -0.0215
     12 C           1.4057    5.3414    2.5124 C.3     1  LIG1       -0.0215
     13 O           1.2355    4.5219    0.2499 O.3     1  LIG1       -0.4815
     14 C           0.8609    3.2341   -0.0284 C.ar    1  LIG1        0.1324
     15 C          -0.1857    3.1019   -0.9380 C.ar    1  LIG1       -0.0184
     16 C          -0.6267    1.8330   -1.3073 C.ar    1  LIG1       -0.0442
     17 C           0.3302   -1.8325   -1.2765 C.3     1  LIG1        0.0737
     18 C          -0.0645   -2.9961   -0.3872 C.2     1  LIG1        0.1707
     19 C          -1.3341   -3.7389   -0.6608 C.ar    1  LIG1        0.0215
     20 C          -1.8940   -3.8038   -1.9415 C.ar    1  LIG1       -0.0057
     21 C          -3.0230   -4.5773   -2.1151 C.ar    1  LIG1        0.1669
     22 C          -3.5973   -5.2752   -1.0790 C.ar    1  LIG1        0.1663
     23 O          -4.6793   -5.9961   -1.4773 O.3     1  LIG1       -0.4526
     24 C          -4.7271   -5.6635   -2.8809 C.3     1  LIG1        0.2332
     25 O          -3.6810   -4.7595   -3.2916 O.3     1  LIG1       -0.4526
     26 C          -3.0856   -5.2244    0.1983 C.ar    1  LIG1       -0.0155
     27 C          -1.9377   -4.4477    0.4067 C.ar    1  LIG1       -0.0476
     28 O           0.6515   -3.3724    0.5301 O.2     1  LIG1       -0.2916
     29 H           1.7374    0.6230    2.7599 H       1  LIG1        0.0660
     30 H           2.9575   -0.5186    2.0764 H       1  LIG1        0.0660
     31 H           1.4678   -1.1037    2.8188 H       1  LIG1        0.0660
     32 H           3.4161    1.5192    1.4245 H       1  LIG1        0.0624
     33 H           3.8721    3.7073    2.3263 H       1  LIG1        0.0611
     34 H           3.9125    6.0702    1.5312 H       1  LIG1        0.0271
     35 H           2.6612    6.6805    0.4216 H       1  LIG1        0.0271
     36 H           3.7090    5.3653   -0.0851 H       1  LIG1        0.0271
     37 H           2.0687    5.5904    3.3485 H       1  LIG1        0.0271
     38 H           0.6408    4.6455    2.8771 H       1  LIG1        0.0271
     39 H           0.8734    6.2535    2.2162 H       1  LIG1        0.0271
     40 H          -0.6354    3.9883   -1.3790 H       1  LIG1        0.0654
     41 H          -1.4098    1.7444   -2.0592 H       1  LIG1        0.0627
     42 H           1.3662   -1.5588   -1.0545 H       1  LIG1        0.0426
     43 H           0.3773   -2.1624   -2.3194 H       1  LIG1        0.0426
     44 H          -1.4736   -3.2840   -2.7947 H       1  LIG1        0.0662
     45 H          -5.6976   -5.2030   -3.0981 H       1  LIG1        0.1166
     46 H          -4.6367   -6.5859   -3.4665 H       1  LIG1        0.1166
     47 H          -3.5495   -5.7741    1.0095 H       1  LIG1        0.0655
     48 H          -1.5081   -4.3948    1.4061 H       1  LIG1        0.0626
@<TRIPOS>BOND
     1     1     2    2
     2     2     3    1
     3     3     4   ar
     4     4     5    1
     5     5     6    1
     6     4     7   ar
     7     7     8    1
     8     8     9    2
     9     9    10    1
    10    10    11    1
    11    10    12    1
    12    10    13    1
    13     7    14   ar
    14    13    14    1
    15    14    15   ar
    16    15    16   ar
    17     3    16   ar
    18     2    17    1
    19    17    18    1
    20    18    19    1
    21    19    20   ar
    22    20    21   ar
    23    21    22   ar
    24    22    23    1
    25    23    24    1
    26    24    25    1
    27    21    25    1
    28    22    26   ar
    29    26    27   ar
    30    19    27   ar
    31    18    28    2
    32     6    29    1
    33     6    30    1
    34     6    31    1
    35     8    32    1
    36     9    33    1
    37    11    34    1
    38    11    35    1
    39    11    36    1
    40    12    37    1
    41    12    38    1
    42    12    39    1
    43    15    40    1
    44    16    41    1
    45    17    42    1
    46    17    43    1
    47    20    44    1
    48    24    45    1
    49    24    46    1
    50    26    47    1
    51    27    48    1
