REMARK  Name = NuBBE_2006
REMARK  7 active torsions:
REMARK  status: ('A' for Active; 'I' for Inactive)
REMARK    1  A    between atoms: O_1  and  C_2
REMARK    2  A    between atoms: C_6  and  C_8
REMARK    3  A    between atoms: C_11  and  O_12
REMARK    4  A    between atoms: O_12  and  C_13
REMARK    5  A    between atoms: C_20  and  O_21
REMARK    6  A    between atoms: O_21  and  C_22
REMARK    7  A    between atoms: C_23  and  C_24
REMARK                            x       y       z     vdW  Elec       q    Type
REMARK                         _______ _______ _______ _____ _____    ______ ____
ROOT
ATOM      1  C   LIG A   1      -1.127   1.391  -1.895  0.00  0.00    +0.137 A 
ATOM      2  C   LIG A   1      -0.458   0.163  -1.845  0.00  0.00    +0.101 A 
ATOM      3  C   LIG A   1      -1.153  -1.117  -2.071  0.00  0.00    +0.174 C 
ATOM      4  C   LIG A   1      -0.306  -2.361  -2.030  0.00  0.00    +0.129 C 
ATOM      5  C   LIG A   1       0.818  -2.159  -1.018  0.00  0.00    +0.211 C 
ATOM      6  O   LIG A   1       1.624  -1.032  -1.418  0.00  0.00    -0.483 OA
ATOM      7  O   LIG A   1      -2.354  -1.137  -2.317  0.00  0.00    -0.292 OA
ATOM      8  C   LIG A   1       0.909   0.127  -1.592  0.00  0.00    +0.139 A 
ATOM      9  C   LIG A   1       1.631   1.313  -1.490  0.00  0.00    +0.092 A 
ATOM     10  C   LIG A   1       0.977   2.550  -1.552  0.00  0.00    +0.130 A 
ATOM     11  C   LIG A   1      -0.421   2.596  -1.741  0.00  0.00    +0.034 A 
ATOM     12  C   LIG A   1      -1.176   3.900  -1.715  0.00  0.00    +0.051 C 
ENDROOT
BRANCH   5  13
ATOM     13  C   LIG A   1       0.427  -2.080   0.459  0.00  0.00    -0.007 A 
ATOM     14  C   LIG A   1       1.417  -1.863   1.432  0.00  0.00    +0.011 A 
ATOM     15  C   LIG A   1       1.083  -1.796   2.792  0.00  0.00    +0.046 A 
ATOM     16  C   LIG A   1      -0.240  -1.944   3.211  0.00  0.00    +0.120 A 
ATOM     17  C   LIG A   1      -1.227  -2.162   2.257  0.00  0.00    +0.046 A 
ATOM     18  C   LIG A   1      -0.896  -2.238   0.900  0.00  0.00    +0.011 A 
BRANCH  16  19
ATOM     19  O   LIG A   1      -0.440  -1.863   4.562  0.00  0.00    -0.495 OA
ATOM     20  C   LIG A   1      -1.781  -2.010   5.016  0.00  0.00    +0.277 C 
ENDBRANCH  16  19
ENDBRANCH   5  13
BRANCH   1  21
ATOM     21  O   LIG A   1      -2.486   1.462  -2.084  0.00  0.00    -0.506 OA
ATOM     22  H   LIG A   1      -2.831   0.550  -2.212  0.00  0.00    +0.292 HD
ENDBRANCH   1  21
BRANCH  10  23
ATOM     23  O   LIG A   1       1.616   3.756  -1.422  0.00  0.00    -0.495 OA
ATOM     24  C   LIG A   1       3.026   3.730  -1.229  0.00  0.00    +0.277 C 
ENDBRANCH  10  23
TORSDOF 4
