REMARK  Name = NuBBE_1982
REMARK  7 active torsions:
REMARK  status: ('A' for Active; 'I' for Inactive)
REMARK    1  A    between atoms: S_1  and  S_2
REMARK    2  A    between atoms: S_1  and  S_7
REMARK    3  A    between atoms: S_2  and  S_3
REMARK    4  A    between atoms: S_3  and  C_4
REMARK    5  A    between atoms: C_4  and  C_5
REMARK    6  A    between atoms: S_7  and  C_8
REMARK    7  A    between atoms: C_8  and  C_9
REMARK                            x       y       z     vdW  Elec       q    Type
REMARK                         _______ _______ _______ _____ _____    ______ ____
ROOT
ATOM      1  S   LIG A   1      -1.233  -0.814   1.620  0.00  0.00    -0.013 S 
ENDROOT
BRANCH   1   2
ATOM      2  S   LIG A   1      -0.932   1.114   2.264  0.00  0.00    -0.013 S 
BRANCH   2   3
ATOM      3  S   LIG A   1       0.241   2.029   0.843  0.00  0.00    -0.077 S 
BRANCH   3   4
ATOM      4  C   LIG A   1      -0.819   2.116  -0.630  0.00  0.00    +0.108 C 
BRANCH   4   5
ATOM      5  C   LIG A   1      -2.037   2.955  -0.412  0.00  0.00    -0.023 C 
ATOM      6  C   LIG A   1      -3.250   2.448  -0.156  0.00  0.00    +0.005 C 
ENDBRANCH   4   5
ENDBRANCH   3   4
ENDBRANCH   2   3
ENDBRANCH   1   2
BRANCH   1   7
ATOM      7  S   LIG A   1       0.544  -1.822   1.865  0.00  0.00    -0.077 S 
BRANCH   7   8
ATOM      8  C   LIG A   1       1.270  -1.739   0.195  0.00  0.00    +0.108 C 
BRANCH   8   9
ATOM      9  C   LIG A   1       2.598  -2.451   0.145  0.00  0.00    -0.023 C 
ATOM     10  C   LIG A   1       2.906  -3.394  -0.746  0.00  0.00    +0.005 C 
ENDBRANCH   8   9
ENDBRANCH   7   8
ENDBRANCH   1   7
TORSDOF 7
