REMARK  Name = NuBBE_204
REMARK  25 active torsions:
REMARK  status: ('A' for Active; 'I' for Inactive)
REMARK    1  A    between atoms: C_1  and  O_2
REMARK    2  A    between atoms: O_2  and  C_3
REMARK    3  A    between atoms: C_5  and  C_6
REMARK    4  A    between atoms: C_6  and  O_7
REMARK    5  A    between atoms: O_7  and  C_8
REMARK    6  A    between atoms: C_8  and  C_9
REMARK    7  A    between atoms: C_9  and  O_46
REMARK    8  A    between atoms: C_10  and  O_45
REMARK    9  A    between atoms: C_12  and  O_16
REMARK   10  A    between atoms: O_16  and  C_17
REMARK   11  A    between atoms: C_17  and  C_18
REMARK   12  A    between atoms: C_21  and  O_32
REMARK   13  A    between atoms: C_23  and  O_31
REMARK   14  A    between atoms: C_25  and  O_30
REMARK   15  A    between atoms: C_27  and  O_29
REMARK   16  A    between atoms: O_32  and  C_33
REMARK   17  A    between atoms: C_35  and  O_36
REMARK   18  A    between atoms: O_36  and  C_37
REMARK   19  A    between atoms: C_38  and  O_43
REMARK   20  A    between atoms: C_39  and  O_40
REMARK   21  A    between atoms: O_40  and  C_41
REMARK   22  A    between atoms: O_43  and  C_44
REMARK   23  A    between atoms: C_49  and  O_50
REMARK   24  A    between atoms: O_50  and  C_51
REMARK   25  A    between atoms: C_52  and  O_53
REMARK                            x       y       z     vdW  Elec       q    Type
REMARK                         _______ _______ _______ _____ _____    ______ ____
ROOT
ATOM      1  O   LIG A   1       1.913   3.179   1.548  0.00  0.00    -0.346 OA
ENDROOT
BRANCH   1   4
ATOM      2  C   LIG A   1       3.905   2.123  -0.431  0.00  0.00    +0.153 C 
ATOM      3  C   LIG A   1       4.139   3.249   0.572  0.00  0.00    +0.207 C 
ATOM      4  C   LIG A   1       2.746   3.901   0.635  0.00  0.00    +0.282 C 
ATOM      5  O   LIG A   1       2.233   3.820  -0.708  0.00  0.00    -0.346 OA
ATOM      6  C   LIG A   1       2.976   2.815  -1.426  0.00  0.00    +0.204 C 
BRANCH   2   7
ATOM      7  O   LIG A   1       5.126   1.734  -1.080  0.00  0.00    -0.380 OA
ATOM      8  H   LIG A   1       5.813   2.363  -0.778  0.00  0.00    +0.210 HD
ENDBRANCH   2   7
BRANCH   3   9
ATOM      9  O   LIG A   1       5.151   4.134   0.048  0.00  0.00    -0.384 OA
ATOM     10  H   LIG A   1       4.795   4.572  -0.748  0.00  0.00    +0.210 HD
ENDBRANCH   3   9
BRANCH   2  11
ATOM     11  C   LIG A   1       3.304   0.904   0.285  0.00  0.00    +0.272 C 
BRANCH  11  12
ATOM     12  O   LIG A   1       3.080  -0.151  -0.646  0.00  0.00    -0.458 OA
BRANCH  12  13
ATOM     13  C   LIG A   1       3.617  -1.352  -0.301  0.00  0.00    +0.340 C 
ATOM     14  O   LIG A   1       4.204  -1.648   0.698  0.00  0.00    -0.245 OA
BRANCH  13  17
ATOM     15  C   LIG A   1       2.488  -2.770  -3.603  0.00  0.00    +0.166 A 
ATOM     16  C   LIG A   1       2.982  -1.881  -2.659  0.00  0.00    +0.064 A 
ATOM     17  C   LIG A   1       3.220  -2.308  -1.357  0.00  0.00    +0.066 A 
ATOM     18  C   LIG A   1       3.066  -3.634  -0.994  0.00  0.00    +0.064 A 
ATOM     19  C   LIG A   1       2.601  -4.562  -1.925  0.00  0.00    +0.166 A 
ATOM     20  C   LIG A   1       2.289  -4.109  -3.223  0.00  0.00    +0.201 A 
BRANCH  20  21
ATOM     21  O   LIG A   1       1.659  -4.940  -4.114  0.00  0.00    -0.501 OA
ATOM     22  H   LIG A   1       0.868  -5.257  -3.644  0.00  0.00    +0.292 HD
ENDBRANCH  20  21
BRANCH  15  24
ATOM     23  C   LIG A   1       1.757  -1.032  -5.027  0.00  0.00    +0.277 C 
ATOM     24  O   LIG A   1       2.177  -2.389  -4.884  0.00  0.00    -0.491 OA
ENDBRANCH  15  24
BRANCH  19  25
ATOM     25  O   LIG A   1       2.453  -5.894  -1.622  0.00  0.00    -0.491 OA
ATOM     26  C   LIG A   1       2.233  -6.180  -0.236  0.00  0.00    +0.277 C 
ENDBRANCH  19  25
ENDBRANCH  13  17
ENDBRANCH  12  13
ENDBRANCH  11  12
ENDBRANCH   2  11
ENDBRANCH   1   4
BRANCH   1  27
ATOM     27  C   LIG A   1       0.601   3.744   1.667  0.00  0.00    +0.197 C 
BRANCH  27  28
ATOM     28  C   LIG A   1      -0.298   2.938   2.635  0.00  0.00    +0.179 C 
ATOM     29  O   LIG A   1      -0.656   1.673   2.042  0.00  0.00    -0.331 OA
ATOM     30  C   LIG A   1      -1.682   0.990   2.785  0.00  0.00    +0.339 C 
ATOM     31  C   LIG A   1      -1.135   0.630   4.193  0.00  0.00    +0.214 C 
ATOM     32  C   LIG A   1      -0.579   1.879   4.891  0.00  0.00    +0.180 C 
ATOM     33  C   LIG A   1       0.359   2.704   4.001  0.00  0.00    +0.177 C 
BRANCH  31  34
ATOM     34  O   LIG A   1      -2.157   0.067   5.035  0.00  0.00    -0.383 OA
ATOM     35  H   LIG A   1      -1.788   0.031   5.939  0.00  0.00    +0.210 HD
ENDBRANCH  31  34
BRANCH  32  36
ATOM     36  O   LIG A   1       0.116   1.497   6.097  0.00  0.00    -0.386 OA
ATOM     37  H   LIG A   1       0.852   0.909   5.847  0.00  0.00    +0.210 HD
ENDBRANCH  32  36
BRANCH  33  38
ATOM     38  O   LIG A   1       0.639   3.949   4.652  0.00  0.00    -0.387 OA
ATOM     39  H   LIG A   1       0.851   3.737   5.583  0.00  0.00    +0.210 HD
ENDBRANCH  33  38
BRANCH  30  40
ATOM     40  O   LIG A   1      -2.086  -0.230   2.132  0.00  0.00    -0.461 OA
BRANCH  40  41
ATOM     41  C   LIG A   1      -2.988  -0.154   1.100  0.00  0.00    +0.131 A 
ATOM     42  C   LIG A   1      -3.708  -1.322   0.850  0.00  0.00    +0.095 A 
ATOM     43  C   LIG A   1      -4.593  -1.438  -0.239  0.00  0.00    +0.169 A 
ATOM     44  C   LIG A   1      -4.760  -0.365  -1.120  0.00  0.00    +0.204 A 
ATOM     45  C   LIG A   1      -4.072   0.841  -0.858  0.00  0.00    +0.169 A 
ATOM     46  C   LIG A   1      -3.202   0.935   0.264  0.00  0.00    +0.095 A 
BRANCH  44  47
ATOM     47  O   LIG A   1      -5.683  -0.391  -2.124  0.00  0.00    -0.488 OA
ATOM     48  C   LIG A   1      -5.819  -1.502  -2.999  0.00  0.00    +0.277 C 
ENDBRANCH  44  47
BRANCH  45  49
ATOM     49  O   LIG A   1      -4.131   2.002  -1.590  0.00  0.00    -0.491 OA
ATOM     50  C   LIG A   1      -4.894   2.101  -2.788  0.00  0.00    +0.277 C 
ENDBRANCH  45  49
BRANCH  43  51
ATOM     51  O   LIG A   1      -5.364  -2.554  -0.455  0.00  0.00    -0.491 OA
ATOM     52  C   LIG A   1      -4.904  -3.731   0.191  0.00  0.00    +0.277 C 
ENDBRANCH  43  51
ENDBRANCH  40  41
ENDBRANCH  30  40
ENDBRANCH  27  28
ENDBRANCH   1  27
TORSDOF 20
