@<TRIPOS>MOLECULE
NuBBE_2443
 42 44 0 0 0
SMALL
GASTEIGER

@<TRIPOS>ATOM
      1 C          -5.2830   -0.1996   -4.9879 C.3     1  LIG1        0.0788
      2 O          -3.9674    0.3461   -5.0106 O.3     1  LIG1       -0.4951
      3 C          -3.1787    0.0149   -3.9430 C.ar    1  LIG1        0.1201
      4 C          -3.6465   -0.2332   -2.6525 C.ar    1  LIG1       -0.0193
      5 C          -2.7484   -0.5509   -1.6297 C.ar    1  LIG1       -0.0476
      6 C          -1.3753   -0.6194   -1.8878 C.ar    1  LIG1        0.0176
      7 C          -0.9053   -0.3455   -3.1767 C.ar    1  LIG1       -0.0476
      8 C          -1.8058   -0.0217   -4.1957 C.ar    1  LIG1       -0.0193
      9 C          -0.4483   -0.9598   -0.8085 C.ar    1  LIG1        0.1392
     10 C          -0.1251   -2.2341   -0.5549 C.ar    1  LIG1        0.0288
     11 C           0.7941   -2.5027    0.5543 C.ar    1  LIG1        0.1966
     12 O           1.1110   -3.6567    0.8529 O.2     1  LIG1       -0.2869
     13 C           1.3130   -1.3503    1.3053 C.ar    1  LIG1        0.1060
     14 C           0.8720   -0.0719    0.9538 C.ar    1  LIG1        0.1491
     15 O           0.0063    0.1276   -0.0981 O.2     1  LIG1       -0.4541
     16 C           1.2758    1.0651    1.6853 C.ar    1  LIG1        0.0346
     17 C           0.6807    2.4047    1.3387 C.3     1  LIG1       -0.0327
     18 C           2.1941    0.8905    2.7442 C.ar    1  LIG1        0.1329
     19 C           2.6813   -0.3993    3.0736 C.ar    1  LIG1        0.0337
     20 C           2.2107   -1.5127    2.3638 C.ar    1  LIG1        0.1376
     21 O           2.6471   -2.7566    2.7504 O.3     1  LIG1       -0.5055
     22 C           3.6552   -0.5772    4.2120 C.3     1  LIG1       -0.0327
     23 O           2.5718    1.8865    3.6136 O.3     1  LIG1       -0.4943
     24 C           3.0245    3.1091    3.0454 C.3     1  LIG1        0.0788
     25 H          -5.7719    0.0660   -5.9301 H       1  LIG1        0.0660
     26 H          -5.8851    0.2259   -4.1794 H       1  LIG1        0.0660
     27 H          -5.2504   -1.2926   -4.9207 H       1  LIG1        0.0660
     28 H          -4.7001   -0.1650   -2.4050 H       1  LIG1        0.0654
     29 H          -3.1286   -0.7333   -0.6269 H       1  LIG1        0.0626
     30 H           0.1594   -0.3755   -3.3961 H       1  LIG1        0.0626
     31 H          -1.4357    0.1948   -5.1951 H       1  LIG1        0.0654
     32 H          -0.5082   -3.0772   -1.1142 H       1  LIG1        0.0693
     33 H          -0.1362    2.3369    0.6140 H       1  LIG1        0.0280
     34 H           1.4380    3.0541    0.8903 H       1  LIG1        0.0280
     35 H           0.2535    2.8716    2.2313 H       1  LIG1        0.0280
     36 H           2.2067   -3.4349    2.1909 H       1  LIG1        0.2922
     37 H           4.4302    0.1963    4.1815 H       1  LIG1        0.0280
     38 H           4.1835   -1.5349    4.1577 H       1  LIG1        0.0280
     39 H           3.1292   -0.5271    5.1698 H       1  LIG1        0.0280
     40 H           3.7436    3.5561    3.7390 H       1  LIG1        0.0660
     41 H           2.1930    3.8145    2.9633 H       1  LIG1        0.0660
     42 H           3.5252    2.9713    2.0817 H       1  LIG1        0.0660
@<TRIPOS>BOND
     1     1     2    1
     2     2     3    1
     3     3     4   ar
     4     4     5   ar
     5     5     6   ar
     6     6     7   ar
     7     7     8   ar
     8     3     8   ar
     9     6     9    1
    10     9    10   ar
    11    10    11   ar
    12    11    12    2
    13    11    13   ar
    14    13    14   ar
    15    14    15   ar
    16     9    15   ar
    17    14    16   ar
    18    16    17    1
    19    16    18   ar
    20    18    19   ar
    21    19    20   ar
    22    13    20   ar
    23    20    21    1
    24    19    22    1
    25    18    23    1
    26    23    24    1
    27     1    25    1
    28     1    26    1
    29     1    27    1
    30     4    28    1
    31     5    29    1
    32     7    30    1
    33     8    31    1
    34    10    32    1
    35    17    33    1
    36    17    34    1
    37    17    35    1
    38    21    36    1
    39    22    37    1
    40    22    38    1
    41    22    39    1
    42    24    40    1
    43    24    41    1
    44    24    42    1
