REMARK  Name = NuBBE_1038
REMARK  9 active torsions:
REMARK  status: ('A' for Active; 'I' for Inactive)
REMARK    1  A    between atoms: C_5  and  C_6
REMARK    2  A    between atoms: C_10  and  C_11
REMARK    3  A    between atoms: C_17  and  C_18
REMARK    4  A    between atoms: C_21  and  C_22
REMARK    5  A    between atoms: C_22  and  O_23
REMARK    6  A    between atoms: C_30  and  C_31
REMARK    7  A    between atoms: C_30  and  C_32
REMARK    8  A    between atoms: C_36  and  C_37
REMARK    9  A    between atoms: C_36  and  C_38
REMARK                            x       y       z     vdW  Elec       q    Type
REMARK                         _______ _______ _______ _____ _____    ______ ____
ROOT
ATOM      1  O   LIG A   1      -6.366  -1.012  -2.686  0.00  0.00    -0.297 OA
ATOM      2  C   LIG A   1      -5.202  -1.225  -2.344  0.00  0.00    +0.139 C 
ATOM      3  C   LIG A   1      -4.850  -2.467  -1.535  0.00  0.00    +0.075 C 
ATOM      4  C   LIG A   1      -3.928  -2.211  -0.330  0.00  0.00    +0.015 C 
ATOM      5  C   LIG A   1      -3.157  -0.854  -0.386  0.00  0.00    -0.024 C 
ATOM      6  C   LIG A   1      -4.158   0.181   0.206  0.00  0.00    +0.012 C 
ATOM      7  C   LIG A   1      -2.815  -0.617  -1.897  0.00  0.00    +0.008 C 
ATOM      8  C   LIG A   1      -1.602   0.296  -2.046  0.00  0.00    +0.005 C 
ATOM      9  C   LIG A   1      -0.325  -0.402  -1.535  0.00  0.00    +0.008 C 
ATOM     10  C   LIG A   1      -0.501  -1.325  -0.272  0.00  0.00    -0.019 C 
ATOM     11  C   LIG A   1      -0.617  -2.804  -0.745  0.00  0.00    +0.012 C 
ATOM     12  C   LIG A   1      -1.814  -0.892   0.506  0.00  0.00    +0.006 C 
ATOM     13  C   LIG A   1      -1.573   0.435   1.308  0.00  0.00    +0.031 C 
ATOM     14  C   LIG A   1      -0.171   0.914   1.520  0.00  0.00    -0.026 C 
ATOM     15  C   LIG A   1       0.932   0.233   1.175  0.00  0.00    -0.063 C 
ATOM     16  C   LIG A   1       0.785  -1.214   0.705  0.00  0.00    -0.005 C 
ATOM     17  C   LIG A   1       0.606  -2.115   1.965  0.00  0.00    +0.016 C 
ATOM     18  C   LIG A   1       2.110  -1.649   0.012  0.00  0.00    +0.012 C 
ATOM     19  C   LIG A   1       3.372  -1.440   0.874  0.00  0.00    +0.019 C 
ATOM     20  C   LIG A   1       3.459  -0.060   1.597  0.00  0.00    +0.074 C 
ATOM     21  C   LIG A   1       2.325   0.871   1.079  0.00  0.00    +0.033 C 
ATOM     22  C   LIG A   1       2.455   2.332   1.581  0.00  0.00    +0.015 C 
ATOM     23  C   LIG A   1       3.844   2.963   1.324  0.00  0.00    -0.034 C 
ATOM     24  C   LIG A   1       3.934   4.298   2.088  0.00  0.00    +0.011 C 
ATOM     25  C   LIG A   1       4.031   3.273  -0.177  0.00  0.00    +0.011 C 
ATOM     26  C   LIG A   1       4.957   2.023   1.824  0.00  0.00    +0.007 C 
ATOM     27  C   LIG A   1       4.831   0.597   1.283  0.00  0.00    +0.019 C 
ATOM     28  C   LIG A   1      -4.042  -0.329  -2.814  0.00  0.00    +0.027 C 
ATOM     29  C   LIG A   1      -4.479   1.144  -2.853  0.00  0.00    +0.019 C 
ATOM     30  C   LIG A   1      -3.723  -0.753  -4.266  0.00  0.00    +0.019 C 
ENDROOT
BRANCH  20  31
ATOM     31  C   LIG A   1       3.376  -0.266   3.127  0.00  0.00    +0.311 C 
ATOM     32  O   LIG A   1       2.581   0.280   3.875  0.00  0.00    -0.250 OA
BRANCH  31  33
ATOM     33  O   LIG A   1       4.312  -1.112   3.626  0.00  0.00    -0.480 OA
ATOM     34  H   LIG A   1       4.914  -1.501   2.967  0.00  0.00    +0.295 HD
ENDBRANCH  31  33
ENDBRANCH  20  31
TORSDOF 2
