@<TRIPOS>MOLECULE
NuBBE_1199
 84 87 0 0 0
SMALL
GASTEIGER

@<TRIPOS>ATOM
      1 C          -1.4266   -2.8330    1.9744 C.3     1  LIG1       -0.0355
      2 C          -0.9153   -1.5587    2.6834 C.3     1  LIG1        0.0704
      3 O           0.3682   -1.2596    2.1043 O.3     1  LIG1       -0.3673
      4 C           1.4292   -1.5894    3.0360 C.3     1  LIG1        0.0876
      5 H           1.7035   -0.6410    3.5196 H       1  LIG1        0.0625
      6 C           2.6648   -2.1302    2.2738 C.3     1  LIG1        0.0865
      7 C           2.3413   -3.3169    1.3608 C.3     1  LIG1       -0.0339
      8 O           3.1523   -1.0802    1.4236 O.3     1  LIG1       -0.3866
      9 C           3.8070   -2.4776    3.2253 C.3     1  LIG1       -0.0339
     10 C           0.8083   -2.5141    4.0628 C.3     1  LIG1       -0.0213
     11 C          -0.6034   -1.9729    4.1424 C.3     1  LIG1       -0.0213
     12 C          -1.9219   -0.3339    2.6362 C.3     1  LIG1       -0.0088
     13 H          -2.7851   -0.7312    3.1963 H       1  LIG1        0.0331
     14 C          -1.4599    0.9308    3.3987 C.3     1  LIG1       -0.0468
     15 C          -1.5645    2.1626    2.4745 C.3     1  LIG1       -0.0465
     16 C          -1.8905    1.6817    1.0365 C.3     1  LIG1       -0.0232
     17 C          -2.9907    2.6215    0.4656 C.3     1  LIG1       -0.0588
     18 C          -0.6322    1.6187    0.0024 C.3     1  LIG1       -0.0231
     19 C          -0.9386    0.5999   -1.1590 C.3     1  LIG1       -0.0292
     20 C          -1.5071   -0.7292   -0.6604 C.3     1  LIG1       -0.0489
     21 C          -2.7752   -0.5683    0.1437 C.3     1  LIG1       -0.0491
     22 C          -2.5559    0.2950    1.3580 C.3     1  LIG1       -0.0297
     23 C           0.6738    1.3899    0.7836 C.3     1  LIG1       -0.0588
     24 C          -0.3789    2.9421   -0.7921 C.3     1  LIG1       -0.0463
     25 C           0.9096    2.8821   -1.6291 C.3     1  LIG1       -0.0455
     26 C           1.0609    1.6751   -2.5899 C.3     1  LIG1       -0.0147
     27 C           0.1712    0.3819   -2.2878 C.3     1  LIG1       -0.0217
     28 C           1.0499   -0.8655   -1.9470 C.3     1  LIG1       -0.0587
     29 C          -0.5693   -0.0450   -3.6362 C.3     1  LIG1       -0.0367
     30 C          -1.5779    0.9634   -4.2049 C.3     1  LIG1        0.0453
     31 C          -2.2249    0.4155   -5.4479 C.2     1  LIG1        0.3047
     32 O          -3.3888   -0.2150   -5.2558 O.3     1  LIG1       -0.4806
     33 O          -1.7519    0.5346   -6.6071 O.2     1  LIG1       -0.2510
     34 C           2.5471    1.4497   -2.9568 C.2     1  LIG1       -0.0761
     35 C           2.9284    1.5586   -4.4130 C.3     1  LIG1       -0.0438
     36 C           3.5313    1.2451   -2.0606 C.2     1  LIG1       -0.0994
     37 H          -0.7437   -3.6756    2.1375 H       1  LIG1        0.0257
     38 H          -1.4537   -2.7597    0.8898 H       1  LIG1        0.0257
     39 H          -2.4174   -3.1256    2.3297 H       1  LIG1        0.0257
     40 H           1.5594   -3.0615    0.6367 H       1  LIG1        0.0258
     41 H           2.0193   -4.1961    1.9256 H       1  LIG1        0.0258
     42 H           3.2194   -3.5979    0.7673 H       1  LIG1        0.0258
     43 H           2.3624   -0.7508    0.9581 H       1  LIG1        0.2102
     44 H           3.5341   -3.2771    3.9197 H       1  LIG1        0.0258
     45 H           4.1080   -1.5966    3.8040 H       1  LIG1        0.0258
     46 H           4.6955   -2.7947    2.6667 H       1  LIG1        0.0258
     47 H           1.3296   -2.4935    5.0237 H       1  LIG1        0.0292
     48 H           0.7951   -3.5524    3.7183 H       1  LIG1        0.0292
     49 H          -0.6159   -1.1217    4.8296 H       1  LIG1        0.0294
     50 H          -1.3116   -2.7110    4.5338 H       1  LIG1        0.0294
     51 H          -0.4485    0.8448    3.8037 H       1  LIG1        0.0269
     52 H          -2.1250    1.0868    4.2603 H       1  LIG1        0.0269
     53 H          -0.6610    2.7768    2.5293 H       1  LIG1        0.0271
     54 H          -2.3686    2.8024    2.8634 H       1  LIG1        0.0271
     55 H          -2.6451    3.6595    0.4187 H       1  LIG1        0.0235
     56 H          -3.8864    2.6262    1.0994 H       1  LIG1        0.0235
     57 H          -3.3131    2.3174   -0.5344 H       1  LIG1        0.0235
     58 H          -1.7886    1.0644   -1.6648 H       1  LIG1        0.0312
     59 H          -0.7332   -1.2162   -0.0753 H       1  LIG1        0.0268
     60 H          -1.7531   -1.3916   -1.4951 H       1  LIG1        0.0268
     61 H          -3.1986   -1.5365    0.4288 H       1  LIG1        0.0268
     62 H          -3.5427   -0.1066   -0.4933 H       1  LIG1        0.0268
     63 H          -3.5812    0.5288    1.6973 H       1  LIG1        0.0310
     64 H           0.5405    0.8449    1.7049 H       1  LIG1        0.0235
     65 H           1.1139    2.3446    1.1049 H       1  LIG1        0.0235
     66 H           1.4317    0.8852    0.1968 H       1  LIG1        0.0235
     67 H          -0.3076    3.7934   -0.1041 H       1  LIG1        0.0271
     68 H          -1.2124    3.1655   -1.4706 H       1  LIG1        0.0271
     69 H           1.7717    2.9591   -0.9585 H       1  LIG1        0.0271
     70 H           0.9614    3.7995   -2.2329 H       1  LIG1        0.0271
     71 H           0.6557    2.0887   -3.5191 H       1  LIG1        0.0351
     72 H           1.5727   -0.7630   -0.9981 H       1  LIG1        0.0235
     73 H           1.7917   -1.0746   -2.7247 H       1  LIG1        0.0235
     74 H           0.4541   -1.7846   -1.8775 H       1  LIG1        0.0235
     75 H           0.1920   -0.2690   -4.3969 H       1  LIG1        0.0276
     76 H          -1.0922   -0.9992   -3.4866 H       1  LIG1        0.0276
     77 H          -1.1234    1.9141   -4.4720 H       1  LIG1        0.0378
     78 H          -2.3900    1.1911   -3.5183 H       1  LIG1        0.0378
     79 H          -3.7017   -0.4364   -6.1426 H       1  LIG1        0.2951
     80 H           3.8263    0.9721   -4.6447 H       1  LIG1        0.0274
     81 H           3.1429    2.6046   -4.6579 H       1  LIG1        0.0274
     82 H           2.1297    1.1975   -5.0673 H       1  LIG1        0.0274
     83 H           4.5695    1.1532   -2.3742 H       1  LIG1        0.0534
     84 H           3.3501    1.1846   -0.9933 H       1  LIG1        0.0534
@<TRIPOS>BOND
     1     2     3    1
     2     3     4    1
     3     4     5    1
     4     4     6    1
     5     6     7    1
     6     6     8    1
     7     6     9    1
     8     4    10    1
     9    10    11    1
    10     2    11    1
    11    12    14    1
    12    14    15    1
    13    15    16    1
    14    16    18    1
    15    18    19    1
    16    19    20    1
    17    20    21    1
    18    21    22    1
    19    16    22    1
    20    12    22    1
    21    18    24    1
    22    24    25    1
    23    25    26    1
    24    26    27    1
    25    19    27    1
    26    29    30    1
    27    30    31    1
    28    31    32    1
    29    31    33    2
    30    34    35    1
    31    34    36    2
    32    12    13    1
    33    16    17    1
    34    18    23    1
    35    26    34    1
    36     2    12    1
    37     2     1    1
    38    27    29    1
    39    27    28    1
    40     1    37    1
    41     1    38    1
    42     1    39    1
    43     7    40    1
    44     7    41    1
    45     7    42    1
    46     8    43    1
    47     9    44    1
    48     9    45    1
    49     9    46    1
    50    10    47    1
    51    10    48    1
    52    11    49    1
    53    11    50    1
    54    14    51    1
    55    14    52    1
    56    15    53    1
    57    15    54    1
    58    17    55    1
    59    17    56    1
    60    17    57    1
    61    19    58    1
    62    20    59    1
    63    20    60    1
    64    21    61    1
    65    21    62    1
    66    22    63    1
    67    23    64    1
    68    23    65    1
    69    23    66    1
    70    24    67    1
    71    24    68    1
    72    25    69    1
    73    25    70    1
    74    26    71    1
    75    28    72    1
    76    28    73    1
    77    28    74    1
    78    29    75    1
    79    29    76    1
    80    30    77    1
    81    30    78    1
    82    32    79    1
    83    35    80    1
    84    35    81    1
    85    35    82    1
    86    36    83    1
    87    36    84    1
