REMARK  Name = NuBBE_28
REMARK  5 active torsions:
REMARK  status: ('A' for Active; 'I' for Inactive)
REMARK    1  A    between atoms: C_2  and  C_9
REMARK    2  A    between atoms: C_9  and  C_10
REMARK    3  A    between atoms: C_10  and  C_11
REMARK    4  A    between atoms: C_11  and  C_12
REMARK    5  A    between atoms: C_12  and  C_13
REMARK                            x       y       z     vdW  Elec       q    Type
REMARK                         _______ _______ _______ _____ _____    ______ ____
ROOT
ATOM      1  C   LIG A   1       0.884  -0.401   1.025  0.00  0.00    +0.005 C 
ENDROOT
BRANCH   1   2
ATOM      2  C   LIG A   1       1.238   0.748   0.072  0.00  0.00    +0.010 C 
BRANCH   2   3
ATOM      3  C   LIG A   1       0.063   1.035  -0.863  0.00  0.00    +0.096 C 
BRANCH   3   5
ATOM      4  O   LIG A   1       1.394   2.741  -1.923  0.00  0.00    -0.276 OA
ATOM      5  C   LIG A   1       0.323   2.146  -1.875  0.00  0.00    +0.216 C 
ATOM      6  N   LIG A   1      -0.735   2.404  -2.766  0.00  0.00    -0.301 N 
ATOM      7  C   LIG A   1      -0.513   3.473  -3.741  0.00  0.00    +0.107 C 
ATOM      8  C   LIG A   1      -1.499   3.429  -4.905  0.00  0.00    +0.019 C 
ATOM      9  C   LIG A   1      -2.933   3.402  -4.395  0.00  0.00    +0.003 C 
ATOM     10  C   LIG A   1      -3.127   2.186  -3.503  0.00  0.00    +0.019 C 
ATOM     11  C   LIG A   1      -2.122   2.161  -2.358  0.00  0.00    +0.107 C 
ENDBRANCH   3   5
ENDBRANCH   2   3
ENDBRANCH   1   2
BRANCH   1  12
ATOM     12  C   LIG A   1       2.030  -0.720   1.986  0.00  0.00    +0.035 C 
BRANCH  12  13
ATOM     13  C   LIG A   1       1.683  -1.857   2.919  0.00  0.00    -0.044 A 
ATOM     14  C   LIG A   1       1.983  -3.182   2.562  0.00  0.00    +0.053 A 
ATOM     15  C   LIG A   1       1.636  -4.188   3.440  0.00  0.00    +0.167 A 
ATOM     16  O   LIG A   1       1.849  -5.518   3.250  0.00  0.00    -0.453 OA
ATOM     17  C   LIG A   1       1.247  -6.062   4.443  0.00  0.00    +0.466 C 
ATOM     18  O   LIG A   1       0.756  -5.053   5.350  0.00  0.00    -0.453 OA
ATOM     19  C   LIG A   1       1.014  -3.924   4.637  0.00  0.00    +0.166 A 
ATOM     20  C   LIG A   1       0.702  -2.639   5.022  0.00  0.00    +0.050 A 
ATOM     21  C   LIG A   1       1.037  -1.598   4.150  0.00  0.00    +0.007 A 
ENDBRANCH  12  13
ENDBRANCH   1  12
TORSDOF 5
