@<TRIPOS>MOLECULE
NuBBE_2440
 48 49 0 0 0
SMALL
GASTEIGER

@<TRIPOS>ATOM
      1 C          -0.9989   -0.6096    0.3136 C.3     1  LIG1       -0.0082
      2 C          -1.4781   -1.3951    1.5175 C.2     1  LIG1       -0.0810
      3 C          -2.7697   -1.6374    1.8269 C.2     1  LIG1       -0.0793
      4 C          -3.9387   -1.0607    1.0752 C.3     1  LIG1       -0.0440
      5 C          -3.1496   -2.5481    2.9656 C.3     1  LIG1       -0.0440
      6 C           0.5177   -0.4626    0.1758 C.ar    1  LIG1       -0.0258
      7 C           1.3337   -1.6252    0.0839 C.ar    1  LIG1        0.0252
      8 C           2.7163   -1.4705    0.0158 C.ar    1  LIG1        0.1842
      9 C           3.3355   -0.2257   -0.0291 C.ar    1  LIG1        0.2027
     10 C           2.5624    0.9385   -0.0477 C.ar    1  LIG1        0.1687
     11 C           1.1386    0.8354    0.0764 C.ar    1  LIG1        0.0059
     12 C           0.3088    2.1299    0.0981 C.3     1  LIG1       -0.0054
     13 C          -0.1781    2.5946   -1.2588 C.2     1  LIG1       -0.0809
     14 C          -1.4411    2.7795   -1.7047 C.2     1  LIG1       -0.0793
     15 C          -2.6987    2.5047   -0.9264 C.3     1  LIG1       -0.0440
     16 C          -1.7003    3.3270   -3.0897 C.3     1  LIG1       -0.0440
     17 O           3.0605    2.2143   -0.1827 O.3     1  LIG1       -0.4910
     18 C           4.4639    2.3808   -0.3704 C.3     1  LIG1        0.0790
     19 O           4.7069   -0.2124   -0.0615 O.3     1  LIG1       -0.5009
     20 O           3.5836   -2.5805   -0.0304 O.2     1  LIG1       -0.4183
     21 C           3.1230   -3.8811   -0.0854 C.ar    1  LIG1        0.3373
     22 O           3.8785   -4.8497   -0.1655 O.2     1  LIG1       -0.2452
     23 C           1.6752   -4.0442   -0.0468 C.ar    1  LIG1        0.0236
     24 C           0.8314   -3.0029    0.0272 C.ar    1  LIG1       -0.0439
     25 H          -1.4885    0.3598    0.3568 H       1  LIG1        0.0356
     26 H          -1.3588   -1.0916   -0.6041 H       1  LIG1        0.0356
     27 H          -0.7098   -1.8298    2.1557 H       1  LIG1        0.0575
     28 H          -3.6788   -0.7542    0.0588 H       1  LIG1        0.0274
     29 H          -4.3256   -0.1869    1.6107 H       1  LIG1        0.0274
     30 H          -4.7478   -1.7941    0.9926 H       1  LIG1        0.0274
     31 H          -2.2810   -2.8867    3.5393 H       1  LIG1        0.0274
     32 H          -3.6507   -3.4401    2.5708 H       1  LIG1        0.0274
     33 H          -3.8358   -2.0455    3.6542 H       1  LIG1        0.0274
     34 H           0.9156    2.9430    0.5184 H       1  LIG1        0.0357
     35 H          -0.5012    2.0442    0.8263 H       1  LIG1        0.0357
     36 H           0.6381    2.8547   -1.9352 H       1  LIG1        0.0575
     37 H          -2.5278    2.4016    0.1465 H       1  LIG1        0.0274
     38 H          -3.1710    1.5884   -1.2960 H       1  LIG1        0.0274
     39 H          -3.4156    3.3249   -1.0480 H       1  LIG1        0.0274
     40 H          -0.8237    3.8325   -3.5078 H       1  LIG1        0.0274
     41 H          -2.5098    4.0668   -3.0692 H       1  LIG1        0.0274
     42 H          -1.9958    2.5209   -3.7685 H       1  LIG1        0.0274
     43 H           5.0109    2.1338    0.5464 H       1  LIG1        0.0660
     44 H           4.6560    3.4361   -0.5853 H       1  LIG1        0.0660
     45 H           4.8327    1.8172   -1.2348 H       1  LIG1        0.0660
     46 H           5.0073   -1.1409   -0.0384 H       1  LIG1        0.2924
     47 H           1.3114   -5.0644   -0.0944 H       1  LIG1        0.0689
     48 H          -0.2330   -3.1888    0.0284 H       1  LIG1        0.0627
@<TRIPOS>BOND
     1     1     2    1
     2     2     3    2
     3     3     4    1
     4     3     5    1
     5     1     6    1
     6     6     7   ar
     7     7     8   ar
     8     8     9   ar
     9     9    10   ar
    10    10    11   ar
    11     6    11   ar
    12    11    12    1
    13    12    13    1
    14    13    14    2
    15    14    15    1
    16    14    16    1
    17    10    17    1
    18    17    18    1
    19     9    19    1
    20     8    20   ar
    21    20    21   ar
    22    21    22    2
    23    21    23   ar
    24    23    24   ar
    25     7    24   ar
    26     1    25    1
    27     1    26    1
    28     2    27    1
    29     4    28    1
    30     4    29    1
    31     4    30    1
    32     5    31    1
    33     5    32    1
    34     5    33    1
    35    12    34    1
    36    12    35    1
    37    13    36    1
    38    15    37    1
    39    15    38    1
    40    15    39    1
    41    16    40    1
    42    16    41    1
    43    16    42    1
    44    18    43    1
    45    18    44    1
    46    18    45    1
    47    19    46    1
    48    23    47    1
    49    24    48    1
