REMARK  Name = NuBBE_1592
REMARK  11 active torsions:
REMARK  status: ('A' for Active; 'I' for Inactive)
REMARK    1  A    between atoms: C_1  and  O_2
REMARK    2  A    between atoms: O_2  and  C_3
REMARK    3  A    between atoms: C_6  and  C_7
REMARK    4  A    between atoms: C_6  and  C_8
REMARK    5  A    between atoms: C_12  and  O_13
REMARK    6  A    between atoms: O_13  and  C_14
REMARK    7  A    between atoms: C_18  and  C_19
REMARK    8  A    between atoms: C_21  and  O_22
REMARK    9  A    between atoms: O_22  and  C_23
REMARK   10  A    between atoms: C_24  and  O_25
REMARK   11  A    between atoms: O_25  and  C_26
REMARK                            x       y       z     vdW  Elec       q    Type
REMARK                         _______ _______ _______ _____ _____    ______ ____
ROOT
ATOM      1  C   LIG A   1      -1.002  -1.184  -0.928  0.00  0.00    +0.206 A 
ATOM      2  C   LIG A   1      -1.215  -2.564  -1.078  0.00  0.00    +0.177 A 
ATOM      3  O   LIG A   1      -2.009  -2.940  -2.117  0.00  0.00    -0.478 OA
ATOM      4  C   LIG A   1      -2.375  -4.294  -2.353  0.00  0.00    +0.124 C 
ATOM      5  C   LIG A   1      -1.858  -4.596  -3.762  0.00  0.00    +0.060 C 
ATOM      6  C   LIG A   1      -3.911  -4.326  -2.353  0.00  0.00    +0.060 C 
ATOM      7  C   LIG A   1      -1.808  -5.262  -1.353  0.00  0.00    +0.020 C 
ATOM      8  C   LIG A   1      -0.972  -4.898  -0.373  0.00  0.00    +0.015 C 
ATOM      9  C   LIG A   1      -0.608  -3.486  -0.222  0.00  0.00    +0.063 A 
ATOM     10  C   LIG A   1       0.301  -3.031   0.757  0.00  0.00    +0.145 A 
ATOM     11  C   LIG A   1       0.576  -1.651   0.879  0.00  0.00    +0.110 A 
ATOM     12  C   LIG A   1      -0.083  -0.732   0.037  0.00  0.00    +0.188 A 
ATOM     13  O   LIG A   1       0.152   0.623   0.098  0.00  0.00    -0.451 OA
ATOM     14  C   LIG A   1       1.057   1.121   1.020  0.00  0.00    +0.140 A 
ATOM     15  C   LIG A   1       1.711   0.354   1.903  0.00  0.00    +0.098 A 
ATOM     16  C   LIG A   1       1.547  -1.090   1.833  0.00  0.00    +0.197 A 
ATOM     17  O   LIG A   1       2.261  -1.775   2.590  0.00  0.00    -0.287 OA
ENDROOT
BRANCH  14  18
ATOM     18  C   LIG A   1       1.281   2.577   0.962  0.00  0.00    +0.021 A 
ATOM     19  C   LIG A   1       2.542   3.165   1.183  0.00  0.00    +0.061 A 
ATOM     20  C   LIG A   1       2.746   4.545   1.022  0.00  0.00    +0.162 A 
ATOM     21  C   LIG A   1       1.675   5.369   0.648  0.00  0.00    +0.162 A 
ATOM     22  C   LIG A   1       0.426   4.777   0.416  0.00  0.00    +0.050 A 
ATOM     23  C   LIG A   1       0.230   3.405   0.573  0.00  0.00    +0.015 A 
BRANCH  20  24
ATOM     24  O   LIG A   1       4.055   4.955   1.055  0.00  0.00    -0.491 OA
ATOM     25  C   LIG A   1       4.402   5.809   2.140  0.00  0.00    +0.277 C 
ENDBRANCH  20  24
BRANCH  21  26
ATOM     26  O   LIG A   1       1.901   6.705   0.429  0.00  0.00    -0.491 OA
ATOM     27  C   LIG A   1       0.770   7.549   0.659  0.00  0.00    +0.277 C 
ENDBRANCH  21  26
ENDBRANCH  14  18
BRANCH   1  29
ATOM     28  C   LIG A   1      -2.942  -0.599  -2.181  0.00  0.00    +0.277 C 
ATOM     29  O   LIG A   1      -1.641  -0.231  -1.700  0.00  0.00    -0.488 OA
ENDBRANCH   1  29
BRANCH  10  30
ATOM     30  O   LIG A   1       1.013  -3.998   1.426  0.00  0.00    -0.494 OA
ATOM     31  C   LIG A   1       0.733  -4.094   2.821  0.00  0.00    +0.277 C 
ENDBRANCH  10  30
TORSDOF 5
