REMARK  Name = NuBBE_1721
REMARK  13 active torsions:
REMARK  status: ('A' for Active; 'I' for Inactive)
REMARK    1  A    between atoms: C_1  and  C_2
REMARK    2  A    between atoms: C_4  and  O_5
REMARK    3  A    between atoms: O_5  and  C_6
REMARK    4  A    between atoms: C_6  and  C_8
REMARK    5  A    between atoms: C_9  and  O_21
REMARK    6  A    between atoms: C_15  and  C_16
REMARK    7  A    between atoms: C_15  and  O_17
REMARK    8  A    between atoms: O_21  and  C_22
REMARK    9  A    between atoms: C_22  and  C_24
REMARK   10  A    between atoms: C_25  and  C_26
REMARK   11  A    between atoms: C_25  and  C_30
REMARK   12  A    between atoms: C_26  and  O_28
REMARK   13  A    between atoms: O_28  and  C_29
REMARK                            x       y       z     vdW  Elec       q    Type
REMARK                         _______ _______ _______ _____ _____    ______ ____
ROOT
ATOM      1  C   LIG A   1      -2.562   0.887   0.465  0.00  0.00    +0.012 C 
ATOM      2  C   LIG A   1      -1.007   0.995   0.381  0.00  0.00    -0.021 C 
ATOM      3  C   LIG A   1      -0.323   0.420  -0.927  0.00  0.00    +0.056 C 
ATOM      4  C   LIG A   1       0.233  -1.015  -0.857  0.00  0.00    +0.222 C 
ATOM      5  C   LIG A   1       0.661  -1.580   0.522  0.00  0.00    +0.223 C 
ATOM      6  C   LIG A   1       0.730  -0.575   1.702  0.00  0.00    +0.073 C 
ATOM      7  C   LIG A   1      -0.555   0.298   1.728  0.00  0.00    +0.012 C 
ATOM      8  C   LIG A   1      -0.645   1.184   3.010  0.00  0.00    +0.079 C 
ATOM      9  C   LIG A   1       0.680   1.729   3.347  0.00  0.00    +0.111 A 
ATOM     10  C   LIG A   1       1.908   1.311   2.900  0.00  0.00    +0.025 A 
ATOM     11  C   LIG A   1       2.075   0.220   1.885  0.00  0.00    +0.098 C 
ATOM     12  C   LIG A   1       3.202  -0.736   2.337  0.00  0.00    +0.047 C 
ATOM     13  C   LIG A   1       2.850   2.159   3.538  0.00  0.00    +0.048 A 
ATOM     14  C   LIG A   1       2.119   3.015   4.333  0.00  0.00    +0.195 A 
ATOM     15  O   LIG A   1       0.788   2.753   4.225  0.00  0.00    -0.467 OA
ATOM     16  C   LIG A   1      -1.106   0.824  -2.256  0.00  0.00    +0.072 C 
ATOM     17  C   LIG A   1      -0.310   0.475  -3.549  0.00  0.00    +0.023 C 
ATOM     18  C   LIG A   1      -1.243   2.381  -2.289  0.00  0.00    +0.018 C 
ATOM     19  C   LIG A   1      -1.340   3.151  -0.965  0.00  0.00    +0.002 C 
ATOM     20  C   LIG A   1      -0.683   2.511   0.269  0.00  0.00    +0.007 C 
ENDROOT
BRANCH  11  21
ATOM     21  O   LIG A   1       2.404   0.858   0.665  0.00  0.00    -0.384 OA
ATOM     22  H   LIG A   1       3.273   0.521   0.370  0.00  0.00    +0.211 HD
ENDBRANCH  11  21
BRANCH  16  23
ATOM     23  C   LIG A   1      -2.456   0.056  -2.460  0.00  0.00    +0.313 C 
ATOM     24  O   LIG A   1      -2.548  -1.156  -2.536  0.00  0.00    -0.250 OA
BRANCH  23  25
ATOM     25  O   LIG A   1      -3.521   0.900  -2.609  0.00  0.00    -0.468 OA
ATOM     26  C   LIG A   1      -4.759   0.264  -2.954  0.00  0.00    +0.280 C 
ENDBRANCH  23  25
ENDBRANCH  16  23
BRANCH   4  27
ATOM     27  O   LIG A   1       1.269  -1.234  -1.887  0.00  0.00    -0.458 OA
BRANCH  27  28
ATOM     28  C   LIG A   1       2.585  -1.456  -1.652  0.00  0.00    +0.304 C 
ATOM     29  O   LIG A   1       3.308  -0.887  -0.840  0.00  0.00    -0.251 OA
ATOM     30  C   LIG A   1       3.064  -2.603  -2.486  0.00  0.00    +0.136 C 
ENDBRANCH  27  28
ENDBRANCH   4  27
BRANCH   5  31
ATOM     31  O   LIG A   1      -0.256  -2.641   0.961  0.00  0.00    -0.457 OA
BRANCH  31  32
ATOM     32  C   LIG A   1      -0.335  -3.760   0.192  0.00  0.00    +0.304 C 
ATOM     33  O   LIG A   1      -0.234  -3.807  -1.044  0.00  0.00    -0.251 OA
ATOM     34  C   LIG A   1      -0.342  -4.976   1.038  0.00  0.00    +0.136 C 
ENDBRANCH  31  32
ENDBRANCH   5  31
TORSDOF 7
