REMARK  Name = NuBBE_1951
REMARK  3 active torsions:
REMARK  status: ('A' for Active; 'I' for Inactive)
REMARK    1  A    between atoms: C_1  and  O_3
REMARK    2  A    between atoms: C_1  and  C_4
REMARK    3  A    between atoms: N_6  and  C_7
REMARK                            x       y       z     vdW  Elec       q    Type
REMARK                         _______ _______ _______ _____ _____    ______ ____
ROOT
ATOM      1  C   LIG A   1      -0.438  -0.009  -0.996  0.00  0.00    +0.166 C 
ATOM      2  N   LIG A   1       0.312   0.991  -0.198  0.00  0.00    -0.293 NA
ATOM      3  C   LIG A   1      -0.405   1.771   0.795  0.00  0.00    +0.105 C 
ATOM      4  C   LIG A   1       1.545   0.380   0.291  0.00  0.00    +0.085 C 
ATOM      5  C   LIG A   1       1.260  -1.107   0.327  0.00  0.00    +0.017 C 
ATOM      6  C   LIG A   1       0.343  -1.320  -0.866  0.00  0.00    +0.031 C 
ENDROOT
BRANCH   1   7
ATOM      7  C   LIG A   1      -1.919  -0.180  -0.640  0.00  0.00    +0.322 C 
ATOM      8  O   LIG A   1      -2.838   0.125  -1.391  0.00  0.00    -0.249 OA
BRANCH   7   9
ATOM      9  O   LIG A   1      -2.155  -0.698   0.589  0.00  0.00    -0.479 OA
ATOM     10  H   LIG A   1      -1.334  -0.848   1.093  0.00  0.00    +0.295 HD
ENDBRANCH   7   9
ENDBRANCH   1   7
TORSDOF 2
