REMARK  Name = NuBBE_1201
REMARK  3 active torsions:
REMARK  status: ('A' for Active; 'I' for Inactive)
REMARK    1  A    between atoms: O_1  and  C_2
REMARK    2  A    between atoms: C_2  and  C_3
REMARK    3  A    between atoms: C_6  and  C_7
REMARK                            x       y       z     vdW  Elec       q    Type
REMARK                         _______ _______ _______ _____ _____    ______ ____
ROOT
ATOM      1  C   LIG A   1      -0.218  -0.282  -0.534  0.00  0.00    +0.131 A 
ATOM      2  C   LIG A   1      -0.411   1.083  -0.587  0.00  0.00    +0.048 A 
ATOM      3  C   LIG A   1       0.093   1.611   0.624  0.00  0.00    +0.053 A 
ATOM      4  C   LIG A   1       0.568   0.539   1.351  0.00  0.00    +0.167 A 
ATOM      5  O   LIG A   1       0.381  -0.618   0.648  0.00  0.00    -0.455 OA
ENDROOT
BRANCH   4   6
ATOM      6  C   LIG A   1       1.186   0.461   2.647  0.00  0.00    +0.296 C 
ATOM      7  O   LIG A   1       1.417   1.420   3.380  0.00  0.00    -0.292 OA
ENDBRANCH   4   6
BRANCH   1   8
ATOM      8  C   LIG A   1      -0.514  -1.403  -1.456  0.00  0.00    +0.230 C 
BRANCH   8   9
ATOM      9  O   LIG A   1      -1.130  -0.868  -2.621  0.00  0.00    -0.387 OA
ATOM     10  H   LIG A   1      -1.282  -1.617  -3.220  0.00  0.00    +0.210 HD
ENDBRANCH   8   9
ENDBRANCH   1   8
TORSDOF 3
