@<TRIPOS>MOLECULE
NuBBE_1674
 52 56 0 0 0
SMALL
GASTEIGER

@<TRIPOS>ATOM
      1 C          -2.1991    0.4461   -0.9617 C.2     1  LIG1        0.3205
      2 O          -2.3637    1.2376   -1.8829 O.2     1  LIG1       -0.2497
      3 O          -3.2367    0.1432   -0.0996 O.3     1  LIG1       -0.4672
      4 C          -4.3727    1.0024   -0.2259 C.3     1  LIG1        0.0817
      5 C          -0.8911   -0.4702   -0.6070 C.3     1  LIG1        0.1236
      6 C           0.6938   -0.2298   -0.9105 C.3     1  LIG1        0.0368
      7 H           1.2622    0.0855   -0.0305 H       1  LIG1        0.0481
      8 N           0.7574    0.7902   -1.9136 N.3     1  LIG1       -0.2971
      9 C          -0.0109    0.2216   -3.0673 C.3     1  LIG1        0.0021
     10 C          -0.4069   -1.3412   -2.8318 C.3     1  LIG1       -0.0264
     11 H          -0.9422   -1.7373   -3.7007 H       1  LIG1        0.0314
     12 C          -1.2019   -1.6517   -1.4821 C.3     1  LIG1       -0.0262
     13 C           0.9343   -2.0532   -2.6574 C.3     1  LIG1       -0.0424
     14 C           1.5348   -1.4796   -1.3625 C.3     1  LIG1        0.0021
     15 H           1.4476   -2.2496   -0.5823 H       1  LIG1        0.0341
     16 C           3.0414   -1.1746   -1.5553 C.3     1  LIG1        0.0567
     17 H           3.1835   -0.4850   -2.3959 H       1  LIG1        0.0594
     18 C           3.7305   -0.6005   -0.3206 C.3     1  LIG1       -0.0386
     19 O           3.7039   -2.3979   -1.8956 O.3     1  LIG1       -0.3917
     20 C           0.3264    2.0674   -1.2684 C.3     1  LIG1        0.0033
     21 C           0.0916    2.2346    0.3394 C.3     1  LIG1       -0.0126
     22 C          -0.4047    1.0759    1.2607 C.ar    1  LIG1       -0.0168
     23 C          -0.8372   -0.1841    0.8389 C.ar    1  LIG1        0.0388
     24 N          -1.1150   -0.9742    1.9046 N.ar    1  LIG1       -0.3568
     25 H          -1.4541   -1.9267    1.8776 H       1  LIG1        0.1656
     26 C          -0.8125   -0.2788    3.0571 C.ar    1  LIG1        0.0470
     27 C          -0.3909    1.0073    2.6876 C.ar    1  LIG1        0.0032
     28 C          -0.0171    1.9091    3.7030 C.ar    1  LIG1       -0.0523
     29 C          -0.0583    1.4974    5.0399 C.ar    1  LIG1       -0.0611
     30 C          -0.4712    0.2105    5.3757 C.ar    1  LIG1       -0.0598
     31 C          -0.8646   -0.6998    4.3913 C.ar    1  LIG1       -0.0378
     32 H          -5.0960    0.7274    0.5467 H       1  LIG1        0.0661
     33 H          -4.8438    0.8755   -1.2051 H       1  LIG1        0.0661
     34 H          -4.0857    2.0480   -0.0668 H       1  LIG1        0.0661
     35 H           0.6558    0.2622   -3.9386 H       1  LIG1        0.0429
     36 H          -0.8769    0.8086   -3.3682 H       1  LIG1        0.0429
     37 H          -0.8954   -2.6012   -1.0256 H       1  LIG1        0.0283
     38 H          -2.2659   -1.7721   -1.7194 H       1  LIG1        0.0283
     39 H           1.5745   -1.8758   -3.5299 H       1  LIG1        0.0272
     40 H           0.8070   -3.1391   -2.5745 H       1  LIG1        0.0272
     41 H           4.8140   -0.5481   -0.4742 H       1  LIG1        0.0255
     42 H           3.5664   -1.2413    0.5523 H       1  LIG1        0.0255
     43 H           3.3823    0.4098   -0.0877 H       1  LIG1        0.0255
     44 H           4.6199   -2.1674   -2.1295 H       1  LIG1        0.2098
     45 H          -0.5088    2.5275   -1.8029 H       1  LIG1        0.0430
     46 H           1.1517    2.7623   -1.4824 H       1  LIG1        0.0430
     47 H          -0.6080    3.0702    0.4716 H       1  LIG1        0.0326
     48 H           1.0542    2.5571    0.7592 H       1  LIG1        0.0326
     49 H           0.3171    2.9109    3.4518 H       1  LIG1        0.0624
     50 H           0.2451    2.1884    5.8222 H       1  LIG1        0.0618
     51 H          -0.4835   -0.0944    6.4196 H       1  LIG1        0.0618
     52 H          -1.1806   -1.7033    4.6570 H       1  LIG1        0.0638
@<TRIPOS>BOND
     1     1     2    2
     2     1     3    1
     3     3     4    1
     4     5     6    1
     5     6     8    1
     6     8     9    1
     7     9    10    1
     8    10    12    1
     9     5    12    1
    10    10    13    1
    11    13    14    1
    12     6    14    1
    13    16    17    1
    14    16    18    1
    15    16    19    1
    16     8    20    1
    17    20    21    1
    18    21    22    1
    19    22    23   ar
    20     5    23    1
    21    23    24   ar
    22    24    26   ar
    23    26    27   ar
    24    22    27   ar
    25    27    28   ar
    26    28    29   ar
    27    29    30   ar
    28    30    31   ar
    29    26    31   ar
    30     1     5    1
    31     6     7    1
    32    10    11    1
    33    24    25    1
    34    14    16    1
    35    14    15    1
    36     4    32    1
    37     4    33    1
    38     4    34    1
    39     9    35    1
    40     9    36    1
    41    12    37    1
    42    12    38    1
    43    13    39    1
    44    13    40    1
    45    18    41    1
    46    18    42    1
    47    18    43    1
    48    19    44    1
    49    20    45    1
    50    20    46    1
    51    21    47    1
    52    21    48    1
    53    28    49    1
    54    29    50    1
    55    30    51    1
    56    31    52    1
