@<TRIPOS>MOLECULE
NuBBE_2118
 30 29 0 0 0
SMALL
GASTEIGER

@<TRIPOS>ATOM
      1 C          -3.6361    0.4903    2.6080 C.2     1  LIG1       -0.1026
      2 C          -2.7237    1.3651    2.2373 C.2     1  LIG1       -0.0911
      3 C          -1.8707    1.3395    0.9860 C.3     1  LIG1       -0.0350
      4 C          -2.1031    0.1461    0.0439 C.3     1  LIG1       -0.0496
      5 C          -1.2420    0.1707   -1.2395 C.3     1  LIG1       -0.0528
      6 C           0.2324    0.1045   -0.8860 C.3     1  LIG1       -0.0530
      7 C           1.2429   -0.0173   -2.0151 C.3     1  LIG1       -0.0531
      8 C           2.6937   -0.0497   -1.4892 C.3     1  LIG1       -0.0533
      9 C           3.0880   -1.2516   -0.6106 C.3     1  LIG1       -0.0559
     10 C           2.4909   -1.3377    0.7921 C.3     1  LIG1       -0.0653
     11 H          -4.1941    0.6115    3.5414 H       1  LIG1        0.0532
     12 H          -3.8903   -0.3943    2.0176 H       1  LIG1        0.0532
     13 H          -2.5265    2.2199    2.9020 H       1  LIG1        0.0566
     14 H          -0.8312    1.3599    1.3228 H       1  LIG1        0.0307
     15 H          -2.0501    2.2650    0.4356 H       1  LIG1        0.0307
     16 H          -3.1550    0.1137   -0.2576 H       1  LIG1        0.0268
     17 H          -1.9013   -0.7857    0.5904 H       1  LIG1        0.0268
     18 H          -1.4707    1.0447   -1.8532 H       1  LIG1        0.0265
     19 H          -1.4938   -0.7245   -1.8237 H       1  LIG1        0.0265
     20 H           0.2727   -0.8164   -0.3253 H       1  LIG1        0.0265
     21 H           0.5263    0.9416   -0.2457 H       1  LIG1        0.0265
     22 H           1.1373    0.8379   -2.6940 H       1  LIG1        0.0265
     23 H           1.0473   -0.9206   -2.6035 H       1  LIG1        0.0265
     24 H           2.9207    0.8838   -0.9597 H       1  LIG1        0.0265
     25 H           3.3544   -0.0619   -2.3683 H       1  LIG1        0.0265
     26 H           4.1766   -1.2071   -0.4711 H       1  LIG1        0.0263
     27 H           2.8877   -2.1796   -1.1572 H       1  LIG1        0.0263
     28 H           2.7766   -0.4746    1.3981 H       1  LIG1        0.0230
     29 H           2.8295   -2.2533    1.2855 H       1  LIG1        0.0230
     30 H           1.4117   -1.4198    0.8387 H       1  LIG1        0.0230
@<TRIPOS>BOND
     1     1     2    2
     2     2     3    1
     3     3     4    1
     4     4     5    1
     5     5     6    1
     6     6     7    1
     7     7     8    1
     8     8     9    1
     9     9    10    1
    10     1    11    1
    11     1    12    1
    12     2    13    1
    13     3    14    1
    14     3    15    1
    15     4    16    1
    16     4    17    1
    17     5    18    1
    18     5    19    1
    19     6    20    1
    20     6    21    1
    21     7    22    1
    22     7    23    1
    23     8    24    1
    24     8    25    1
    25     9    26    1
    26     9    27    1
    27    10    28    1
    28    10    29    1
    29    10    30    1
