REMARK  Name = NuBBE_2056
REMARK  5 active torsions:
REMARK  status: ('A' for Active; 'I' for Inactive)
REMARK    1  A    between atoms: C_6  and  O_7
REMARK    2  A    between atoms: O_7  and  C_8
REMARK    3  A    between atoms: C_8  and  C_9
REMARK    4  A    between atoms: C_11  and  C_12
REMARK    5  A    between atoms: C_11  and  C_13
REMARK                            x       y       z     vdW  Elec       q    Type
REMARK                         _______ _______ _______ _____ _____    ______ ____
ROOT
ATOM      1  O   LIG A   1      -6.546   0.281   1.108  0.00  0.00    -0.245 OA
ATOM      2  C   LIG A   1      -5.426   0.718   0.846  0.00  0.00    +0.337 A 
ATOM      3  O   LIG A   1      -4.309  -0.095   0.766  0.00  0.00    -0.422 OA
ATOM      4  C   LIG A   1      -3.048   0.420   0.381  0.00  0.00    +0.146 A 
ATOM      5  C   LIG A   1      -1.992  -0.491   0.233  0.00  0.00    +0.096 A 
ATOM      6  C   LIG A   1      -0.730  -0.052  -0.194  0.00  0.00    +0.169 A 
ATOM      7  C   LIG A   1      -0.583   1.304  -0.445  0.00  0.00    +0.208 A 
ATOM      8  O   LIG A   1       0.538   1.946  -0.882  0.00  0.00    -0.449 OA
ATOM      9  C   LIG A   1       0.099   3.316  -0.919  0.00  0.00    +0.467 C 
ATOM     10  O   LIG A   1      -1.285   3.476  -0.569  0.00  0.00    -0.452 OA
ATOM     11  C   LIG A   1      -1.633   2.191  -0.273  0.00  0.00    +0.180 A 
ATOM     12  C   LIG A   1      -2.889   1.779   0.137  0.00  0.00    +0.063 A 
ATOM     13  C   LIG A   1      -4.023   2.671   0.288  0.00  0.00    +0.022 A 
ATOM     14  C   LIG A   1      -5.215   2.161   0.612  0.00  0.00    +0.093 A 
ENDROOT
BRANCH   6  15
ATOM     15  O   LIG A   1       0.203  -1.041  -0.309  0.00  0.00    -0.485 OA
BRANCH  15  16
ATOM     16  C   LIG A   1       1.517  -0.693  -0.757  0.00  0.00    +0.263 C 
BRANCH  16  17
ATOM     17  C   LIG A   1       2.303  -1.964  -0.866  0.00  0.00    +0.188 C 
ATOM     18  O   LIG A   1       3.670  -1.811  -1.286  0.00  0.00    -0.362 OA
ATOM     19  C   LIG A   1       3.475  -2.339   0.035  0.00  0.00    +0.094 C 
ATOM     20  C   LIG A   1       4.004  -1.436   1.105  0.00  0.00    +0.044 C 
ATOM     21  C   LIG A   1       3.792  -3.796   0.182  0.00  0.00    +0.044 C 
ENDBRANCH  16  17
ENDBRANCH  15  16
ENDBRANCH   6  15
TORSDOF 3
