@<TRIPOS>MOLECULE
NuBBE_1886
 59 61 0 0 0
SMALL
GASTEIGER

@<TRIPOS>ATOM
      1 O          -3.3623   -0.8470   -0.8285 O.2     1  LIG1       -0.2830
      2 C          -2.2646   -0.7779   -0.2905 C.ar    1  LIG1        0.2382
      3 C          -1.4711   -1.9910   -0.0124 C.ar    1  LIG1        0.1131
      4 C          -1.9945   -3.2587    0.2826 C.ar    1  LIG1        0.1804
      5 C          -1.1196   -4.3733    0.1894 C.ar    1  LIG1        0.2152
      6 O          -1.6859   -5.6691    0.3357 O.3     1  LIG1       -0.4185
      7 C          -0.9730   -6.7251    0.9221 C.2     1  LIG1        0.3094
      8 C          -1.6273   -8.0101    0.5083 C.3     1  LIG1        0.0336
      9 O          -0.0088   -6.6462    1.6692 O.2     1  LIG1       -0.2507
     10 C           0.2263   -4.2264   -0.1956 C.ar    1  LIG1        0.1694
     11 C           0.7347   -2.9434   -0.3782 C.ar    1  LIG1        0.0270
     12 C          -0.1074   -1.8375   -0.2611 C.ar    1  LIG1        0.1468
     13 O           0.4658   -0.6061   -0.4534 O.2     1  LIG1       -0.4507
     14 C          -0.2719    0.5333   -0.1479 C.ar    1  LIG1        0.1810
     15 C           0.5436    1.7723   -0.1251 C.ar    1  LIG1        0.0282
     16 C           0.2535    2.8934    0.6682 C.ar    1  LIG1       -0.0045
     17 C           1.0715    4.0175    0.5818 C.ar    1  LIG1        0.1773
     18 O           0.7799    5.2621    1.2118 O.3     1  LIG1       -0.4221
     19 C          -0.4658    5.8249    1.5111 C.2     1  LIG1        0.3093
     20 C          -0.2816    7.3189    1.5286 C.3     1  LIG1        0.0336
     21 O          -1.5261    5.2375    1.6380 O.2     1  LIG1       -0.2507
     22 C           2.2446    4.0238   -0.1957 C.ar    1  LIG1        0.2043
     23 C           2.5429    2.9103   -0.9899 C.ar    1  LIG1        0.1659
     24 O           3.7079    2.8979   -1.7064 O.3     1  LIG1       -0.4913
     25 C           3.7502    2.1161   -2.8915 C.3     1  LIG1        0.0790
     26 C           1.6814    1.8147   -0.9606 C.ar    1  LIG1       -0.0053
     27 O           3.0050    5.1593   -0.0533 O.3     1  LIG1       -0.4885
     28 C           3.8588    5.5212   -1.1248 C.3     1  LIG1        0.0791
     29 C          -1.6213    0.5280   -0.0043 C.ar    1  LIG1        0.2107
     30 O          -2.3230    1.6867    0.2508 O.3     1  LIG1       -0.4883
     31 C          -3.7184    1.5794    0.4768 C.3     1  LIG1        0.0791
     32 O           0.9498   -5.3488   -0.5012 O.3     1  LIG1       -0.4912
     33 C           2.3331   -5.3066   -0.1555 C.3     1  LIG1        0.0790
     34 O          -3.3030   -3.5348    0.6019 O.3     1  LIG1       -0.4905
     35 C          -3.9778   -2.5920    1.4386 C.3     1  LIG1        0.0790
     36 H          -1.8414   -7.9818   -0.5656 H       1  LIG1        0.0342
     37 H          -2.5482   -8.1559    1.0751 H       1  LIG1        0.0342
     38 H          -0.9481   -8.8493    0.6851 H       1  LIG1        0.0342
     39 H           1.7624   -2.7834   -0.6871 H       1  LIG1        0.0692
     40 H          -0.5988    2.9049    1.3394 H       1  LIG1        0.0663
     41 H          -0.3100    7.6980    0.5003 H       1  LIG1        0.0342
     42 H           0.6829    7.5821    1.9808 H       1  LIG1        0.0342
     43 H          -1.0676    7.8072    2.1145 H       1  LIG1        0.0342
     44 H           4.6478    2.4138   -3.4454 H       1  LIG1        0.0660
     45 H           2.8847    2.3082   -3.5336 H       1  LIG1        0.0660
     46 H           3.8462    1.0516   -2.6582 H       1  LIG1        0.0660
     47 H           1.8926    0.9509   -1.5902 H       1  LIG1        0.0662
     48 H           4.2697    6.5079   -0.8985 H       1  LIG1        0.0660
     49 H           3.3007    5.5933   -2.0648 H       1  LIG1        0.0660
     50 H           4.7160    4.8476   -1.2058 H       1  LIG1        0.0660
     51 H          -4.0396    2.4784    1.0119 H       1  LIG1        0.0660
     52 H          -3.9760    0.7209    1.1041 H       1  LIG1        0.0660
     53 H          -4.2441    1.5492   -0.4808 H       1  LIG1        0.0660
     54 H           2.7328   -6.3214   -0.2462 H       1  LIG1        0.0660
     55 H           2.4853   -4.9756    0.8777 H       1  LIG1        0.0660
     56 H           2.8863   -4.6746   -0.8561 H       1  LIG1        0.0660
     57 H          -4.8317   -3.0955    1.9021 H       1  LIG1        0.0660
     58 H          -4.4149   -1.7739    0.8671 H       1  LIG1        0.0660
     59 H          -3.3328   -2.2057    2.2350 H       1  LIG1        0.0660
@<TRIPOS>BOND
     1     1     2    2
     2     2     3   ar
     3     3     4   ar
     4     4     5   ar
     5     5     6    1
     6     6     7    1
     7     7     8    1
     8     7     9    2
     9     5    10   ar
    10    10    11   ar
    11    11    12   ar
    12     3    12   ar
    13    12    13   ar
    14    13    14   ar
    15    14    15    1
    16    15    16   ar
    17    16    17   ar
    18    17    18    1
    19    18    19    1
    20    19    20    1
    21    19    21    2
    22    17    22   ar
    23    22    23   ar
    24    23    24    1
    25    24    25    1
    26    23    26   ar
    27    15    26   ar
    28    22    27    1
    29    27    28    1
    30    14    29   ar
    31     2    29   ar
    32    29    30    1
    33    30    31    1
    34    10    32    1
    35    32    33    1
    36     4    34    1
    37    34    35    1
    38     8    36    1
    39     8    37    1
    40     8    38    1
    41    11    39    1
    42    16    40    1
    43    20    41    1
    44    20    42    1
    45    20    43    1
    46    25    44    1
    47    25    45    1
    48    25    46    1
    49    26    47    1
    50    28    48    1
    51    28    49    1
    52    28    50    1
    53    31    51    1
    54    31    52    1
    55    31    53    1
    56    33    54    1
    57    33    55    1
    58    33    56    1
    59    35    57    1
    60    35    58    1
    61    35    59    1
