REMARK  Name = NuBBE_1754
REMARK  4 active torsions:
REMARK  status: ('A' for Active; 'I' for Inactive)
REMARK    1  A    between atoms: C_1  and  C_2
REMARK    2  A    between atoms: C_6  and  C_15
REMARK    3  A    between atoms: C_12  and  C_13
REMARK    4  A    between atoms: C_12  and  C_14
REMARK                            x       y       z     vdW  Elec       q    Type
REMARK                         _______ _______ _______ _____ _____    ______ ____
ROOT
ATOM      1  C   LIG A   1      -1.355   2.433  -0.858  0.00  0.00    +0.012 C 
ATOM      2  C   LIG A   1       0.160   2.255  -0.826  0.00  0.00    +0.012 C 
ATOM      3  C   LIG A   1       0.616   0.842  -0.595  0.00  0.00    -0.063 C 
ATOM      4  C   LIG A   1       1.420   0.736   0.479  0.00  0.00    -0.067 C 
ATOM      5  C   LIG A   1       2.037  -0.554   0.958  0.00  0.00    +0.012 C 
ATOM      6  C   LIG A   1       0.944  -1.577   1.333  0.00  0.00    +0.012 C 
ATOM      7  C   LIG A   1       0.297  -2.249   0.112  0.00  0.00    +0.031 C 
ATOM      8  C   LIG A   1      -0.582  -1.354  -0.757  0.00  0.00    -0.067 C 
ATOM      9  C   LIG A   1       0.224  -0.292  -1.500  0.00  0.00    +0.061 C 
ATOM     10  C   LIG A   1      -1.923  -1.531  -0.895  0.00  0.00    -0.076 C 
ATOM     11  C   LIG A   1      -2.798  -0.770  -1.866  0.00  0.00    +0.038 C 
ATOM     12  C   LIG A   1      -2.750  -2.508  -0.088  0.00  0.00    +0.038 C 
ATOM     13  C   LIG A   1       3.019  -0.372   2.120  0.00  0.00    +0.012 C 
ATOM     14  C   LIG A   1       1.607   2.046   1.168  0.00  0.00    +0.031 C 
ATOM     15  C   LIG A   1       0.780   3.033   0.346  0.00  0.00    +0.012 C 
ENDROOT
TORSDOF 0
