@<TRIPOS>MOLECULE
NuBBE_1038
 79 83 0 0 0
SMALL
GASTEIGER

@<TRIPOS>ATOM
      1 O          -6.3664   -1.0115   -2.6863 O.2     1  LIG1       -0.2968
      2 C          -5.2021   -1.2249   -2.3436 C.2     1  LIG1        0.1392
      3 C          -4.8503   -2.4672   -1.5349 C.3     1  LIG1        0.0069
      4 C          -3.9283   -2.2110   -0.3298 C.3     1  LIG1       -0.0404
      5 C          -3.1571   -0.8542   -0.3863 C.3     1  LIG1       -0.0243
      6 C          -4.1577    0.1813    0.2056 C.3     1  LIG1       -0.0590
      7 C          -2.8148   -0.6168   -1.8967 C.3     1  LIG1       -0.0235
      8 C          -1.6017    0.2959   -2.0465 C.3     1  LIG1       -0.0483
      9 C          -0.3247   -0.4021   -1.5350 C.3     1  LIG1       -0.0463
     10 C          -0.5011   -1.3245   -0.2720 C.3     1  LIG1       -0.0194
     11 C          -0.6170   -2.8042   -0.7451 C.3     1  LIG1       -0.0585
     12 C          -1.8142   -0.8923    0.5056 C.3     1  LIG1       -0.0257
     13 H          -2.0067   -1.6567    1.2708 H       1  LIG1        0.0315
     14 C          -1.5731    0.4346    1.3075 C.3     1  LIG1       -0.0306
     15 C          -0.1709    0.9141    1.5202 C.2     1  LIG1       -0.0836
     16 C           0.9325    0.2325    1.1755 C.2     1  LIG1       -0.0629
     17 C           0.7852   -1.2145    0.7047 C.3     1  LIG1       -0.0051
     18 C           0.6064   -2.1154    1.9652 C.3     1  LIG1       -0.0553
     19 C           2.1100   -1.6492    0.0116 C.3     1  LIG1       -0.0424
     20 C           3.3716   -1.4405    0.8735 C.3     1  LIG1       -0.0359
     21 C           3.4590   -0.0600    1.5971 C.3     1  LIG1        0.0741
     22 C           3.3757   -0.2656    3.1271 C.2     1  LIG1        0.3115
     23 O           4.3119   -1.1117    3.6256 O.3     1  LIG1       -0.4802
     24 O           2.5811    0.2802    3.8753 O.2     1  LIG1       -0.2504
     25 C           2.3252    0.8710    1.0791 C.3     1  LIG1       -0.0031
     26 H           2.4808    0.9577   -0.0073 H       1  LIG1        0.0357
     27 C           2.4554    2.3316    1.5813 C.3     1  LIG1       -0.0403
     28 H           2.2262    2.3780    2.6525 H       1  LIG1        0.0276
     29 H           1.7017    2.9583    1.0857 H       1  LIG1        0.0276
     30 C           3.8441    2.9627    1.3238 C.3     1  LIG1       -0.0343
     31 C           3.9342    4.2982    2.0876 C.3     1  LIG1       -0.0598
     32 C           4.0306    3.2728   -0.1766 C.3     1  LIG1       -0.0598
     33 C           4.9565    2.0227    1.8236 C.3     1  LIG1       -0.0468
     34 C           4.8313    0.5965    1.2832 C.3     1  LIG1       -0.0362
     35 H          -2.4579   -1.5763   -2.2847 H       1  LIG1        0.0315
     36 C          -4.0416   -0.3293   -2.8136 C.3     1  LIG1        0.0267
     37 C          -4.4788    1.1438   -2.8535 C.3     1  LIG1       -0.0528
     38 C          -3.7225   -0.7533   -4.2655 C.3     1  LIG1       -0.0528
     39 H          -4.3732   -3.1741   -2.2243 H       1  LIG1        0.0342
     40 H          -5.7772   -2.9388   -1.1897 H       1  LIG1        0.0342
     41 H          -3.2405   -3.0584   -0.2516 H       1  LIG1        0.0275
     42 H          -4.5236   -2.2616    0.5921 H       1  LIG1        0.0275
     43 H          -5.1803    0.0488   -0.1597 H       1  LIG1        0.0235
     44 H          -3.8740    1.2124   -0.0190 H       1  LIG1        0.0235
     45 H          -4.2293    0.0743    1.2947 H       1  LIG1        0.0235
     46 H          -1.7592    1.2352   -1.5054 H       1  LIG1        0.0269
     47 H          -1.4378    0.5731   -3.0934 H       1  LIG1        0.0269
     48 H           0.4162    0.3861   -1.3649 H       1  LIG1        0.0271
     49 H           0.0904   -1.0015   -2.3566 H       1  LIG1        0.0271
     50 H          -1.4017   -2.9750   -1.4795 H       1  LIG1        0.0235
     51 H          -0.8264   -3.4798    0.0894 H       1  LIG1        0.0235
     52 H           0.2972   -3.1483   -1.2363 H       1  LIG1        0.0235
     53 H          -2.0657    0.3550    2.2844 H       1  LIG1        0.0310
     54 H          -2.0406    1.2754    0.7907 H       1  LIG1        0.0310
     55 H          -0.1019    1.9374    1.8800 H       1  LIG1        0.0572
     56 H          -0.3136   -1.9021    2.5163 H       1  LIG1        0.0238
     57 H           1.4138   -1.9844    2.6898 H       1  LIG1        0.0238
     58 H           0.6012   -3.1780    1.7030 H       1  LIG1        0.0238
     59 H           2.2435   -1.1126   -0.9358 H       1  LIG1        0.0274
     60 H           2.0814   -2.7129   -0.2498 H       1  LIG1        0.0274
     61 H           4.2403   -1.5844    0.2179 H       1  LIG1        0.0276
     62 H           3.4241   -2.2673    1.5919 H       1  LIG1        0.0276
     63 H           4.9142   -1.5011    2.9670 H       1  LIG1        0.2951
     64 H           3.8112    4.1491    3.1661 H       1  LIG1        0.0235
     65 H           3.1556    4.9954    1.7576 H       1  LIG1        0.0235
     66 H           4.9050    4.7809    1.9274 H       1  LIG1        0.0235
     67 H           3.9858    2.3775   -0.8026 H       1  LIG1        0.0235
     68 H           5.0008    3.7487   -0.3603 H       1  LIG1        0.0235
     69 H           3.2544    3.9588   -0.5348 H       1  LIG1        0.0235
     70 H           4.9472    1.9890    2.9207 H       1  LIG1        0.0271
     71 H           5.9395    2.4227    1.5433 H       1  LIG1        0.0271
     72 H           5.6559    0.0009    1.6927 H       1  LIG1        0.0276
     73 H           4.9922    0.6106    0.1979 H       1  LIG1        0.0276
     74 H          -3.6429    1.8091   -3.0917 H       1  LIG1        0.0239
     75 H          -4.9290    1.4828   -1.9194 H       1  LIG1        0.0239
     76 H          -5.2441    1.3024   -3.6235 H       1  LIG1        0.0239
     77 H          -3.4274   -1.8073   -4.3223 H       1  LIG1        0.0239
     78 H          -2.9142   -0.1517   -4.6937 H       1  LIG1        0.0239
     79 H          -4.5998   -0.6374   -4.9133 H       1  LIG1        0.0239
@<TRIPOS>BOND
     1     2     3    1
     2     3     4    1
     3     4     5    1
     4     5     7    1
     5     7     8    1
     6     8     9    1
     7     9    10    1
     8    10    12    1
     9     5    12    1
    10    12    14    1
    11    14    15    1
    12    15    16    2
    13    16    17    1
    14    10    17    1
    15    17    19    1
    16    19    20    1
    17    20    21    1
    18    22    23    1
    19    22    24    2
    20    21    25    1
    21    16    25    1
    22    25    27    1
    23    27    30    1
    24    30    33    1
    25    33    34    1
    26    21    34    1
    27     7    36    1
    28     2    36    1
    29     1     2    2
    30     5     6    1
    31     7    35    1
    32    10    11    1
    33    12    13    1
    34    17    18    1
    35    21    22    1
    36    25    26    1
    37    27    28    1
    38    27    29    1
    39    30    31    1
    40    30    32    1
    41    36    37    1
    42    36    38    1
    43     3    39    1
    44     3    40    1
    45     4    41    1
    46     4    42    1
    47     6    43    1
    48     6    44    1
    49     6    45    1
    50     8    46    1
    51     8    47    1
    52     9    48    1
    53     9    49    1
    54    11    50    1
    55    11    51    1
    56    11    52    1
    57    14    53    1
    58    14    54    1
    59    15    55    1
    60    18    56    1
    61    18    57    1
    62    18    58    1
    63    19    59    1
    64    19    60    1
    65    20    61    1
    66    20    62    1
    67    23    63    1
    68    31    64    1
    69    31    65    1
    70    31    66    1
    71    32    67    1
    72    32    68    1
    73    32    69    1
    74    33    70    1
    75    33    71    1
    76    34    72    1
    77    34    73    1
    78    37    74    1
    79    37    75    1
    80    37    76    1
    81    38    77    1
    82    38    78    1
    83    38    79    1
