@<TRIPOS>MOLECULE
NuBBE_2497
 49 51 0 0 0
SMALL
GASTEIGER

@<TRIPOS>ATOM
      1 C           0.9381   -4.1919    1.5709 C.3     1  LIG1       -0.0612
      2 C          -0.1513   -3.9075    0.5464 C.3     1  LIG1       -0.0300
      3 C           0.2311   -2.7806   -0.4022 C.ar    1  LIG1       -0.0413
      4 C           0.8015   -3.1000   -1.6579 C.ar    1  LIG1       -0.0470
      5 C           1.0091   -4.5193   -2.1187 C.3     1  LIG1       -0.0394
      6 C           1.1842   -2.0695   -2.5181 C.ar    1  LIG1       -0.0583
      7 C           1.0369   -0.7382   -2.1430 C.ar    1  LIG1       -0.0575
      8 C           0.4854   -0.3741   -0.9001 C.ar    1  LIG1       -0.0377
      9 C           0.0637   -1.4093   -0.0311 C.ar    1  LIG1       -0.0402
     10 C          -0.5024   -1.0426    1.3189 C.3     1  LIG1       -0.0268
     11 C          -1.2070    0.3019    1.2906 C.3     1  LIG1       -0.0445
     12 C          -0.2333    1.4158    0.8848 C.3     1  LIG1       -0.0195
     13 H           0.5947    1.3507    1.6083 H       1  LIG1        0.0319
     14 C          -0.8858    2.8438    1.0635 C.3     1  LIG1        0.0270
     15 C          -0.5285    3.3695    2.4719 C.3     1  LIG1       -0.0528
     16 C          -2.4247    2.8832    0.9393 C.3     1  LIG1       -0.0528
     17 C          -0.3594    3.8257    0.0149 C.2     1  LIG1        0.1392
     18 O           0.0069    4.9665    0.3033 O.2     1  LIG1       -0.2968
     19 C          -0.4019    3.3963   -1.4320 C.3     1  LIG1        0.0072
     20 C          -0.4151    1.8832   -1.6020 C.3     1  LIG1       -0.0366
     21 C           0.4079    1.1284   -0.5266 C.3     1  LIG1       -0.0027
     22 C           1.8746    1.6514   -0.4981 C.3     1  LIG1       -0.0552
     23 H           0.6380   -5.0218    2.2188 H       1  LIG1        0.0233
     24 H           1.1331   -3.3235    2.2072 H       1  LIG1        0.0233
     25 H           1.8796   -4.4667    1.0839 H       1  LIG1        0.0233
     26 H          -1.0992   -3.6899    1.0474 H       1  LIG1        0.0311
     27 H          -0.3645   -4.8270   -0.0092 H       1  LIG1        0.0311
     28 H           1.5929   -5.0829   -1.3845 H       1  LIG1        0.0278
     29 H           1.5620   -4.5597   -3.0637 H       1  LIG1        0.0278
     30 H           0.0441   -5.0094   -2.2818 H       1  LIG1        0.0278
     31 H           1.6206   -2.2940   -3.4891 H       1  LIG1        0.0620
     32 H           1.3837    0.0185   -2.8432 H       1  LIG1        0.0621
     33 H           0.3111   -1.0318    2.0539 H       1  LIG1        0.0313
     34 H          -1.2447   -1.7700    1.6554 H       1  LIG1        0.0313
     35 H          -1.6092    0.4969    2.2918 H       1  LIG1        0.0272
     36 H          -2.0563    0.2530    0.5979 H       1  LIG1        0.0272
     37 H          -0.8818    2.6873    3.2529 H       1  LIG1        0.0239
     38 H          -0.9787    4.3511    2.6617 H       1  LIG1        0.0239
     39 H           0.5556    3.4846    2.5878 H       1  LIG1        0.0239
     40 H          -2.9163    2.3542    1.7626 H       1  LIG1        0.0239
     41 H          -2.7762    2.4478   -0.0007 H       1  LIG1        0.0239
     42 H          -2.7917    3.9170    0.9614 H       1  LIG1        0.0239
     43 H           0.4861    3.8099   -1.9244 H       1  LIG1        0.0342
     44 H          -1.2862    3.8360   -1.9047 H       1  LIG1        0.0342
     45 H          -0.0592    1.6714   -2.6170 H       1  LIG1        0.0278
     46 H          -1.4504    1.5187   -1.5860 H       1  LIG1        0.0278
     47 H           2.3219    1.6723   -1.4982 H       1  LIG1        0.0238
     48 H           2.5061    1.0101    0.1296 H       1  LIG1        0.0238
     49 H           1.9551    2.6644   -0.0929 H       1  LIG1        0.0238
@<TRIPOS>BOND
     1     1     2    1
     2     2     3    1
     3     3     4   ar
     4     4     5    1
     5     4     6   ar
     6     6     7   ar
     7     7     8   ar
     8     8     9   ar
     9     3     9   ar
    10     9    10    1
    11    10    11    1
    12    11    12    1
    13    12    13    1
    14    12    14    1
    15    14    15    1
    16    14    16    1
    17    14    17    1
    18    17    18    2
    19    17    19    1
    20    19    20    1
    21    20    21    1
    22     8    21    1
    23    12    21    1
    24    21    22    1
    25     1    23    1
    26     1    24    1
    27     1    25    1
    28     2    26    1
    29     2    27    1
    30     5    28    1
    31     5    29    1
    32     5    30    1
    33     6    31    1
    34     7    32    1
    35    10    33    1
    36    10    34    1
    37    11    35    1
    38    11    36    1
    39    15    37    1
    40    15    38    1
    41    15    39    1
    42    16    40    1
    43    16    41    1
    44    16    42    1
    45    19    43    1
    46    19    44    1
    47    20    45    1
    48    20    46    1
    49    22    47    1
    50    22    48    1
    51    22    49    1
