@<TRIPOS>MOLECULE
NuBBE_1127
 41 42 0 0 0
SMALL
GASTEIGER

@<TRIPOS>ATOM
      1 O          -2.2598    5.0572   -1.4798 O.3     1  LIG1       -0.5062
      2 C          -1.4313    3.9723   -1.3381 C.ar    1  LIG1        0.1248
      3 C          -0.4946    3.9712   -0.3124 C.ar    1  LIG1       -0.0161
      4 C           0.3529    2.8827   -0.1607 C.ar    1  LIG1       -0.0159
      5 C           0.2811    1.7889   -1.0271 C.ar    1  LIG1        0.1285
      6 C          -0.6951    1.7684   -2.0701 C.ar    1  LIG1        0.0273
      7 C          -0.8562    0.6832   -2.9622 C.ar    1  LIG1       -0.0504
      8 C          -1.8229    0.6999   -3.9744 C.ar    1  LIG1       -0.0611
      9 C          -2.6483    1.8063   -4.1274 C.ar    1  LIG1       -0.0611
     10 C          -2.5118    2.8889   -3.2586 C.ar    1  LIG1       -0.0504
     11 C          -1.5538    2.8883   -2.2232 C.ar    1  LIG1        0.0270
     12 O           1.1188    0.7030   -0.9435 O.3     1  LIG1       -0.4888
     13 C           2.0984    0.6759    0.1012 C.3     1  LIG1        0.1166
     14 C           1.5344    0.0378    1.3780 C.3     1  LIG1        0.1015
     15 H           0.6583    0.5915    1.7323 H       1  LIG1        0.0640
     16 O           2.5211    0.0851    2.4154 O.3     1  LIG1       -0.3872
     17 C           1.1420   -1.4260    1.1061 C.3     1  LIG1        0.0254
     18 N           0.6074   -2.0776    2.3192 N.3     1  LIG1       -0.3112
     19 C           0.2154   -3.4761    2.0499 C.3     1  LIG1        0.0021
     20 C           1.4000   -4.3385    1.6065 C.3     1  LIG1       -0.0499
     21 C          -0.4017   -4.0809    3.3138 C.3     1  LIG1       -0.0499
     22 H          -2.0348    5.7104   -0.7930 H       1  LIG1        0.2922
     23 H          -0.4046    4.8064    0.3749 H       1  LIG1        0.0655
     24 H           1.0618    2.9344    0.6581 H       1  LIG1        0.0655
     25 H          -0.2240   -0.1978   -2.8715 H       1  LIG1        0.0625
     26 H          -1.9293   -0.1502   -4.6442 H       1  LIG1        0.0618
     27 H          -3.3945    1.8306   -4.9128 H       1  LIG1        0.0618
     28 H          -3.1652    3.7484   -3.3903 H       1  LIG1        0.0625
     29 H           2.5550    1.6534    0.2911 H       1  LIG1        0.0723
     30 H           2.9396    0.0737   -0.2645 H       1  LIG1        0.0723
     31 H           2.2415   -0.5949    3.0621 H       1  LIG1        0.2100
     32 H           2.0545   -1.9440    0.7943 H       1  LIG1        0.0450
     33 H           0.4071   -1.4798    0.2959 H       1  LIG1        0.0450
     34 H          -0.2272   -1.5667    2.6179 H       1  LIG1        0.1223
     35 H          -0.5510   -3.4924    1.2643 H       1  LIG1        0.0455
     36 H           2.2160   -4.2944    2.3360 H       1  LIG1        0.0245
     37 H           1.7913   -4.0232    0.6343 H       1  LIG1        0.0245
     38 H           1.0985   -5.3847    1.4941 H       1  LIG1        0.0245
     39 H           0.2886   -4.0302    4.1633 H       1  LIG1        0.0245
     40 H          -0.6514   -5.1362    3.1521 H       1  LIG1        0.0245
     41 H          -1.3263   -3.5643    3.5928 H       1  LIG1        0.0245
@<TRIPOS>BOND
     1     1     2    1
     2     2     3   ar
     3     3     4   ar
     4     4     5   ar
     5     5     6   ar
     6     6     7   ar
     7     7     8   ar
     8     8     9   ar
     9     9    10   ar
    10    10    11   ar
    11     6    11   ar
    12     2    11   ar
    13     5    12    1
    14    12    13    1
    15    14    16    1
    16    14    17    1
    17    17    18    1
    18    18    19    1
    19    19    20    1
    20    19    21    1
    21    14    15    1
    22    14    13    1
    23     1    22    1
    24     3    23    1
    25     4    24    1
    26     7    25    1
    27     8    26    1
    28     9    27    1
    29    10    28    1
    30    13    29    1
    31    13    30    1
    32    16    31    1
    33    17    32    1
    34    17    33    1
    35    18    34    1
    36    19    35    1
    37    20    36    1
    38    20    37    1
    39    20    38    1
    40    21    39    1
    41    21    40    1
    42    21    41    1
