@<TRIPOS>MOLECULE
NuBBE_398
 22 21 0 0 0
SMALL
GASTEIGER

@<TRIPOS>ATOM
      1 C          -0.2599    3.4377   -1.3493 C.3     1  LIG1       -0.0645
      2 C          -1.2213    2.3023   -1.0267 C.3     1  LIG1       -0.0461
      3 C          -1.0028    1.0425   -1.8671 C.3     1  LIG1        0.0037
      4 S           0.6618    0.3010   -1.7227 S.3     1  LIG1       -0.0931
      5 S           0.7974   -0.1763    0.2728 S.3     1  LIG1       -0.0931
      6 C           0.2394   -1.9110    0.2977 C.3     1  LIG1        0.0037
      7 C           0.2315   -2.5015    1.7096 C.3     1  LIG1       -0.0461
      8 C           1.5904   -2.5013    2.3984 C.3     1  LIG1       -0.0645
      9 H          -0.5509    4.3422   -0.8073 H       1  LIG1        0.0230
     10 H          -0.2718    3.6676   -2.4214 H       1  LIG1        0.0230
     11 H           0.7669    3.1976   -1.0590 H       1  LIG1        0.0230
     12 H          -2.2438    2.6556   -1.2008 H       1  LIG1        0.0271
     13 H          -1.1620    2.0697    0.0449 H       1  LIG1        0.0271
     14 H          -1.1510    1.2893   -2.9259 H       1  LIG1        0.0384
     15 H          -1.7510    0.2842   -1.6136 H       1  LIG1        0.0384
     16 H           0.9057   -2.5020   -0.3396 H       1  LIG1        0.0384
     17 H          -0.7729   -1.9675   -0.1166 H       1  LIG1        0.0384
     18 H          -0.1162   -3.5399    1.6396 H       1  LIG1        0.0271
     19 H          -0.4962   -1.9737    2.3379 H       1  LIG1        0.0271
     20 H           2.3595   -2.9417    1.7562 H       1  LIG1        0.0230
     21 H           1.5433   -3.0862    3.3224 H       1  LIG1        0.0230
     22 H           1.9039   -1.4886    2.6703 H       1  LIG1        0.0230
@<TRIPOS>BOND
     1     1     2    1
     2     2     3    1
     3     3     4    1
     4     4     5    1
     5     5     6    1
     6     6     7    1
     7     7     8    1
     8     1     9    1
     9     1    10    1
    10     1    11    1
    11     2    12    1
    12     2    13    1
    13     3    14    1
    14     3    15    1
    15     6    16    1
    16     6    17    1
    17     7    18    1
    18     7    19    1
    19     8    20    1
    20     8    21    1
    21     8    22    1
