@<TRIPOS>MOLECULE
NuBBE_31
 31 31 0 0 0
SMALL
GASTEIGER

@<TRIPOS>ATOM
      1 C          -1.0783    0.0779    3.6258 C.3     1  LIG1        0.0790
      2 O          -1.2010    0.9870    2.5374 O.3     1  LIG1       -0.4913
      3 C          -0.5114    0.6584    1.3931 C.ar    1  LIG1        0.1657
      4 C          -0.0565    1.7239    0.5892 C.ar    1  LIG1        0.2035
      5 O          -0.3109    2.9824    1.0847 O.3     1  LIG1       -0.4885
      6 C          -0.5223    4.0143    0.1290 C.3     1  LIG1        0.0791
      7 C           0.6518    1.4439   -0.5945 C.ar    1  LIG1        0.1657
      8 O           1.2137    2.4886   -1.2843 O.3     1  LIG1       -0.4913
      9 C           1.3314    2.3265   -2.6935 C.3     1  LIG1        0.0790
     10 C           0.8427    0.1104   -0.9860 C.ar    1  LIG1       -0.0089
     11 C           0.3298   -0.9501   -0.2276 C.ar    1  LIG1       -0.0177
     12 C           0.5340   -2.3271   -0.7062 C.2     1  LIG1       -0.0476
     13 C          -0.3158   -3.3388   -0.4665 C.2     1  LIG1        0.0229
     14 C          -0.0550   -4.6678   -1.0279 C.2     1  LIG1        0.3296
     15 O          -0.7683   -5.5979   -0.3777 O.3     1  LIG1       -0.4775
     16 O           0.6960   -4.9466   -1.9457 O.2     1  LIG1       -0.2458
     17 C          -0.3221   -0.6644    0.9770 C.ar    1  LIG1       -0.0089
     18 H          -1.5613    0.5323    4.4964 H       1  LIG1        0.0660
     19 H          -0.0272   -0.0999    3.8773 H       1  LIG1        0.0660
     20 H          -1.5992   -0.8635    3.4258 H       1  LIG1        0.0660
     21 H          -1.1326    4.7896    0.6025 H       1  LIG1        0.0660
     22 H          -1.0673    3.6654   -0.7556 H       1  LIG1        0.0660
     23 H           0.4300    4.4776   -0.1456 H       1  LIG1        0.0660
     24 H           1.5356    3.3117   -3.1243 H       1  LIG1        0.0660
     25 H           0.4001    1.9551   -3.1346 H       1  LIG1        0.0660
     26 H           2.1749    1.6762   -2.9437 H       1  LIG1        0.0660
     27 H           1.4071   -0.1199   -1.8848 H       1  LIG1        0.0661
     28 H           1.4217   -2.4948   -1.3149 H       1  LIG1        0.0626
     29 H          -1.2224   -3.2302    0.1143 H       1  LIG1        0.0689
     30 H          -0.5233   -6.4375   -0.8214 H       1  LIG1        0.2954
     31 H          -0.6937   -1.4828    1.5825 H       1  LIG1        0.0661
@<TRIPOS>BOND
     1     1     2    1
     2     2     3    1
     3     3     4   ar
     4     4     5    1
     5     5     6    1
     6     4     7   ar
     7     7     8    1
     8     8     9    1
     9     7    10   ar
    10    10    11   ar
    11    11    12    1
    12    12    13    2
    13    13    14    1
    14    14    15    1
    15    14    16    2
    16    11    17   ar
    17     3    17   ar
    18     1    18    1
    19     1    19    1
    20     1    20    1
    21     6    21    1
    22     6    22    1
    23     6    23    1
    24     9    24    1
    25     9    25    1
    26     9    26    1
    27    10    27    1
    28    12    28    1
    29    13    29    1
    30    15    30    1
    31    17    31    1
