@<TRIPOS>MOLECULE
NuBBE_365
 82 86 0 0 0
SMALL
GASTEIGER

@<TRIPOS>ATOM
      1 C          -4.0687   -0.6770    5.1483 C.3     1  LIG1       -0.0598
      2 C          -3.5852    0.3262    4.0817 C.3     1  LIG1       -0.0343
      3 C          -4.8146    0.9017    3.3507 C.3     1  LIG1       -0.0473
      4 C          -4.4625    1.6510    2.0651 C.3     1  LIG1       -0.0443
      5 C          -3.5920    0.8175    1.0796 C.3     1  LIG1        0.0004
      6 C          -3.1990    1.7509   -0.0889 C.3     1  LIG1       -0.0439
      7 C          -2.1667    1.1577   -1.0497 C.3     1  LIG1       -0.0428
      8 C          -0.8691    0.5616   -0.3946 C.3     1  LIG1       -0.0051
      9 C          -0.0696   -0.3758   -1.4666 C.3     1  LIG1       -0.0194
     10 C           0.4269    0.4143   -2.7166 C.3     1  LIG1       -0.0463
     11 C           1.8812    0.8745   -2.7319 C.3     1  LIG1       -0.0486
     12 C           2.8363   -0.2800   -2.3947 C.3     1  LIG1       -0.0278
     13 H           2.5139   -1.1202   -3.0329 H       1  LIG1        0.0312
     14 C           4.3314   -0.0413   -2.8263 C.3     1  LIG1       -0.0056
     15 C           4.4095    0.1164   -4.3723 C.3     1  LIG1       -0.0572
     16 C           5.1615   -1.3069   -2.4623 C.3     1  LIG1        0.0606
     17 H           4.8377   -2.1342   -3.1076 H       1  LIG1        0.0599
     18 C           4.9944   -1.7599   -1.0171 C.3     1  LIG1       -0.0258
     19 C           3.5291   -1.9974   -0.6611 C.3     1  LIG1       -0.0447
     20 C           2.5945   -0.7696   -0.9214 C.3     1  LIG1       -0.0250
     21 C           1.0803   -1.2578   -0.8302 C.3     1  LIG1       -0.0257
     22 H           1.1294   -2.1340   -1.4979 H       1  LIG1        0.0315
     23 C           0.6635   -1.9005    0.5124 C.3     1  LIG1       -0.0306
     24 C          -0.5014   -1.3088    1.2412 C.2     1  LIG1       -0.0836
     25 C          -1.2094   -0.2188    0.8949 C.2     1  LIG1       -0.0633
     26 C          -2.2887    0.3898    1.8170 C.3     1  LIG1       -0.0112
     27 H          -1.8177    1.3153    2.1793 H       1  LIG1        0.0352
     28 C          -2.6294   -0.4086    3.1043 C.3     1  LIG1       -0.0407
     29 C           2.9268    0.2885    0.1501 C.3     1  LIG1       -0.0590
     30 O           6.5509   -1.1230   -2.7319 O.3     1  LIG1       -0.3912
     31 C           4.9487    1.2428   -2.2375 C.3     1  LIG1       -0.0572
     32 C          -1.0785   -1.4391   -2.0597 C.3     1  LIG1       -0.0585
     33 C          -0.0328    1.7801    0.0670 C.3     1  LIG1       -0.0553
     34 C          -4.4674   -0.3701    0.5778 C.3     1  LIG1        0.0504
     35 O          -3.8157   -1.2248   -0.3401 O.3     1  LIG1       -0.3944
     36 C          -2.8330    1.4584    4.8116 C.3     1  LIG1       -0.0598
     37 H          -4.6126   -1.5111    4.6901 H       1  LIG1        0.0235
     38 H          -4.7428   -0.1975    5.8671 H       1  LIG1        0.0235
     39 H          -3.2260   -1.0982    5.7078 H       1  LIG1        0.0235
     40 H          -5.3640    1.5808    4.0159 H       1  LIG1        0.0271
     41 H          -5.5218    0.0972    3.1162 H       1  LIG1        0.0271
     42 H          -3.9405    2.5794    2.3301 H       1  LIG1        0.0272
     43 H          -5.3923    1.9629    1.5717 H       1  LIG1        0.0272
     44 H          -2.8081    2.6969    0.3067 H       1  LIG1        0.0272
     45 H          -4.0946    2.0263   -0.6618 H       1  LIG1        0.0272
     46 H          -1.8904    1.9503   -1.7566 H       1  LIG1        0.0274
     47 H          -2.6978    0.4228   -1.6513 H       1  LIG1        0.0274
     48 H          -0.2135    1.2781   -2.9187 H       1  LIG1        0.0271
     49 H           0.3112   -0.2205   -3.6074 H       1  LIG1        0.0271
     50 H           2.0262    1.7297   -2.0706 H       1  LIG1        0.0268
     51 H           2.0765    1.2563   -3.7389 H       1  LIG1        0.0268
     52 H           3.9042   -0.7121   -4.8816 H       1  LIG1        0.0236
     53 H           5.4485    0.1294   -4.7215 H       1  LIG1        0.0236
     54 H           3.9540    1.0504   -4.7153 H       1  LIG1        0.0236
     55 H           5.4624   -1.0450   -0.3322 H       1  LIG1        0.0290
     56 H           5.5559   -2.6915   -0.8677 H       1  LIG1        0.0290
     57 H           3.4812   -2.3042    0.3901 H       1  LIG1        0.0271
     58 H           3.1795   -2.8582   -1.2463 H       1  LIG1        0.0271
     59 H           1.5013   -1.9351    1.2149 H       1  LIG1        0.0310
     60 H           0.4093   -2.9523    0.3196 H       1  LIG1        0.0310
     61 H          -0.7333   -1.8438    2.1581 H       1  LIG1        0.0572
     62 H          -1.7065   -0.6372    3.6533 H       1  LIG1        0.0276
     63 H          -3.0635   -1.3768    2.8229 H       1  LIG1        0.0276
     64 H           2.4394    0.0685    1.1041 H       1  LIG1        0.0235
     65 H           2.6495    1.2991   -0.1464 H       1  LIG1        0.0235
     66 H           3.9920    0.3315    0.3858 H       1  LIG1        0.0235
     67 H           6.9112   -0.5130   -2.0667 H       1  LIG1        0.2098
     68 H           5.1376    1.1702   -1.1666 H       1  LIG1        0.0236
     69 H           4.3102    2.1147   -2.4110 H       1  LIG1        0.0236
     70 H           5.9144    1.4670   -2.7067 H       1  LIG1        0.0236
     71 H          -1.8311   -0.9883   -2.7122 H       1  LIG1        0.0235
     72 H          -1.5848   -2.0127   -1.2801 H       1  LIG1        0.0235
     73 H          -0.5597   -2.1668   -2.6974 H       1  LIG1        0.0235
     74 H           0.4023    2.3267   -0.7712 H       1  LIG1        0.0238
     75 H           0.7548    1.4953    0.7633 H       1  LIG1        0.0238
     76 H          -0.6356    2.5133    0.6141 H       1  LIG1        0.0238
     77 H          -4.8048   -1.0002    1.4044 H       1  LIG1        0.0563
     78 H          -5.3652    0.0180    0.0820 H       1  LIG1        0.0563
     79 H          -4.4281   -1.9483   -0.5534 H       1  LIG1        0.2094
     80 H          -2.4715    2.2292    4.1251 H       1  LIG1        0.0235
     81 H          -1.9654    1.0675    5.3554 H       1  LIG1        0.0235
     82 H          -3.4826    1.9525    5.5434 H       1  LIG1        0.0235
@<TRIPOS>BOND
     1     2     3    1
     2     3     4    1
     3     4     5    1
     4     5     6    1
     5     6     7    1
     6     7     8    1
     7     8     9    1
     8     9    10    1
     9    10    11    1
    10    11    12    1
    11    12    14    1
    12    14    16    1
    13    16    18    1
    14    18    19    1
    15    19    20    1
    16    20    21    1
    17    21    23    1
    18    23    24    1
    19    24    25    2
    20    25    26    1
    21    26    28    1
    22    12    20    1
    23    21     9    1
    24    25     8    1
    25    26     5    1
    26    34    35    1
    27    28     2    1
    28     1     2    1
    29     2    36    1
    30     5    34    1
    31     8    33    1
    32     9    32    1
    33    12    13    1
    34    14    15    1
    35    14    31    1
    36    16    17    1
    37    16    30    1
    38    20    29    1
    39    21    22    1
    40    26    27    1
    41     1    37    1
    42     1    38    1
    43     1    39    1
    44     3    40    1
    45     3    41    1
    46     4    42    1
    47     4    43    1
    48     6    44    1
    49     6    45    1
    50     7    46    1
    51     7    47    1
    52    10    48    1
    53    10    49    1
    54    11    50    1
    55    11    51    1
    56    15    52    1
    57    15    53    1
    58    15    54    1
    59    18    55    1
    60    18    56    1
    61    19    57    1
    62    19    58    1
    63    23    59    1
    64    23    60    1
    65    24    61    1
    66    28    62    1
    67    28    63    1
    68    29    64    1
    69    29    65    1
    70    29    66    1
    71    30    67    1
    72    31    68    1
    73    31    69    1
    74    31    70    1
    75    32    71    1
    76    32    72    1
    77    32    73    1
    78    33    74    1
    79    33    75    1
    80    33    76    1
    81    34    77    1
    82    34    78    1
    83    35    79    1
    84    36    80    1
    85    36    81    1
    86    36    82    1
