REMARK  Name = NuBBE_127
REMARK  12 active torsions:
REMARK  status: ('A' for Active; 'I' for Inactive)
REMARK    1  A    between atoms: O_1  and  C_2
REMARK    2  A    between atoms: C_5  and  C_6
REMARK    3  A    between atoms: C_10  and  O_11
REMARK    4  A    between atoms: C_12  and  O_13
REMARK    5  A    between atoms: O_13  and  C_14
REMARK    6  A    between atoms: C_17  and  C_25
REMARK    7  A    between atoms: C_19  and  O_24
REMARK    8  A    between atoms: C_21  and  O_23
REMARK    9  A    between atoms: C_25  and  O_26
REMARK   10  A    between atoms: C_27  and  O_29
REMARK   11  A    between atoms: C_30  and  O_31
REMARK   12  A    between atoms: O_31  and  C_32
REMARK                            x       y       z     vdW  Elec       q    Type
REMARK                         _______ _______ _______ _____ _____    ______ ____
ROOT
ATOM      1  C   LIG A   1      -3.448  -2.543   0.122  0.00  0.00    +0.139 A 
ATOM      2  O   LIG A   1      -2.996  -1.238   0.148  0.00  0.00    -0.454 OA
ATOM      3  C   LIG A   1      -1.769  -0.950  -0.380  0.00  0.00    +0.146 A 
ATOM      4  C   LIG A   1      -0.886  -1.914  -0.852  0.00  0.00    +0.109 A 
ATOM      5  C   LIG A   1       0.378  -1.524  -1.322  0.00  0.00    +0.177 A 
ATOM      6  C   LIG A   1       0.747  -0.163  -1.332  0.00  0.00    +0.207 A 
ATOM      7  C   LIG A   1      -0.215   0.802  -0.961  0.00  0.00    +0.169 A 
ATOM      8  C   LIG A   1      -1.449   0.399  -0.453  0.00  0.00    +0.096 A 
ATOM      9  C   LIG A   1      -2.716  -3.568  -0.340  0.00  0.00    +0.098 A 
ATOM     10  C   LIG A   1      -1.352  -3.308  -0.844  0.00  0.00    +0.197 A 
ATOM     11  O   LIG A   1      -0.635  -4.218  -1.263  0.00  0.00    -0.287 OA
ENDROOT
BRANCH   1  15
ATOM     12  C   LIG A   1      -7.450  -2.823   1.639  0.00  0.00    +0.117 A 
ATOM     13  C   LIG A   1      -6.578  -1.875   2.158  0.00  0.00    +0.046 A 
ATOM     14  C   LIG A   1      -5.271  -1.807   1.665  0.00  0.00    +0.015 A 
ATOM     15  C   LIG A   1      -4.822  -2.682   0.655  0.00  0.00    +0.018 A 
ATOM     16  C   LIG A   1      -5.730  -3.619   0.142  0.00  0.00    +0.015 A 
ATOM     17  C   LIG A   1      -7.037  -3.691   0.636  0.00  0.00    +0.046 A 
BRANCH  12  18
ATOM     18  O   LIG A   1      -8.732  -2.931   2.088  0.00  0.00    -0.507 OA
ATOM     19  H   LIG A   1      -8.873  -2.277   2.791  0.00  0.00    +0.292 HD
ENDBRANCH  12  18
ENDBRANCH   1  15
BRANCH   5  20
ATOM     20  O   LIG A   1       1.286  -2.454  -1.772  0.00  0.00    -0.503 OA
ATOM     21  H   LIG A   1       0.864  -3.342  -1.764  0.00  0.00    +0.292 HD
ENDBRANCH   5  20
BRANCH   7  22
ATOM     22  O   LIG A   1       0.049   2.123  -1.197  0.00  0.00    -0.491 OA
ATOM     23  C   LIG A   1      -0.527   3.068  -0.302  0.00  0.00    +0.277 C 
ENDBRANCH   7  22
BRANCH   6  24
ATOM     24  O   LIG A   1       2.059   0.119  -1.670  0.00  0.00    -0.454 OA
BRANCH  24  25
ATOM     25  C   LIG A   1       2.655   1.293  -1.081  0.00  0.00    +0.340 C 
ATOM     26  O   LIG A   1       4.014   1.450  -1.584  0.00  0.00    -0.331 OA
ATOM     27  C   LIG A   1       4.702   2.443  -0.814  0.00  0.00    +0.179 C 
ATOM     28  C   LIG A   1       5.129   1.813   0.525  0.00  0.00    +0.177 C 
ATOM     29  C   LIG A   1       4.034   0.858   1.036  0.00  0.00    +0.180 C 
ATOM     30  C   LIG A   1       2.648   1.244   0.489  0.00  0.00    +0.214 C 
BRANCH  29  31
ATOM     31  O   LIG A   1       4.345  -0.498   0.700  0.00  0.00    -0.386 OA
ATOM     32  H   LIG A   1       4.336  -0.583  -0.274  0.00  0.00    +0.210 HD
ENDBRANCH  29  31
BRANCH  28  33
ATOM     33  O   LIG A   1       5.380   2.836   1.496  0.00  0.00    -0.387 OA
ATOM     34  H   LIG A   1       6.193   3.293   1.197  0.00  0.00    +0.210 HD
ENDBRANCH  28  33
BRANCH  30  35
ATOM     35  O   LIG A   1       2.262   2.534   1.009  0.00  0.00    -0.383 OA
ATOM     36  H   LIG A   1       2.495   2.553   1.955  0.00  0.00    +0.210 HD
ENDBRANCH  30  35
BRANCH  27  37
ATOM     37  C   LIG A   1       5.909   3.005  -1.568  0.00  0.00    +0.190 C 
BRANCH  37  38
ATOM     38  O   LIG A   1       6.563   4.008  -0.788  0.00  0.00    -0.392 OA
ATOM     39  H   LIG A   1       5.937   4.750  -0.692  0.00  0.00    +0.209 HD
ENDBRANCH  37  38
ENDBRANCH  27  37
ENDBRANCH  24  25
ENDBRANCH   6  24
TORSDOF 11
