REMARK  Name = NuBBE_2022
REMARK  4 active torsions:
REMARK  status: ('A' for Active; 'I' for Inactive)
REMARK    1  A    between atoms: C_4  and  O_5
REMARK    2  A    between atoms: C_7  and  O_8
REMARK    3  A    between atoms: C_12  and  C_14
REMARK    4  A    between atoms: C_17  and  O_18
REMARK                            x       y       z     vdW  Elec       q    Type
REMARK                         _______ _______ _______ _____ _____    ______ ____
ROOT
ATOM      1  O   LIG A   1      -3.393  -0.812   0.589  0.00  0.00    -0.292 OA
ATOM      2  C   LIG A   1      -2.176  -0.702   0.461  0.00  0.00    +0.174 C 
ATOM      3  C   LIG A   1      -1.345  -1.905   0.269  0.00  0.00    +0.101 A 
ATOM      4  C   LIG A   1      -1.904  -3.188   0.258  0.00  0.00    +0.134 A 
ATOM      5  C   LIG A   1      -1.088  -4.309   0.118  0.00  0.00    +0.091 A 
ATOM      6  C   LIG A   1       0.288  -4.136   0.002  0.00  0.00    +0.124 A 
ATOM      7  C   LIG A   1       0.857  -2.865   0.014  0.00  0.00    +0.092 A 
ATOM      8  C   LIG A   1       0.035  -1.745   0.131  0.00  0.00    +0.139 A 
ATOM      9  O   LIG A   1       0.656  -0.523   0.128  0.00  0.00    -0.483 OA
ATOM     10  C   LIG A   1      -0.210   0.538  -0.306  0.00  0.00    +0.211 C 
ATOM     11  C   LIG A   1      -1.457   0.613   0.565  0.00  0.00    +0.129 C 
ENDROOT
BRANCH  10  12
ATOM     12  C   LIG A   1       0.575   1.835  -0.261  0.00  0.00    -0.007 A 
ATOM     13  C   LIG A   1       0.653   2.655  -1.399  0.00  0.00    +0.011 A 
ATOM     14  C   LIG A   1       1.367   3.856  -1.367  0.00  0.00    +0.046 A 
ATOM     15  C   LIG A   1       2.004   4.242  -0.193  0.00  0.00    +0.117 A 
ATOM     16  C   LIG A   1       1.940   3.449   0.945  0.00  0.00    +0.046 A 
ATOM     17  C   LIG A   1       1.230   2.247   0.911  0.00  0.00    +0.011 A 
BRANCH  15  18
ATOM     18  O   LIG A   1       2.711   5.405  -0.118  0.00  0.00    -0.507 OA
ATOM     19  H   LIG A   1       2.690   5.838  -0.987  0.00  0.00    +0.292 HD
ENDBRANCH  15  18
ENDBRANCH  10  12
BRANCH   4  20
ATOM     20  O   LIG A   1      -3.247  -3.418   0.387  0.00  0.00    -0.506 OA
ATOM     21  H   LIG A   1      -3.697  -2.550   0.504  0.00  0.00    +0.292 HD
ENDBRANCH   4  20
BRANCH   6  22
ATOM     22  O   LIG A   1       1.127  -5.203  -0.130  0.00  0.00    -0.506 OA
ATOM     23  H   LIG A   1       0.601  -6.020  -0.116  0.00  0.00    +0.292 HD
ENDBRANCH   6  22
TORSDOF 4
