REMARK  Name = NuBBE_1932
REMARK  5 active torsions:
REMARK  status: ('A' for Active; 'I' for Inactive)
REMARK    1  A    between atoms: C_1  and  C_2
REMARK    2  A    between atoms: C_2  and  C_3
REMARK    3  A    between atoms: C_10  and  C_20
REMARK    4  A    between atoms: C_10  and  O_21
REMARK    5  A    between atoms: C_15  and  C_17
REMARK                            x       y       z     vdW  Elec       q    Type
REMARK                         _______ _______ _______ _____ _____    ______ ____
ROOT
ATOM      1  C   LIG A   1      -0.482   1.990  -1.560  0.00  0.00    +0.011 C 
ATOM      2  C   LIG A   1       0.891   1.690  -1.002  0.00  0.00    -0.028 C 
ATOM      3  C   LIG A   1       1.783   2.919  -0.967  0.00  0.00    +0.011 C 
ATOM      4  C   LIG A   1       1.168   0.699   0.125  0.00  0.00    +0.002 C 
ATOM      5  C   LIG A   1       1.538   0.306  -1.289  0.00  0.00    -0.001 C 
ATOM      6  C   LIG A   1       0.868  -0.650  -2.240  0.00  0.00    +0.007 C 
ATOM      7  C   LIG A   1       0.207  -1.950  -1.782  0.00  0.00    +0.035 C 
ATOM      8  C   LIG A   1      -0.139  -2.213  -0.305  0.00  0.00    +0.066 C 
ATOM      9  C   LIG A   1      -0.784  -0.964   0.348  0.00  0.00    +0.024 C 
ATOM     10  C   LIG A   1       0.233  -0.042   1.003  0.00  0.00    +0.002 C 
ATOM     11  C   LIG A   1      -0.512   0.772   2.068  0.00  0.00    -0.010 C 
ATOM     12  C   LIG A   1      -1.179   2.067   1.630  0.00  0.00    +0.008 C 
ATOM     13  C   LIG A   1      -1.528  -0.245   2.596  0.00  0.00    +0.004 C 
ATOM     14  C   LIG A   1      -1.847  -1.194   1.438  0.00  0.00    +0.007 C 
ATOM     15  C   LIG A   1       1.095  -2.785   0.406  0.00  0.00    +0.041 C 
ENDROOT
BRANCH   8  16
ATOM     16  O   LIG A   1      -1.100  -3.290  -0.304  0.00  0.00    -0.389 OA
ATOM     17  H   LIG A   1      -1.915  -2.967  -0.699  0.00  0.00    +0.210 HD
ENDBRANCH   8  16
TORSDOF 1
