REMARK  Name = NuBBE_1889
REMARK  15 active torsions:
REMARK  status: ('A' for Active; 'I' for Inactive)
REMARK    1  A    between atoms: C_4  and  O_32
REMARK    2  A    between atoms: C_6  and  O_30
REMARK    3  A    between atoms: C_10  and  C_11
REMARK    4  A    between atoms: C_13  and  O_14
REMARK    5  A    between atoms: O_14  and  C_15
REMARK    6  A    between atoms: C_15  and  C_16
REMARK    7  A    between atoms: C_18  and  O_25
REMARK    8  A    between atoms: C_20  and  O_21
REMARK    9  A    between atoms: O_21  and  C_22
REMARK   10  A    between atoms: C_22  and  C_23
REMARK   11  A    between atoms: O_25  and  C_26
REMARK   12  A    between atoms: C_27  and  O_28
REMARK   13  A    between atoms: O_28  and  C_29
REMARK   14  A    between atoms: O_30  and  C_31
REMARK   15  A    between atoms: O_32  and  C_33
REMARK                            x       y       z     vdW  Elec       q    Type
REMARK                         _______ _______ _______ _____ _____    ______ ____
ROOT
ATOM      1  O   LIG A   1      -3.109  -2.075   1.301  0.00  0.00    -0.283 OA
ATOM      2  C   LIG A   1      -1.945  -1.792   1.055  0.00  0.00    +0.238 A 
ATOM      3  C   LIG A   1      -0.955  -2.831   0.719  0.00  0.00    +0.109 A 
ATOM      4  C   LIG A   1      -1.063  -4.179   1.108  0.00  0.00    +0.138 A 
ATOM      5  C   LIG A   1      -0.001  -5.048   0.828  0.00  0.00    +0.092 A 
ATOM      6  C   LIG A   1       1.139  -4.589   0.149  0.00  0.00    +0.127 A 
ATOM      7  C   LIG A   1       1.205  -3.267  -0.277  0.00  0.00    +0.092 A 
ATOM      8  C   LIG A   1       0.156  -2.398  -0.002  0.00  0.00    +0.147 A 
ATOM      9  O   LIG A   1       0.265  -1.121  -0.495  0.00  0.00    -0.451 OA
ATOM     10  C   LIG A   1      -0.456  -0.128   0.150  0.00  0.00    +0.184 A 
ATOM     11  C   LIG A   1      -1.452  -0.373   1.024  0.00  0.00    +0.211 A 
ENDROOT
BRANCH  10  12
ATOM     12  C   LIG A   1      -0.006   1.224  -0.224  0.00  0.00    +0.067 A 
ATOM     13  C   LIG A   1       1.095   1.787   0.429  0.00  0.00    +0.065 A 
ATOM     14  C   LIG A   1       1.618   3.023   0.011  0.00  0.00    +0.174 A 
ATOM     15  C   LIG A   1       1.089   3.705  -1.096  0.00  0.00    +0.166 A 
ATOM     16  C   LIG A   1      -0.015   3.152  -1.736  0.00  0.00    +0.096 A 
ATOM     17  C   LIG A   1      -0.576   1.943  -1.287  0.00  0.00    +0.146 A 
BRANCH  15  18
ATOM     18  O   LIG A   1       1.694   4.875  -1.484  0.00  0.00    -0.491 OA
ATOM     19  C   LIG A   1       1.112   5.567  -2.590  0.00  0.00    +0.277 C 
ENDBRANCH  15  18
BRANCH  14  20
ATOM     20  O   LIG A   1       2.735   3.607   0.652  0.00  0.00    -0.422 OA
BRANCH  20  21
ATOM     21  C   LIG A   1       2.887   3.509   2.033  0.00  0.00    +0.309 C 
ATOM     22  C   LIG A   1       4.066   4.320   2.469  0.00  0.00    +0.136 C 
ATOM     23  O   LIG A   1       2.167   2.903   2.816  0.00  0.00    -0.251 OA
ENDBRANCH  20  21
ENDBRANCH  14  20
BRANCH  17  24
ATOM     24  O   LIG A   1      -1.621   1.365  -2.034  0.00  0.00    -0.425 OA
BRANCH  24  25
ATOM     25  C   LIG A   1      -2.570   2.258  -2.549  0.00  0.00    +0.309 C 
ATOM     26  C   LIG A   1      -2.851   1.850  -3.976  0.00  0.00    +0.136 C 
ATOM     27  O   LIG A   1      -3.009   3.264  -2.016  0.00  0.00    -0.251 OA
ENDBRANCH  24  25
ENDBRANCH  17  24
ENDBRANCH  10  12
BRANCH  11  28
ATOM     28  O   LIG A   1      -1.975   0.643   1.806  0.00  0.00    -0.488 OA
ATOM     29  C   LIG A   1      -3.166   0.362   2.528  0.00  0.00    +0.277 C 
ENDBRANCH  11  28
BRANCH   6  30
ATOM     30  O   LIG A   1       2.141  -5.508  -0.014  0.00  0.00    -0.495 OA
ATOM     31  C   LIG A   1       2.997  -5.279  -1.131  0.00  0.00    +0.277 C 
ENDBRANCH   6  30
BRANCH   4  32
ATOM     32  O   LIG A   1      -2.244  -4.592   1.661  0.00  0.00    -0.494 OA
ATOM     33  C   LIG A   1      -2.224  -5.660   2.598  0.00  0.00    +0.277 C 
ENDBRANCH   4  32
TORSDOF 9
