REMARK  Name = NuBBE_1484
REMARK  4 active torsions:
REMARK  status: ('A' for Active; 'I' for Inactive)
REMARK    1  A    between atoms: C_1  and  C_2
REMARK    2  A    between atoms: C_2  and  C_3
REMARK    3  A    between atoms: C_7  and  O_20
REMARK    4  A    between atoms: N_10  and  C_19
REMARK                            x       y       z     vdW  Elec       q    Type
REMARK                         _______ _______ _______ _____ _____    ______ ____
ROOT
ATOM      1  C   LIG A   1      -1.005   0.561   3.684  0.00  0.00    +0.060 C 
ATOM      2  C   LIG A   1       0.528   0.474   3.585  0.00  0.00    +0.123 C 
ATOM      3  C   LIG A   1       1.125   0.658   4.984  0.00  0.00    +0.060 C 
ATOM      4  O   LIG A   1       0.906  -0.855   3.144  0.00  0.00    -0.481 OA
ATOM      5  C   LIG A   1       0.707  -1.077   1.798  0.00  0.00    +0.134 A 
ATOM      6  C   LIG A   1       0.490  -2.392   1.424  0.00  0.00    +0.092 A 
ATOM      7  C   LIG A   1       0.227  -2.675   0.090  0.00  0.00    +0.133 A 
ATOM      8  C   LIG A   1       0.128  -1.638  -0.862  0.00  0.00    +0.088 A 
ATOM      9  C   LIG A   1       0.272  -0.276  -0.480  0.00  0.00    +0.067 A 
ATOM     10  N   LIG A   1      -0.038   0.744  -1.425  0.00  0.00    -0.342 N 
ATOM     11  C   LIG A   1      -0.346   0.472  -2.784  0.00  0.00    +0.053 A 
ATOM     12  C   LIG A   1      -0.636   1.478  -3.727  0.00  0.00    +0.026 A 
ATOM     13  C   LIG A   1      -0.925   1.178  -5.064  0.00  0.00    +0.002 A 
ATOM     14  C   LIG A   1      -0.905  -0.140  -5.502  0.00  0.00    +0.001 A 
ATOM     15  C   LIG A   1      -0.618  -1.154  -4.595  0.00  0.00    +0.014 A 
ATOM     16  C   LIG A   1      -0.354  -0.848  -3.248  0.00  0.00    +0.046 A 
ATOM     17  C   LIG A   1      -0.112  -1.955  -2.300  0.00  0.00    +0.201 A 
ATOM     18  O   LIG A   1      -0.096  -3.096  -2.739  0.00  0.00    -0.286 OA
ATOM     19  C   LIG A   1      -0.477   2.066  -0.950  0.00  0.00    +0.149 C 
ATOM     20  C   LIG A   1       0.697  -0.030   0.852  0.00  0.00    +0.041 A 
ATOM     21  C   LIG A   1       1.218   1.254   1.344  0.00  0.00    +0.013 C 
ATOM     22  C   LIG A   1       1.097   1.515   2.651  0.00  0.00    +0.020 C 
ENDROOT
BRANCH   7  23
ATOM     23  O   LIG A   1       0.015  -3.981  -0.256  0.00  0.00    -0.506 OA
ATOM     24  H   LIG A   1       0.192  -4.567   0.496  0.00  0.00    +0.292 HD
ENDBRANCH   7  23
TORSDOF 1
