REMARK  Name = NuBBE_1041
REMARK  14 active torsions:
REMARK  status: ('A' for Active; 'I' for Inactive)
REMARK    1  A    between atoms: O_1  and  C_2
REMARK    2  A    between atoms: C_5  and  C_37
REMARK    3  A    between atoms: C_8  and  C_9
REMARK    4  A    between atoms: C_8  and  C_10
REMARK    5  A    between atoms: C_17  and  C_35
REMARK    6  A    between atoms: C_18  and  C_19
REMARK    7  A    between atoms: C_22  and  C_24
REMARK    8  A    between atoms: C_24  and  C_26
REMARK    9  A    between atoms: C_24  and  C_34
REMARK   10  A    between atoms: C_26  and  C_27
REMARK   11  A    between atoms: C_27  and  C_28
REMARK   12  A    between atoms: C_29  and  O_30
REMARK   13  A    between atoms: C_29  and  C_33
REMARK   14  A    between atoms: O_30  and  C_31
REMARK                            x       y       z     vdW  Elec       q    Type
REMARK                         _______ _______ _______ _____ _____    ______ ____
ROOT
ATOM      1  C   LIG A   1      -4.529   3.291  -2.956  0.00  0.00    +0.120 C 
ATOM      2  C   LIG A   1      -3.123   3.619  -3.486  0.00  0.00    +0.032 C 
ATOM      3  C   LIG A   1      -1.954   2.995  -2.710  0.00  0.00    +0.010 C 
ATOM      4  C   LIG A   1      -2.283   1.607  -2.138  0.00  0.00    -0.022 C 
ATOM      5  C   LIG A   1      -3.526   1.713  -1.181  0.00  0.00    +0.007 C 
ATOM      6  C   LIG A   1      -4.567   2.847  -1.480  0.00  0.00    -0.005 C 
ATOM      7  C   LIG A   1      -4.228   4.083  -0.593  0.00  0.00    +0.014 C 
ATOM      8  C   LIG A   1      -6.002   2.435  -1.079  0.00  0.00    +0.014 C 
ATOM      9  C   LIG A   1      -4.043   0.295  -0.910  0.00  0.00    +0.031 C 
ATOM     10  C   LIG A   1      -2.906  -0.590  -0.453  0.00  0.00    -0.026 C 
ATOM     11  C   LIG A   1      -1.588  -0.274  -0.520  0.00  0.00    -0.063 C 
ATOM     12  C   LIG A   1      -1.149   1.046  -1.197  0.00  0.00    +0.021 C 
ATOM     13  C   LIG A   1       0.217   0.982  -1.884  0.00  0.00    +0.009 C 
ATOM     14  C   LIG A   1       1.253   0.415  -0.934  0.00  0.00    +0.008 C 
ATOM     15  C   LIG A   1       0.929  -1.044  -0.499  0.00  0.00    -0.020 C 
ATOM     16  C   LIG A   1      -0.504  -1.141   0.153  0.00  0.00    -0.005 C 
ATOM     17  C   LIG A   1      -0.968  -2.625   0.254  0.00  0.00    +0.016 C 
ATOM     18  C   LIG A   1      -0.248  -0.601   1.570  0.00  0.00    +0.012 C 
ATOM     19  C   LIG A   1       1.106  -1.171   1.975  0.00  0.00    +0.005 C 
ATOM     20  C   LIG A   1       1.945  -1.365   0.681  0.00  0.00    -0.001 C 
ATOM     21  C   LIG A   1       1.003  -1.917  -1.765  0.00  0.00    +0.012 C 
ATOM     22  C   LIG A   1      -2.455   0.638  -3.351  0.00  0.00    +0.012 C 
ENDROOT
BRANCH   1  23
ATOM     23  O   LIG A   1      -5.134   2.280  -3.764  0.00  0.00    -0.391 OA
ATOM     24  H   LIG A   1      -5.178   2.616  -4.676  0.00  0.00    +0.210 HD
ENDBRANCH   1  23
BRANCH  20  25
ATOM     25  C   LIG A   1       2.749  -2.702   0.693  0.00  0.00    -0.010 C 
ATOM     26  C   LIG A   1       3.671  -2.880  -0.523  0.00  0.00    +0.008 C 
BRANCH  25  27
ATOM     27  C   LIG A   1       3.614  -2.902   1.977  0.00  0.00    +0.008 C 
BRANCH  27  28
ATOM     28  C   LIG A   1       4.785  -1.922   2.167  0.00  0.00    +0.031 C 
BRANCH  28  29
ATOM     29  C   LIG A   1       5.633  -2.306   3.352  0.00  0.00    +0.014 C 
ATOM     30  C   LIG A   1       5.566  -1.780   4.587  0.00  0.00    +0.102 C 
ATOM     31  C   LIG A   1       6.414  -2.269   5.729  0.00  0.00    +0.086 C 
BRANCH  30  32
ATOM     32  O   LIG A   1       4.597  -0.800   4.894  0.00  0.00    -0.433 OA
BRANCH  32  33
ATOM     33  C   LIG A   1       5.094   0.395   5.329  0.00  0.00    +0.451 C 
ATOM     34  O   LIG A   1       6.249   0.734   5.487  0.00  0.00    -0.254 OA
ENDBRANCH  32  33
ENDBRANCH  30  32
ENDBRANCH  28  29
ENDBRANCH  27  28
ENDBRANCH  25  27
ENDBRANCH  20  25
TORSDOF 7
