@<TRIPOS>MOLECULE
NuBBE_385
 50 52 0 0 0
SMALL
GASTEIGER

@<TRIPOS>ATOM
      1 C           3.5365   -6.3373    1.2959 C.3     1  LIG1        0.0790
      2 O           2.9450   -5.2638    0.5784 O.3     1  LIG1       -0.4915
      3 C           3.1839   -3.9863    1.0085 C.ar    1  LIG1        0.1615
      4 C           2.5333   -3.0154    0.2301 C.ar    1  LIG1       -0.0131
      5 C           2.6338   -1.6445    0.5171 C.ar    1  LIG1       -0.0433
      6 C           1.9046   -0.6139   -0.3217 C.3     1  LIG1       -0.0222
      7 C           0.3704   -0.7768   -0.3106 C.3     1  LIG1       -0.0060
      8 H           0.1163   -1.7862   -0.6544 H       1  LIG1        0.0330
      9 C          -0.4033    0.2716   -1.1226 C.3     1  LIG1        0.0178
     10 H          -1.3741   -0.1912   -1.3549 H       1  LIG1        0.0355
     11 C          -0.5932    1.4302   -0.1316 C.3     1  LIG1        0.0890
     12 H           0.1999    2.1801   -0.2616 H       1  LIG1        0.0650
     13 O          -0.4166    0.8823    1.1873 O.3     1  LIG1       -0.3713
     14 C          -0.2220   -0.5329    1.0711 C.3     1  LIG1        0.0520
     15 C          -1.9486    2.1018   -0.2017 C.ar    1  LIG1       -0.0149
     16 C          -3.1285    1.3800    0.0421 C.ar    1  LIG1       -0.0524
     17 C          -4.3766    2.0028   -0.0179 C.ar    1  LIG1       -0.0162
     18 C          -4.4726    3.3594   -0.3230 C.ar    1  LIG1        0.1585
     19 C          -3.3095    4.1040   -0.5714 C.ar    1  LIG1        0.1616
     20 O          -3.2313    5.4458   -0.8358 O.3     1  LIG1       -0.4914
     21 C          -4.3358    6.0252   -1.5260 C.3     1  LIG1        0.0790
     22 C          -2.0612    3.4676   -0.4916 C.ar    1  LIG1       -0.0107
     23 O          -5.7134    3.9342   -0.3485 O.3     1  LIG1       -0.5033
     24 C           0.1951    0.7148   -2.4497 C.3     1  LIG1        0.0500
     25 O           0.3355   -0.4163   -3.2993 O.3     1  LIG1       -0.3946
     26 C           3.4328   -1.2480    1.5942 C.ar    1  LIG1       -0.0549
     27 C           4.0902   -2.1994    2.3758 C.ar    1  LIG1       -0.0163
     28 C           3.9638   -3.5640    2.0905 C.ar    1  LIG1        0.1585
     29 O           4.6192   -4.4550    2.8935 O.3     1  LIG1       -0.5033
     30 H           3.2128   -7.2696    0.8217 H       1  LIG1        0.0660
     31 H           3.1857   -6.3678    2.3324 H       1  LIG1        0.0660
     32 H           4.6286   -6.3045    1.2307 H       1  LIG1        0.0660
     33 H           1.9345   -3.3481   -0.6169 H       1  LIG1        0.0658
     34 H           2.2871   -0.7104   -1.3450 H       1  LIG1        0.0317
     35 H           2.1777    0.3953    0.0116 H       1  LIG1        0.0317
     36 H          -1.2055   -1.0093    1.1576 H       1  LIG1        0.0563
     37 H           0.3900   -0.8848    1.9048 H       1  LIG1        0.0563
     38 H          -3.0829    0.3287    0.3032 H       1  LIG1        0.0622
     39 H          -5.2661    1.4117    0.1935 H       1  LIG1        0.0655
     40 H          -4.0247    7.0157   -1.8710 H       1  LIG1        0.0660
     41 H          -5.1912    6.1781   -0.8631 H       1  LIG1        0.0660
     42 H          -4.6052    5.4362   -2.4097 H       1  LIG1        0.0660
     43 H          -1.1645    4.0683   -0.6566 H       1  LIG1        0.0659
     44 H          -6.3712    3.2839   -0.0642 H       1  LIG1        0.2923
     45 H          -0.4649    1.4354   -2.9444 H       1  LIG1        0.0561
     46 H           1.1768    1.1825   -2.3246 H       1  LIG1        0.0561
     47 H           0.6003   -0.0881   -4.1765 H       1  LIG1        0.2094
     48 H           3.5441   -0.1935    1.8388 H       1  LIG1        0.0621
     49 H           4.6990   -1.8578    3.2085 H       1  LIG1        0.0655
     50 H           5.0659   -3.9706    3.6072 H       1  LIG1        0.2923
@<TRIPOS>BOND
     1     1     2    1
     2     2     3    1
     3     3     4   ar
     4     4     5   ar
     5     5     6    1
     6     7     9    1
     7     9    11    1
     8    11    13    1
     9    13    14    1
    10     7    14    1
    11    15    16   ar
    12    16    17   ar
    13    17    18   ar
    14    18    19   ar
    15    19    20    1
    16    20    21    1
    17    19    22   ar
    18    15    22   ar
    19    18    23    1
    20    24    25    1
    21     5    26   ar
    22    26    27   ar
    23    27    28   ar
    24     3    28   ar
    25    28    29    1
    26     9    24    1
    27     9    10    1
    28    11    15    1
    29    11    12    1
    30     7     8    1
    31     7     6    1
    32     1    30    1
    33     1    31    1
    34     1    32    1
    35     4    33    1
    36     6    34    1
    37     6    35    1
    38    14    36    1
    39    14    37    1
    40    16    38    1
    41    17    39    1
    42    21    40    1
    43    21    41    1
    44    21    42    1
    45    22    43    1
    46    23    44    1
    47    24    45    1
    48    24    46    1
    49    25    47    1
    50    26    48    1
    51    27    49    1
    52    29    50    1
