@<TRIPOS>MOLECULE
NuBBE_2374
 50 52 0 0 0
SMALL
GASTEIGER

@<TRIPOS>ATOM
      1 C           3.4035    0.7578    0.1769 C.3     1  LIG1        0.0000
      2 C           2.1942    0.5631   -0.8528 C.3     1  LIG1        0.0000
      3 H           2.5755    0.7257   -1.8867 H       1  LIG1        0.0000
      4 C           1.6806   -0.8946   -0.8936 C.2     1  LIG1        0.0000
      5 C           2.3106   -1.9103   -0.2559 C.2     1  LIG1        0.0000
      6 C           3.5793   -1.7540    0.5133 C.3     1  LIG1        0.0000
      7 C           4.3179   -0.4824    0.1179 C.3     1  LIG1        0.0000
      8 C           0.4866   -1.2670   -1.7391 C.3     1  LIG1        0.0000
      9 C          -0.7909   -0.8966   -1.0395 C.ar    1  LIG1        0.0000
     10 C          -1.1530    0.4520   -0.9240 C.ar    1  LIG1        0.0000
     11 C          -2.3661    0.7891   -0.2934 C.ar    1  LIG1        0.0000
     12 C          -3.2114   -0.2064    0.2533 C.ar    1  LIG1        0.0000
     13 C          -4.5529    0.1348    0.9259 C.3     1  LIG1        0.0000
     14 C          -5.7013    0.1272   -0.1059 C.3     1  LIG1        0.0000
     15 C          -4.5791    1.4852    1.6579 C.3     1  LIG1        0.0000
     16 C          -2.8023   -1.5544    0.1898 C.ar    1  LIG1        0.0000
     17 C          -1.6032   -1.9009   -0.4559 C.ar    1  LIG1        0.0000
     18 O          -1.1817   -3.1797   -0.4644 O.3     1  LIG1        0.0000
     19 AC          1.2015   -3.6949   -0.5418 Ac      1  LIG1        0.0000
     20 O          -3.5903   -2.4988    0.7564 O.3     1  LIG1        0.0000
     21 AC         -2.8801   -4.6130    1.7419 Ac      1  LIG1        0.0000
     22 C          -0.2361    1.5535   -1.4420 C.3     1  LIG1        0.0000
     23 C           1.0672    1.6332   -0.6130 C.3     1  LIG1        0.0000
     24 C           4.2950    1.9747   -0.1734 C.3     1  LIG1        0.0000
     25 C           2.8991    0.9568    1.6320 C.3     1  LIG1        0.0000
     26 H           1.8920   -2.9121   -0.2998 H       1  LIG1        0.0000
     27 H           4.2522   -2.6053    0.2751 H       1  LIG1        0.0000
     28 H           3.3433   -1.8059    1.5961 H       1  LIG1        0.0000
     29 H           4.6871   -0.5998   -0.9265 H       1  LIG1        0.0000
     30 H           5.2053   -0.3762    0.7811 H       1  LIG1        0.0000
     31 H           0.4935   -2.3604   -1.9306 H       1  LIG1        0.0000
     32 H           0.5509   -0.8304   -2.7599 H       1  LIG1        0.0000
     33 H          -2.6386    1.8312   -0.2284 H       1  LIG1        0.0000
     34 H          -4.7554   -0.6437    1.6951 H       1  LIG1        0.0000
     35 H          -5.5229    0.8945   -0.8891 H       1  LIG1        0.0000
     36 H          -6.6703    0.3441    0.3922 H       1  LIG1        0.0000
     37 H          -5.8208   -0.8514   -0.6091 H       1  LIG1        0.0000
     38 H          -4.4237    2.3256    0.9477 H       1  LIG1        0.0000
     39 H          -3.8001    1.5096    2.4485 H       1  LIG1        0.0000
     40 H          -5.5645    1.6301    2.1514 H       1  LIG1        0.0000
     41 H          -0.7539    2.5269   -1.2907 H       1  LIG1        0.0000
     42 H          -0.0329    1.4700   -2.5302 H       1  LIG1        0.0000
     43 H           0.7214    1.6265    0.4387 H       1  LIG1        0.0000
     44 H           1.5251    2.6256   -0.8124 H       1  LIG1        0.0000
     45 H           4.7998    1.8245   -1.1538 H       1  LIG1        0.0000
     46 H           5.0988    2.0874    0.5917 H       1  LIG1        0.0000
     47 H           3.7269    2.9244   -0.1979 H       1  LIG1        0.0000
     48 H           2.1763    0.1674    1.9244 H       1  LIG1        0.0000
     49 H           2.4027    1.9430    1.7512 H       1  LIG1        0.0000
     50 H           3.7451    0.9540    2.3511 H       1  LIG1        0.0000
@<TRIPOS>BOND
     1     1     2    1
     2     2     4    1
     3     4     5    2
     4     5     6    1
     5     6     7    1
     6     1     7    1
     7     4     8    1
     8     8     9    1
     9     9    10   ar
    10    10    11   ar
    11    11    12   ar
    12    13    14    1
    13    13    15    1
    14    12    16   ar
    15    16    17   ar
    16     9    17   ar
    17    18    19    1
    18    20    21    1
    19    10    22    1
    20    22    23    1
    21     2    23    1
    22     1    24    1
    23     1    25    1
    24     2     3    1
    25    12    13    1
    26    16    20    1
    27    17    18    1
    28     5    26    1
    29     6    27    1
    30     6    28    1
    31     7    29    1
    32     7    30    1
    33     8    31    1
    34     8    32    1
    35    11    33    1
    36    13    34    1
    37    14    35    1
    38    14    36    1
    39    14    37    1
    40    15    38    1
    41    15    39    1
    42    15    40    1
    43    22    41    1
    44    22    42    1
    45    23    43    1
    46    23    44    1
    47    24    45    1
    48    24    46    1
    49    24    47    1
    50    25    48    1
    51    25    49    1
    52    25    50    1
