@<TRIPOS>MOLECULE
NuBBE_2507
 49 52 0 0 0
SMALL
GASTEIGER

@<TRIPOS>ATOM
      1 C          -1.9223   -4.4832   -0.2495 C.3     1  LIG1       -0.0585
      2 C          -2.8815   -3.2940   -0.1482 C.3     1  LIG1       -0.0178
      3 C          -3.8569   -3.3112   -1.3319 C.3     1  LIG1       -0.0585
      4 C          -2.1060   -1.9977    0.0041 C.2     1  LIG1        0.0061
      5 C          -1.7937   -1.1454   -0.9866 C.2     1  LIG1       -0.0485
      6 C          -1.0638    0.0743   -0.7728 C.2     1  LIG1       -0.0110
      7 C          -0.6809    0.5232    0.4358 C.2     1  LIG1        0.0174
      8 C          -1.0488   -0.2626    1.6286 C.2     1  LIG1        0.2296
      9 O          -0.8705    0.1461    2.7670 O.2     1  LIG1       -0.2835
     10 C          -1.6809   -1.6368    1.3955 C.2     1  LIG1        0.2289
     11 O          -1.8308   -2.4107    2.3330 O.2     1  LIG1       -0.2835
     12 C           0.0121    1.8819    0.4039 C.3     1  LIG1        0.0266
     13 C           0.4044    2.5578    1.7260 C.3     1  LIG1       -0.0408
     14 C           1.6978    2.0470    2.3593 C.3     1  LIG1       -0.0517
     15 C           2.3190    0.8507    1.6537 C.3     1  LIG1       -0.0476
     16 C           2.4964    1.0228    0.1225 C.3     1  LIG1       -0.0311
     17 C           3.7626    1.8748   -0.1376 C.3     1  LIG1       -0.0595
     18 C           2.7831   -0.3825   -0.4479 C.3     1  LIG1       -0.0595
     19 C           1.2675    1.7640   -0.5310 C.3     1  LIG1       -0.0213
     20 C           0.8011    1.2588   -1.9313 C.3     1  LIG1       -0.0182
     21 C          -0.7179    1.0108   -1.9117 C.3     1  LIG1        0.0843
     22 H          -1.0675    0.6472   -2.8829 H       1  LIG1        0.0646
     23 O          -1.3652    2.2688   -1.6433 O.3     1  LIG1       -0.3711
     24 C          -1.0105    2.7973   -0.3456 C.3     1  LIG1        0.0584
     25 H          -2.4788   -5.4254   -0.3018 H       1  LIG1        0.0235
     26 H          -1.2605   -4.5394    0.6214 H       1  LIG1        0.0235
     27 H          -1.2939   -4.4141   -1.1447 H       1  LIG1        0.0235
     28 H          -3.5003   -3.4312    0.7486 H       1  LIG1        0.0345
     29 H          -3.3342   -3.3047   -2.2944 H       1  LIG1        0.0235
     30 H          -4.5317   -2.4488   -1.2991 H       1  LIG1        0.0235
     31 H          -4.4754   -4.2154   -1.3022 H       1  LIG1        0.0235
     32 H          -2.0883   -1.3595   -2.0112 H       1  LIG1        0.0625
     33 H          -0.4170    2.5115    2.4503 H       1  LIG1        0.0275
     34 H           0.5445    3.6339    1.5490 H       1  LIG1        0.0275
     35 H           1.5089    1.7870    3.4081 H       1  LIG1        0.0266
     36 H           2.4268    2.8663    2.3875 H       1  LIG1        0.0266
     37 H           1.7035   -0.0331    1.8575 H       1  LIG1        0.0271
     38 H           3.2878    0.6314    2.1225 H       1  LIG1        0.0271
     39 H           3.6755    2.8719    0.3078 H       1  LIG1        0.0235
     40 H           3.9340    2.0043   -1.2124 H       1  LIG1        0.0235
     41 H           4.6561    1.4027    0.2865 H       1  LIG1        0.0235
     42 H           1.8971   -1.0239   -0.4033 H       1  LIG1        0.0235
     43 H           3.5743   -0.8824    0.1244 H       1  LIG1        0.0235
     44 H           3.1350   -0.3405   -1.4842 H       1  LIG1        0.0235
     45 H           1.5932    2.8031   -0.7002 H       1  LIG1        0.0316
     46 H           1.3068    0.3529   -2.2671 H       1  LIG1        0.0297
     47 H           1.0306    2.0367   -2.6709 H       1  LIG1        0.0297
     48 H          -1.9378    2.9136    0.2289 H       1  LIG1        0.0569
     49 H          -0.6027    3.8014   -0.5103 H       1  LIG1        0.0569
@<TRIPOS>BOND
     1     1     2    1
     2     2     3    1
     3     4     5    2
     4     5     6    1
     5     6     7    2
     6     7     8    1
     7     8    10    1
     8     4    10    1
     9     7    12    1
    10    12    13    1
    11    13    14    1
    12    14    15    1
    13    15    16    1
    14    16    19    1
    15    12    19    1
    16    19    20    1
    17    20    21    1
    18     6    21    1
    19    21    23    1
    20    23    24    1
    21    12    24    1
    22     2     4    1
    23     8     9    2
    24    10    11    2
    25    16    17    1
    26    16    18    1
    27    21    22    1
    28     1    25    1
    29     1    26    1
    30     1    27    1
    31     2    28    1
    32     3    29    1
    33     3    30    1
    34     3    31    1
    35     5    32    1
    36    13    33    1
    37    13    34    1
    38    14    35    1
    39    14    36    1
    40    15    37    1
    41    15    38    1
    42    17    39    1
    43    17    40    1
    44    17    41    1
    45    18    42    1
    46    18    43    1
    47    18    44    1
    48    19    45    1
    49    20    46    1
    50    20    47    1
    51    24    48    1
    52    24    49    1
