@<TRIPOS>MOLECULE
NuBBE_1315
 39 41 0 0 0
SMALL
GASTEIGER

@<TRIPOS>ATOM
      1 O          -2.7924   -1.0102   -0.2370 O.2     1  LIG1       -0.2870
      2 C          -1.5886   -0.7407   -0.3378 C.2     1  LIG1        0.1931
      3 C          -0.7292   -0.2789    0.8043 C.2     1  LIG1        0.0281
      4 C          -1.0010   -0.0601    2.1134 C.2     1  LIG1        0.1309
      5 C           0.0507    0.5646    2.9844 C.ar    1  LIG1        0.0168
      6 C           0.1206    0.2252    4.3478 C.ar    1  LIG1       -0.0511
      7 C           1.0606    0.8145    5.2017 C.ar    1  LIG1       -0.0611
      8 C           1.9535    1.7612    4.7101 C.ar    1  LIG1       -0.0617
      9 C           1.9024    2.1212    3.3666 C.ar    1  LIG1       -0.0611
     10 C           0.9562    1.5359    2.5152 C.ar    1  LIG1       -0.0511
     11 O          -2.1423   -0.3314    2.8198 O.2     1  LIG1       -0.4944
     12 C          -2.9781   -1.4176    2.4513 C.3     1  LIG1        0.0788
     13 C          -0.9307   -0.9505   -1.6633 C.ar    1  LIG1        0.0642
     14 C           0.0376   -0.0635   -2.2075 C.ar    1  LIG1        0.1416
     15 C           0.6635   -0.4201   -3.4298 C.ar    1  LIG1        0.0624
     16 C           0.2500   -1.5867   -4.0696 C.ar    1  LIG1        0.1383
     17 C          -0.7381   -2.4428   -3.5940 C.ar    1  LIG1       -0.0179
     18 C          -1.3302   -2.0946   -2.3795 C.ar    1  LIG1       -0.0439
     19 O           0.9455   -1.7783   -5.2234 O.2     1  LIG1       -0.4628
     20 C           1.8166   -0.7475   -5.3377 C.ar    1  LIG1        0.0932
     21 C           1.6999    0.0992   -4.2618 C.ar    1  LIG1       -0.0126
     22 O           0.3390    1.0632   -1.4664 O.3     1  LIG1       -0.4937
     23 C           0.7774    2.2089   -2.1801 C.3     1  LIG1        0.0788
     24 H           0.2898   -0.0682    0.4950 H       1  LIG1        0.0693
     25 H          -0.5710   -0.5041    4.7643 H       1  LIG1        0.0625
     26 H           1.0865    0.5362    6.2522 H       1  LIG1        0.0618
     27 H           2.6793    2.2235    5.3742 H       1  LIG1        0.0618
     28 H           2.5922    2.8682    2.9814 H       1  LIG1        0.0618
     29 H           0.9300    1.8702    1.4807 H       1  LIG1        0.0625
     30 H          -2.4904   -2.1524    1.8050 H       1  LIG1        0.0660
     31 H          -3.8967   -1.0250    2.0060 H       1  LIG1        0.0660
     32 H          -3.2543   -1.9537    3.3647 H       1  LIG1        0.0660
     33 H          -1.0112   -3.3426   -4.1338 H       1  LIG1        0.0655
     34 H          -2.1110   -2.7409   -1.9751 H       1  LIG1        0.0627
     35 H           2.4449   -0.7562   -6.2174 H       1  LIG1        0.1030
     36 H           2.2983    0.9840   -4.1095 H       1  LIG1        0.0656
     37 H           0.4927    3.0890   -1.5968 H       1  LIG1        0.0660
     38 H           0.3090    2.2991   -3.1647 H       1  LIG1        0.0660
     39 H           1.8689    2.2021   -2.2527 H       1  LIG1        0.0660
@<TRIPOS>BOND
     1     1     2    2
     2     2     3    1
     3     3     4    2
     4     4     5    1
     5     5     6   ar
     6     6     7   ar
     7     7     8   ar
     8     8     9   ar
     9     9    10   ar
    10     5    10   ar
    11     4    11    1
    12    11    12    1
    13     2    13    1
    14    13    14   ar
    15    14    15   ar
    16    15    16   ar
    17    16    17   ar
    18    17    18   ar
    19    13    18   ar
    20    16    19   ar
    21    19    20   ar
    22    20    21   ar
    23    15    21   ar
    24    14    22    1
    25    22    23    1
    26     3    24    1
    27     6    25    1
    28     7    26    1
    29     8    27    1
    30     9    28    1
    31    10    29    1
    32    12    30    1
    33    12    31    1
    34    12    32    1
    35    17    33    1
    36    18    34    1
    37    20    35    1
    38    21    36    1
    39    23    37    1
    40    23    38    1
    41    23    39    1
