@<TRIPOS>MOLECULE
NuBBE_1754
 39 40 0 0 0
SMALL
GASTEIGER

@<TRIPOS>ATOM
      1 C          -1.3547    2.4325   -0.8575 C.3     1  LIG1       -0.0587
      2 C           0.1595    2.2550   -0.8258 C.3     1  LIG1       -0.0219
      3 H           0.5809    2.6223   -1.7698 H       1  LIG1        0.0343
      4 C           0.6155    0.8418   -0.5947 C.2     1  LIG1       -0.0632
      5 C           1.4198    0.7356    0.4794 C.2     1  LIG1       -0.0669
      6 C           2.0367   -0.5539    0.9584 C.3     1  LIG1       -0.0222
      7 H           2.6331   -0.9657    0.1320 H       1  LIG1        0.0343
      8 C           0.9442   -1.5766    1.3332 C.3     1  LIG1       -0.0430
      9 C           0.2974   -2.2490    0.1123 C.3     1  LIG1       -0.0307
     10 C          -0.5823   -1.3544   -0.7574 C.2     1  LIG1       -0.0668
     11 C           0.2235   -0.2924   -1.4997 C.3     1  LIG1       -0.0098
     12 C          -1.9234   -1.5307   -0.8946 C.2     1  LIG1       -0.0762
     13 C          -2.7978   -0.7704   -1.8661 C.3     1  LIG1       -0.0438
     14 C          -2.7499   -2.5084   -0.0881 C.3     1  LIG1       -0.0438
     15 C           3.0193   -0.3716    2.1199 C.3     1  LIG1       -0.0587
     16 C           1.6067    2.0463    1.1680 C.3     1  LIG1       -0.0307
     17 C           0.7802    3.0334    0.3457 C.3     1  LIG1       -0.0430
     18 H          -1.7858    1.9627   -1.7450 H       1  LIG1        0.0235
     19 H          -1.6175    3.4954   -0.8961 H       1  LIG1        0.0235
     20 H          -1.8328    1.9966    0.0265 H       1  LIG1        0.0235
     21 H           0.1731   -1.1095    1.9601 H       1  LIG1        0.0274
     22 H           1.3934   -2.3735    1.9400 H       1  LIG1        0.0274
     23 H          -0.2461   -3.1280    0.4673 H       1  LIG1        0.0310
     24 H           1.0881   -2.6719   -0.5228 H       1  LIG1        0.0310
     25 H          -0.2919    0.1010   -2.3772 H       1  LIG1        0.0355
     26 H           1.1294   -0.7523   -1.9177 H       1  LIG1        0.0355
     27 H          -2.2544   -0.1444   -2.5723 H       1  LIG1        0.0274
     28 H          -3.5025   -0.1327   -1.3229 H       1  LIG1        0.0274
     29 H          -3.3739   -1.4777   -2.4740 H       1  LIG1        0.0274
     30 H          -2.2086   -3.0119    0.7131 H       1  LIG1        0.0274
     31 H          -3.1742   -3.2760   -0.7435 H       1  LIG1        0.0274
     32 H          -3.5773   -1.9761    0.3959 H       1  LIG1        0.0274
     33 H           2.5285    0.0291    3.0127 H       1  LIG1        0.0235
     34 H           3.8359    0.3032    1.8399 H       1  LIG1        0.0235
     35 H           3.4749   -1.3308    2.3901 H       1  LIG1        0.0235
     36 H           2.6584    2.3470    1.1847 H       1  LIG1        0.0310
     37 H           1.2356    2.0044    2.1977 H       1  LIG1        0.0310
     38 H           1.4183    3.8422   -0.0303 H       1  LIG1        0.0274
     39 H           0.0208    3.5093    0.9789 H       1  LIG1        0.0274
@<TRIPOS>BOND
     1     1     2    1
     2     2     3    1
     3     2     4    1
     4     4     5    2
     5     5     6    1
     6     6     8    1
     7     8     9    1
     8     9    10    1
     9    10    11    1
    10     4    11    1
    11    10    12    2
    12    12    13    1
    13    12    14    1
    14     5    16    1
    15    16    17    1
    16     2    17    1
    17     6    15    1
    18     6     7    1
    19     1    18    1
    20     1    19    1
    21     1    20    1
    22     8    21    1
    23     8    22    1
    24     9    23    1
    25     9    24    1
    26    11    25    1
    27    11    26    1
    28    13    27    1
    29    13    28    1
    30    13    29    1
    31    14    30    1
    32    14    31    1
    33    14    32    1
    34    15    33    1
    35    15    34    1
    36    15    35    1
    37    16    36    1
    38    16    37    1
    39    17    38    1
    40    17    39    1
