REMARK  Name = NuBBE_26
REMARK  10 active torsions:
REMARK  status: ('A' for Active; 'I' for Inactive)
REMARK    1  A    between atoms: C_1  and  O_2
REMARK    2  A    between atoms: O_2  and  C_3
REMARK    3  A    between atoms: C_4  and  O_5
REMARK    4  A    between atoms: O_5  and  C_6
REMARK    5  A    between atoms: C_7  and  O_8
REMARK    6  A    between atoms: O_8  and  C_9
REMARK    7  A    between atoms: C_11  and  C_12
REMARK    8  A    between atoms: C_13  and  C_14
REMARK    9  A    between atoms: C_14  and  O_15
REMARK   10  A    between atoms: O_15  and  C_16
REMARK                            x       y       z     vdW  Elec       q    Type
REMARK                         _______ _______ _______ _____ _____    ______ ____
ROOT
ATOM      1  C   LIG A   1      -1.689  -1.048  -0.771  0.00  0.00    +0.166 A 
ATOM      2  C   LIG A   1      -2.332   0.208  -0.705  0.00  0.00    +0.203 A 
ATOM      3  C   LIG A   1      -1.547   1.369  -0.483  0.00  0.00    +0.166 A 
ATOM      4  C   LIG A   1      -0.161   1.258  -0.319  0.00  0.00    +0.057 A 
ATOM      5  C   LIG A   1       0.465   0.019  -0.418  0.00  0.00    -0.018 A 
ATOM      6  C   LIG A   1      -0.295  -1.124  -0.642  0.00  0.00    +0.057 A 
ENDROOT
BRANCH   1   8
ATOM      7  C   LIG A   1      -1.928  -3.396  -0.484  0.00  0.00    +0.277 C 
ATOM      8  O   LIG A   1      -2.426  -2.176  -1.023  0.00  0.00    -0.491 OA
ENDBRANCH   1   8
BRANCH   2   9
ATOM      9  O   LIG A   1      -3.683   0.442  -0.834  0.00  0.00    -0.488 OA
ATOM     10  C   LIG A   1      -4.560  -0.648  -1.091  0.00  0.00    +0.277 C 
ENDBRANCH   2   9
BRANCH   3  11
ATOM     11  O   LIG A   1      -2.191   2.586  -0.396  0.00  0.00    -0.491 OA
ATOM     12  C   LIG A   1      -1.408   3.726  -0.751  0.00  0.00    +0.277 C 
ENDBRANCH   3  11
BRANCH   5  13
ATOM     13  C   LIG A   1       1.909  -0.077  -0.262  0.00  0.00    +0.015 C 
ATOM     14  C   LIG A   1       2.444  -0.289   0.948  0.00  0.00    +0.092 C 
BRANCH  14  15
ATOM     15  C   LIG A   1       3.912  -0.258   1.095  0.00  0.00    +0.332 C 
ATOM     16  O   LIG A   1       4.716  -0.422   0.205  0.00  0.00    -0.246 OA
BRANCH  15  17
ATOM     17  O   LIG A   1       4.164   0.081   2.384  0.00  0.00    -0.465 OA
ATOM     18  C   LIG A   1       5.533   0.391   2.626  0.00  0.00    +0.280 C 
ENDBRANCH  15  17
ENDBRANCH  14  15
ENDBRANCH   5  13
TORSDOF 6
