@<TRIPOS>MOLECULE
NuBBE_2289
 39 41 0 0 0
SMALL
GASTEIGER

@<TRIPOS>ATOM
      1 C          -1.6659   -1.7572   -0.0347 C.3     1  LIG1       -0.0593
      2 C          -0.1170   -1.6943   -0.0886 C.3     1  LIG1       -0.0282
      3 C           0.3877   -2.7976    0.8708 C.3     1  LIG1       -0.0593
      4 C           0.4280   -0.2694    0.2933 C.3     1  LIG1       -0.0114
      5 C           0.3713    0.8220   -0.8432 C.3     1  LIG1       -0.0219
      6 C          -1.0563    1.4680   -0.8211 C.3     1  LIG1       -0.0285
      7 C          -1.4887    1.8662    0.5814 C.2     1  LIG1       -0.0842
      8 C          -0.7463    1.5253    1.6256 C.2     1  LIG1       -0.0729
      9 C          -0.4759    2.4958    2.7484 C.3     1  LIG1       -0.0435
     10 C          -0.0481    0.2245    1.6702 C.3     1  LIG1       -0.0129
     11 H          -0.5483   -0.4684    2.3399 H       1  LIG1        0.0351
     12 C           1.3946   -0.0367    1.4641 C.3     1  LIG1       -0.0388
     13 C           1.4404    1.9500   -0.6494 C.3     1  LIG1       -0.0587
     14 C           0.7067    0.2472   -2.2375 C.3     1  LIG1       -0.0468
     15 C           0.0161   -1.0593   -2.5639 C.3     1  LIG1       -0.0520
     16 C           0.3588   -2.0921   -1.5031 C.3     1  LIG1       -0.0473
     17 H          -2.1508   -1.0650   -0.7215 H       1  LIG1        0.0235
     18 H          -2.0515   -1.5354    0.9656 H       1  LIG1        0.0235
     19 H          -2.0267   -2.7568   -0.3047 H       1  LIG1        0.0235
     20 H           1.4806   -2.8559    0.8760 H       1  LIG1        0.0235
     21 H           0.0094   -3.7819    0.5687 H       1  LIG1        0.0235
     22 H           0.0518   -2.6305    1.8997 H       1  LIG1        0.0235
     23 H          -1.8126    0.8377   -1.2844 H       1  LIG1        0.0313
     24 H          -1.0263    2.3845   -1.4277 H       1  LIG1        0.0313
     25 H          -2.2883    2.6066    0.6570 H       1  LIG1        0.0572
     26 H          -0.8723    3.4919    2.5114 H       1  LIG1        0.0274
     27 H           0.6103    2.6265    2.8455 H       1  LIG1        0.0274
     28 H          -0.8722    2.1652    3.7055 H       1  LIG1        0.0274
     29 H           1.8210   -0.8870    1.9862 H       1  LIG1        0.0277
     30 H           2.0647    0.8109    1.5126 H       1  LIG1        0.0277
     31 H           1.3016    2.5359    0.2633 H       1  LIG1        0.0235
     32 H           1.4183    2.6633   -1.4819 H       1  LIG1        0.0235
     33 H           2.4539    1.5301   -0.6134 H       1  LIG1        0.0235
     34 H           1.7901    0.0719   -2.3080 H       1  LIG1        0.0271
     35 H           0.4704    0.9855   -3.0146 H       1  LIG1        0.0271
     36 H           0.3676   -1.4138   -3.5398 H       1  LIG1        0.0266
     37 H          -1.0642   -0.9174   -2.6588 H       1  LIG1        0.0266
     38 H           1.4477   -2.2362   -1.4941 H       1  LIG1        0.0271
     39 H          -0.0795   -3.0545   -1.7949 H       1  LIG1        0.0271
@<TRIPOS>BOND
     1     2     4    1
     2     4     5    1
     3     5     6    1
     4     6     7    1
     5     7     8    2
     6     8    10    1
     7     4    10    1
     8    10    12    1
     9     4    12    1
    10     5    14    1
    11    14    15    1
    12    15    16    1
    13     2    16    1
    14     1     2    1
    15     2     3    1
    16     5    13    1
    17     8     9    1
    18    10    11    1
    19     1    17    1
    20     1    18    1
    21     1    19    1
    22     3    20    1
    23     3    21    1
    24     3    22    1
    25     6    23    1
    26     6    24    1
    27     7    25    1
    28     9    26    1
    29     9    27    1
    30     9    28    1
    31    12    29    1
    32    12    30    1
    33    13    31    1
    34    13    32    1
    35    13    33    1
    36    14    34    1
    37    14    35    1
    38    15    36    1
    39    15    37    1
    40    16    38    1
    41    16    39    1
