@<TRIPOS>MOLECULE
NuBBE_544
 106 111 0 0 0
SMALL
GASTEIGER

@<TRIPOS>ATOM
      1 C          -3.8004   -3.1215    4.2471 C.3     1  LIG1       -0.0574
      2 C          -3.0118   -1.7970    4.0563 C.3     1  LIG1       -0.0083
      3 C          -3.9717   -0.7913    3.3822 C.3     1  LIG1       -0.0445
      4 C          -3.2829    0.4764    2.8856 C.3     1  LIG1       -0.0360
      5 C          -2.1476    0.2075    1.8708 C.3     1  LIG1        0.0767
      6 C          -1.4820    1.5552    1.5576 C.3     1  LIG1       -0.0358
      7 C          -0.3809    1.3779    0.5289 C.3     1  LIG1       -0.0424
      8 C           0.7657    0.4036    0.9353 C.3     1  LIG1       -0.0050
      9 C           1.4566   -0.2405   -0.3774 C.3     1  LIG1       -0.0194
     10 C           1.6917    0.8620   -1.4639 C.3     1  LIG1       -0.0463
     11 C           3.1139    1.1849   -1.8255 C.3     1  LIG1       -0.0484
     12 C           3.8885   -0.1142   -2.0275 C.3     1  LIG1       -0.0230
     13 H           3.2137   -0.8270   -2.5304 H       1  LIG1        0.0314
     14 C           5.0760    0.0207   -3.0577 C.3     1  LIG1        0.0485
     15 C           4.5095    0.1099   -4.5273 C.3     1  LIG1        0.0546
     16 O           3.6775    1.2421   -4.7448 O.3     1  LIG1       -0.3943
     17 C           5.9250   -1.2824   -3.0345 C.3     1  LIG1        0.0911
     18 H           5.3571   -2.0871   -3.5213 H       1  LIG1        0.0626
     19 C           6.2781   -1.7711   -1.6240 C.3     1  LIG1        0.0823
     20 H           6.9561   -1.0706   -1.1285 H       1  LIG1        0.0619
     21 C           5.0170   -2.0277   -0.7957 C.3     1  LIG1       -0.0184
     22 C           4.1401   -0.7567   -0.6015 C.3     1  LIG1       -0.0225
     23 C           2.7074   -1.1699   -0.0130 C.3     1  LIG1       -0.0257
     24 H           2.5389   -2.0838   -0.6015 H       1  LIG1        0.0315
     25 C           2.6275   -1.7543    1.4445 C.3     1  LIG1       -0.0306
     26 C           1.2682   -1.6736    2.1360 C.2     1  LIG1       -0.0836
     27 C           0.3219   -0.7418    1.8751 C.2     1  LIG1       -0.0604
     28 C          -1.0684   -0.6813    2.5948 C.3     1  LIG1        0.0229
     29 H          -0.8078   -0.1066    3.5007 H       1  LIG1        0.0382
     30 C          -1.7048   -2.0080    3.1954 C.3     1  LIG1        0.0678
     31 H          -0.9651   -2.4843    3.8497 H       1  LIG1        0.0605
     32 O          -1.9608   -2.9662    2.1732 O.3     1  LIG1       -0.3906
     33 C           4.8807    0.1605    0.3959 C.3     1  LIG1       -0.0589
     34 O           7.0014   -3.0027   -1.7426 O.3     1  LIG1       -0.3892
     35 O           7.1416   -1.2028   -3.7944 O.3     1  LIG1       -0.3885
     36 C           5.9081    1.2982   -2.7996 C.3     1  LIG1        0.0546
     37 O           7.0025    1.3936   -3.7130 O.3     1  LIG1       -0.3943
     38 C           0.4493   -1.2470   -1.0679 C.3     1  LIG1       -0.0585
     39 C           1.7659    1.3134    1.7194 C.3     1  LIG1       -0.0553
     40 C          -2.7815   -0.3653    0.5550 C.2     1  LIG1        0.3162
     41 O          -3.1978    0.6509   -0.2771 O.3     1  LIG1       -0.4318
     42 C          -3.9552    0.3260   -1.4713 C.3     1  LIG1        0.2337
     43 H          -3.3374   -0.2969   -2.1305 H       1  LIG1        0.1085
     44 O          -4.1812    1.5465   -2.2258 O.3     1  LIG1       -0.3312
     45 C          -5.2685    2.3841   -1.7867 C.3     1  LIG1        0.1140
     46 H          -6.1019    2.2785   -2.4959 H       1  LIG1        0.0647
     47 C          -5.7477    2.0322   -0.3778 C.3     1  LIG1        0.1120
     48 H          -4.9270    2.2023    0.3263 H       1  LIG1        0.0647
     49 C          -6.1857    0.5674   -0.3144 C.3     1  LIG1        0.1152
     50 H          -7.2249    0.4651   -0.6497 H       1  LIG1        0.0648
     51 O          -6.1810    0.2002    1.0745 O.3     1  LIG1       -0.3864
     52 O          -6.8287    2.8196    0.1314 O.3     1  LIG1       -0.3865
     53 C          -4.7816    3.8427   -1.8420 C.3     1  LIG1        0.0731
     54 O          -5.7842    4.7577   -1.4032 O.3     1  LIG1       -0.3924
     55 C          -5.2811   -0.3770   -1.1141 C.3     1  LIG1        0.1455
     56 H          -5.0777   -1.2763   -0.5307 H       1  LIG1        0.0683
     57 O          -5.9762   -0.8316   -2.2847 O.3     1  LIG1       -0.3829
     58 O          -2.9657   -1.5325    0.3277 O.2     1  LIG1       -0.2501
     59 C          -2.6397   -1.3017    5.4747 C.3     1  LIG1       -0.0574
     60 H          -4.2158   -3.4875    3.3013 H       1  LIG1        0.0236
     61 H          -4.6503   -2.9864    4.9300 H       1  LIG1        0.0236
     62 H          -3.1662   -3.9106    4.6645 H       1  LIG1        0.0236
     63 H          -4.7677   -0.5036    4.0834 H       1  LIG1        0.0272
     64 H          -4.4832   -1.2754    2.5425 H       1  LIG1        0.0272
     65 H          -2.8756    1.0122    3.7532 H       1  LIG1        0.0276
     66 H          -4.0302    1.1471    2.4480 H       1  LIG1        0.0276
     67 H          -1.0818    2.0117    2.4699 H       1  LIG1        0.0276
     68 H          -2.2152    2.2728    1.1681 H       1  LIG1        0.0276
     69 H           0.0182    2.3830    0.3397 H       1  LIG1        0.0274
     70 H          -0.8171    1.0766   -0.4266 H       1  LIG1        0.0274
     71 H           1.2046    1.8098   -1.2343 H       1  LIG1        0.0271
     72 H           1.2117    0.5703   -2.4083 H       1  LIG1        0.0271
     73 H           3.5693    1.8450   -1.0849 H       1  LIG1        0.0268
     74 H           3.0629    1.7989   -2.7236 H       1  LIG1        0.0268
     75 H           5.3188    0.1653   -5.2627 H       1  LIG1        0.0564
     76 H           3.9138   -0.7807   -4.7609 H       1  LIG1        0.0564
     77 H           3.2848    1.1527   -5.6307 H       1  LIG1        0.2094
     78 H           5.2942   -2.4664    0.1717 H       1  LIG1        0.0296
     79 H           4.4383   -2.8137   -1.3019 H       1  LIG1        0.0296
     80 H           3.3825   -1.3312    2.1146 H       1  LIG1        0.0310
     81 H           2.8755   -2.8232    1.3827 H       1  LIG1        0.0310
     82 H           1.1022   -2.4182    2.9120 H       1  LIG1        0.0572
     83 H          -2.6195   -2.5977    1.5489 H       1  LIG1        0.2098
     84 H           5.8650    0.4658    0.0392 H       1  LIG1        0.0235
     85 H           5.0629   -0.3500    1.3470 H       1  LIG1        0.0235
     86 H           4.3253    1.0677    0.6313 H       1  LIG1        0.0235
     87 H           7.6050   -2.8644   -2.5023 H       1  LIG1        0.2099
     88 H           7.2866   -0.2593   -4.0309 H       1  LIG1        0.2099
     89 H           5.3049    2.2037   -2.9220 H       1  LIG1        0.0564
     90 H           6.3314    1.3109   -1.7963 H       1  LIG1        0.0564
     91 H           7.3886    2.2805   -3.5828 H       1  LIG1        0.2094
     92 H          -0.5902   -0.9631   -0.9316 H       1  LIG1        0.0235
     93 H           0.5501   -2.2740   -0.6985 H       1  LIG1        0.0235
     94 H           0.6325   -1.3168   -2.1480 H       1  LIG1        0.0235
     95 H           2.1725    2.1046    1.0793 H       1  LIG1        0.0238
     96 H           2.6159    0.7779    2.1459 H       1  LIG1        0.0238
     97 H           1.2708    1.8090    2.5641 H       1  LIG1        0.0238
     98 H          -6.5352    0.9866    1.5387 H       1  LIG1        0.2100
     99 H          -6.5835    3.7587   -0.0129 H       1  LIG1        0.2100
    100 H          -3.9097    3.9654   -1.1908 H       1  LIG1        0.0584
    101 H          -4.4726    4.1071   -2.8590 H       1  LIG1        0.0584
    102 H          -5.4475    5.6533   -1.5938 H       1  LIG1        0.2095
    103 H          -6.6561   -1.4537   -1.9609 H       1  LIG1        0.2102
    104 H          -2.0844   -0.3609    5.4584 H       1  LIG1        0.0236
    105 H          -2.0226   -2.0435    5.9961 H       1  LIG1        0.0236
    106 H          -3.5348   -1.1450    6.0913 H       1  LIG1        0.0236
@<TRIPOS>BOND
     1     2     3    1
     2     3     4    1
     3     4     5    1
     4     5     6    1
     5     6     7    1
     6     7     8    1
     7     8     9    1
     8     9    10    1
     9    10    11    1
    10    11    12    1
    11    12    14    1
    12    15    16    1
    13    14    17    1
    14    17    19    1
    15    19    21    1
    16    21    22    1
    17    22    23    1
    18    23    25    1
    19    25    26    1
    20    26    27    2
    21    27    28    1
    22    28    30    1
    23    12    22    1
    24    36    37    1
    25    23     9    1
    26    27     8    1
    27    28     5    1
    28    40    41    1
    29    41    42    1
    30    42    43    1
    31    42    44    1
    32    44    45    1
    33    45    47    1
    34    47    48    1
    35    47    49    1
    36    47    52    1
    37    53    54    1
    38    42    55    1
    39    49    55    1
    40    40    58    2
    41    30     2    1
    42     1     2    1
    43     2    59    1
    44     5    40    1
    45     8    39    1
    46     9    38    1
    47    12    13    1
    48    14    15    1
    49    14    36    1
    50    17    18    1
    51    17    35    1
    52    22    33    1
    53    23    24    1
    54    28    29    1
    55    19    34    1
    56    19    20    1
    57    30    32    1
    58    30    31    1
    59    45    53    1
    60    45    46    1
    61    49    51    1
    62    49    50    1
    63    55    57    1
    64    55    56    1
    65     1    60    1
    66     1    61    1
    67     1    62    1
    68     3    63    1
    69     3    64    1
    70     4    65    1
    71     4    66    1
    72     6    67    1
    73     6    68    1
    74     7    69    1
    75     7    70    1
    76    10    71    1
    77    10    72    1
    78    11    73    1
    79    11    74    1
    80    15    75    1
    81    15    76    1
    82    16    77    1
    83    21    78    1
    84    21    79    1
    85    25    80    1
    86    25    81    1
    87    26    82    1
    88    32    83    1
    89    33    84    1
    90    33    85    1
    91    33    86    1
    92    34    87    1
    93    35    88    1
    94    36    89    1
    95    36    90    1
    96    37    91    1
    97    38    92    1
    98    38    93    1
    99    38    94    1
   100    39    95    1
   101    39    96    1
   102    39    97    1
   103    51    98    1
   104    52    99    1
   105    53   100    1
   106    53   101    1
   107    54   102    1
   108    57   103    1
   109    59   104    1
   110    59   105    1
   111    59   106    1
