@<TRIPOS>MOLECULE
NuBBE_552
 35 37 0 0 0
SMALL
GASTEIGER

@<TRIPOS>ATOM
      1 C          -2.4478   -1.4082    0.2512 C.3     1  LIG1       -0.0550
      2 C          -1.1070   -0.6509    0.5568 C.3     1  LIG1        0.0034
      3 C          -0.3800    0.2341   -0.5056 C.2     1  LIG1        0.0053
      4 C           1.0937    0.5286   -0.2704 C.2     1  LIG1        0.1932
      5 C           1.8419   -0.6315    0.0835 C.ar    1  LIG1        0.0657
      6 C           3.2266   -0.9539    0.0603 C.ar    1  LIG1       -0.0016
      7 C           4.3679   -0.0590   -0.2487 C.3     1  LIG1       -0.0360
      8 C           3.2805   -2.3009    0.3693 C.ar    1  LIG1        0.0957
      9 O           2.0581   -2.7601    0.7601 O.2     1  LIG1       -0.4668
     10 C           1.2118   -1.7082    0.6454 C.ar    1  LIG1        0.1167
     11 C          -0.1979   -1.8357    1.0557 C.3     1  LIG1        0.0157
     12 O           1.5817    1.6662   -0.2738 O.2     1  LIG1       -0.2868
     13 C          -1.0555    1.1506   -1.2360 C.2     1  LIG1       -0.0653
     14 C          -0.4798    2.1498   -2.2035 C.3     1  LIG1       -0.0431
     15 C          -2.4666    1.4061   -0.7952 C.3     1  LIG1       -0.0313
     16 C          -2.4679    1.5254    0.7604 C.3     1  LIG1       -0.0485
     17 C          -1.5459    0.4840    1.5252 C.3     1  LIG1       -0.0428
     18 H          -2.4243   -1.9291   -0.7072 H       1  LIG1        0.0238
     19 H          -3.3511   -0.7935    0.2968 H       1  LIG1        0.0238
     20 H          -2.6350   -2.1519    1.0429 H       1  LIG1        0.0238
     21 H           4.0842    0.9955   -0.1780 H       1  LIG1        0.0279
     22 H           4.7581   -0.2463   -1.2522 H       1  LIG1        0.0279
     23 H           5.1755   -0.2200    0.4746 H       1  LIG1        0.0279
     24 H           4.0814   -3.0272    0.3994 H       1  LIG1        0.1032
     25 H          -0.2856   -1.9719    2.1377 H       1  LIG1        0.0352
     26 H          -0.5345   -2.7746    0.5881 H       1  LIG1        0.0352
     27 H           0.5983    2.0530   -2.3526 H       1  LIG1        0.0275
     28 H          -0.6752    3.1684   -1.8510 H       1  LIG1        0.0275
     29 H          -0.9390    2.0269   -3.1885 H       1  LIG1        0.0275
     30 H          -3.1162    0.6075   -1.1700 H       1  LIG1        0.0310
     31 H          -2.8694    2.3238   -1.2372 H       1  LIG1        0.0310
     32 H          -3.4999    1.4422    1.1183 H       1  LIG1        0.0269
     33 H          -2.1313    2.5373    1.0229 H       1  LIG1        0.0269
     34 H          -2.0790    0.1013    2.4024 H       1  LIG1        0.0274
     35 H          -0.6708    1.0220    1.9189 H       1  LIG1        0.0274
@<TRIPOS>BOND
     1     1     2    1
     2     2     3    1
     3     3     4    1
     4     4     5    1
     5     5     6   ar
     6     6     7    1
     7     6     8   ar
     8     8     9   ar
     9     5    10   ar
    10     9    10   ar
    11    10    11    1
    12     2    11    1
    13     4    12    2
    14     3    13    2
    15    13    14    1
    16    13    15    1
    17    15    16    1
    18    16    17    1
    19     2    17    1
    20     1    18    1
    21     1    19    1
    22     1    20    1
    23     7    21    1
    24     7    22    1
    25     7    23    1
    26     8    24    1
    27    11    25    1
    28    11    26    1
    29    14    27    1
    30    14    28    1
    31    14    29    1
    32    15    30    1
    33    15    31    1
    34    16    32    1
    35    16    33    1
    36    17    34    1
    37    17    35    1
