@<TRIPOS>MOLECULE
NuBBE_423
 61 60 0 0 0
SMALL
GASTEIGER

@<TRIPOS>ATOM
      1 N          -2.1244   -2.6765    1.5138 N.pl3   1  LIG1       -0.1296
      2 C          -2.4974   -1.5793    0.9371 C.cat   1  LIG1        0.3790
      3 N          -1.8374   -0.4104    1.1312 N.pl3   1  LIG1       -0.2725
      4 C          -1.9818    0.8849    0.5180 C.3     1  LIG1        0.0834
      5 C          -1.5695    1.6819    1.5861 C.2     1  LIG1       -0.0518
      6 C          -1.1748    3.0259    1.7017 C.2     1  LIG1       -0.0733
      7 C          -1.1916    3.3009    3.1421 C.3     1  LIG1       -0.0437
      8 C          -1.0145    4.1014    0.6669 C.3     1  LIG1       -0.0285
      9 C           0.3464    4.8782    0.6087 C.3     1  LIG1       -0.0308
     10 C           1.6939    4.2826    0.2215 C.2     1  LIG1       -0.0850
     11 C           1.9562    3.2746   -0.6206 C.2     1  LIG1       -0.0796
     12 C           0.8658    2.6249   -1.3483 C.3     1  LIG1       -0.0440
     13 C           3.2984    2.6284   -0.8671 C.3     1  LIG1       -0.0440
     14 N          -3.3953   -1.6941   -0.0700 N.pl3   1  LIG1       -0.2725
     15 C          -3.5253   -0.7712   -1.1546 C.3     1  LIG1        0.0834
     16 C          -2.1639   -0.4415   -1.7931 C.2     1  LIG1       -0.0518
     17 C          -0.8670   -0.8618   -1.5896 C.2     1  LIG1       -0.0733
     18 C          -0.2963   -1.9153   -0.6277 C.3     1  LIG1       -0.0285
     19 C           1.0802   -2.5158   -0.8188 C.3     1  LIG1       -0.0308
     20 C           1.3204   -3.5421    0.2718 C.2     1  LIG1       -0.0850
     21 C           1.9761   -4.7029    0.1224 C.2     1  LIG1       -0.0796
     22 C           2.6434   -5.1084   -1.1518 C.3     1  LIG1       -0.0440
     23 C           2.0702   -5.6848    1.2568 C.3     1  LIG1       -0.0440
     24 C           0.2373   -0.0418   -2.1602 C.3     1  LIG1       -0.0437
     25 H          -1.2870   -2.5110    2.0782 H       1  LIG1        0.3062
     26 H          -0.9101   -0.5096    1.5308 H       1  LIG1        0.2582
     27 H          -2.9824    1.1666    0.2759 H       1  LIG1        0.0700
     28 H          -1.3049    1.1396   -0.3225 H       1  LIG1        0.0700
     29 H          -1.6376    1.1735    2.5231 H       1  LIG1        0.0603
     30 H          -2.0154    2.7572    3.6314 H       1  LIG1        0.0274
     31 H          -1.3919    4.3592    3.3390 H       1  LIG1        0.0274
     32 H          -0.2533    2.9480    3.5798 H       1  LIG1        0.0274
     33 H          -1.7640    4.8604    0.9437 H       1  LIG1        0.0313
     34 H          -1.3465    3.8008   -0.3353 H       1  LIG1        0.0313
     35 H           0.4926    5.3065    1.6047 H       1  LIG1        0.0310
     36 H           0.1969    5.7333   -0.0652 H       1  LIG1        0.0310
     37 H           2.5523    4.7501    0.6995 H       1  LIG1        0.0572
     38 H           1.2691    2.1915   -2.2656 H       1  LIG1        0.0274
     39 H           0.0279    3.2409   -1.6646 H       1  LIG1        0.0274
     40 H           0.5062    1.8873   -0.6360 H       1  LIG1        0.0274
     41 H           4.1332    3.2598   -0.5631 H       1  LIG1        0.0274
     42 H           3.4332    2.3930   -1.9321 H       1  LIG1        0.0274
     43 H           3.3576    1.6727   -0.3290 H       1  LIG1        0.0274
     44 H          -3.4231   -2.6551   -0.3918 H       1  LIG1        0.2582
     45 H          -4.0683    0.0992   -0.7474 H       1  LIG1        0.0700
     46 H          -4.2230   -1.1067   -1.9228 H       1  LIG1        0.0700
     47 H          -2.2829    0.4995   -2.3489 H       1  LIG1        0.0603
     48 H          -1.0046   -2.7350   -0.5602 H       1  LIG1        0.0313
     49 H          -0.0880   -1.4747    0.3502 H       1  LIG1        0.0313
     50 H           1.8463   -1.7365   -0.7129 H       1  LIG1        0.0310
     51 H           1.0774   -2.9231   -1.8242 H       1  LIG1        0.0310
     52 H           0.9110   -3.3291    1.2635 H       1  LIG1        0.0572
     53 H           2.4977   -4.3911   -1.9623 H       1  LIG1        0.0274
     54 H           2.2465   -6.0687   -1.4891 H       1  LIG1        0.0274
     55 H           3.7198   -5.1965   -0.9852 H       1  LIG1        0.0274
     56 H           1.1307   -5.7394    1.8189 H       1  LIG1        0.0274
     57 H           2.8774   -5.4068    1.9407 H       1  LIG1        0.0274
     58 H           2.2728   -6.6914    0.8772 H       1  LIG1        0.0274
     59 H          -0.1696    0.8679   -2.6076 H       1  LIG1        0.0274
     60 H           0.8074   -0.5736   -2.9102 H       1  LIG1        0.0274
     61 H           0.9474    0.2036   -1.3571 H       1  LIG1        0.0274
@<TRIPOS>BOND
     1     1     2    2
     2     2     3    1
     3     3     4    1
     4     4     5    1
     5     5     6    2
     6     6     7    1
     7     6     8    1
     8     8     9    1
     9     9    10    1
    10    10    11    2
    11    11    12    1
    12    11    13    1
    13     2    14    1
    14    14    15    1
    15    15    16    1
    16    16    17    2
    17    17    18    1
    18    18    19    1
    19    19    20    1
    20    20    21    2
    21    21    22    1
    22    21    23    1
    23    17    24    1
    24     1    25    1
    25     3    26    1
    26     4    27    1
    27     4    28    1
    28     5    29    1
    29     7    30    1
    30     7    31    1
    31     7    32    1
    32     8    33    1
    33     8    34    1
    34     9    35    1
    35     9    36    1
    36    10    37    1
    37    12    38    1
    38    12    39    1
    39    12    40    1
    40    13    41    1
    41    13    42    1
    42    13    43    1
    43    14    44    1
    44    15    45    1
    45    15    46    1
    46    16    47    1
    47    18    48    1
    48    18    49    1
    49    19    50    1
    50    19    51    1
    51    20    52    1
    52    22    53    1
    53    22    54    1
    54    22    55    1
    55    23    56    1
    56    23    57    1
    57    23    58    1
    58    24    59    1
    59    24    60    1
    60    24    61    1
