@<TRIPOS>MOLECULE
NuBBE_2107
 56 55 0 0 0
SMALL
GASTEIGER

@<TRIPOS>ATOM
      1 C           1.0623    9.3399   -1.2015 C.3     1  LIG1       -0.0653
      2 C           0.7617    7.9395   -1.7076 C.3     1  LIG1       -0.0559
      3 C           0.2684    7.0292   -0.5829 C.3     1  LIG1       -0.0533
      4 C          -0.1192    5.6249   -1.0576 C.3     1  LIG1       -0.0531
      5 C           1.0495    4.8443   -1.6682 C.3     1  LIG1       -0.0531
      6 C           0.6641    3.4410   -2.1436 C.3     1  LIG1       -0.0531
      7 C           0.2732    2.5082   -1.0009 C.3     1  LIG1       -0.0531
      8 C          -0.0480    1.1006   -1.5129 C.3     1  LIG1       -0.0531
      9 C          -0.4297    0.1887   -0.3516 C.3     1  LIG1       -0.0531
     10 C          -0.7311   -1.2294   -0.8312 C.3     1  LIG1       -0.0531
     11 C          -1.1345   -2.1733    0.3038 C.3     1  LIG1       -0.0531
     12 C          -0.0162   -2.3837    1.3276 C.3     1  LIG1       -0.0531
     13 C          -0.3566   -3.4220    2.3957 C.3     1  LIG1       -0.0531
     14 C          -0.6790   -4.8269    1.8828 C.3     1  LIG1       -0.0531
     15 C           0.4845   -5.5035    1.1542 C.3     1  LIG1       -0.0531
     16 C           0.1440   -6.8762    0.5622 C.3     1  LIG1       -0.0533
     17 C           0.0137   -8.0391    1.5515 C.3     1  LIG1       -0.0559
     18 C          -1.1977   -7.9850    2.4684 C.3     1  LIG1       -0.0653
     19 H           1.4861    9.9492   -2.0056 H       1  LIG1        0.0230
     20 H           1.7881    9.3131   -0.3800 H       1  LIG1        0.0230
     21 H           0.1544    9.8327   -0.8419 H       1  LIG1        0.0230
     22 H           1.6765    7.5335   -2.1514 H       1  LIG1        0.0263
     23 H           0.0083    7.9954   -2.5021 H       1  LIG1        0.0263
     24 H          -0.6111    7.4857   -0.1106 H       1  LIG1        0.0265
     25 H           1.0375    6.9507    0.1943 H       1  LIG1        0.0265
     26 H          -0.9376    5.6946   -1.7846 H       1  LIG1        0.0265
     27 H          -0.5138    5.0833   -0.1904 H       1  LIG1        0.0265
     28 H           1.8706    4.7778   -0.9449 H       1  LIG1        0.0265
     29 H           1.4363    5.3848   -2.5397 H       1  LIG1        0.0265
     30 H           1.5222    3.0126   -2.6768 H       1  LIG1        0.0265
     31 H          -0.1559    3.5093   -2.8683 H       1  LIG1        0.0265
     32 H          -0.6046    2.8980   -0.4747 H       1  LIG1        0.0265
     33 H           1.0926    2.4552   -0.2739 H       1  LIG1        0.0265
     34 H           0.8242    0.6910   -2.0370 H       1  LIG1        0.0265
     35 H          -0.8697    1.1497   -2.2366 H       1  LIG1        0.0265
     36 H          -1.3072    0.5937    0.1655 H       1  LIG1        0.0265
     37 H           0.3954    0.1767    0.3689 H       1  LIG1        0.0265
     38 H           0.1432   -1.6401   -1.3523 H       1  LIG1        0.0265
     39 H          -1.5482   -1.1978   -1.5626 H       1  LIG1        0.0265
     40 H          -1.4102   -3.1288   -0.1545 H       1  LIG1        0.0265
     41 H          -2.0301   -1.7897    0.8080 H       1  LIG1        0.0265
     42 H           0.1851   -1.4404    1.8489 H       1  LIG1        0.0265
     43 H           0.9138   -2.6593    0.8188 H       1  LIG1        0.0265
     44 H          -1.2157   -3.0629    2.9757 H       1  LIG1        0.0265
     45 H           0.4839   -3.4852    3.1003 H       1  LIG1        0.0265
     46 H          -1.5659   -4.8093    1.2402 H       1  LIG1        0.0265
     47 H          -0.9506   -5.4067    2.7637 H       1  LIG1        0.0265
     48 H           1.3499   -5.5893    1.8216 H       1  LIG1        0.0265
     49 H           0.7968   -4.8670    0.3176 H       1  LIG1        0.0265
     50 H           0.9578   -7.1390   -0.1274 H       1  LIG1        0.0265
     51 H          -0.7605   -6.8040   -0.0538 H       1  LIG1        0.0265
     52 H           0.9247   -8.1271    2.1520 H       1  LIG1        0.0263
     53 H          -0.0620   -8.9614    0.9617 H       1  LIG1        0.0263
     54 H          -1.0072   -7.3523    3.3383 H       1  LIG1        0.0230
     55 H          -1.4187   -8.9831    2.8603 H       1  LIG1        0.0230
     56 H          -2.0873   -7.6208    1.9452 H       1  LIG1        0.0230
@<TRIPOS>BOND
     1     1     2    1
     2     2     3    1
     3     3     4    1
     4     4     5    1
     5     5     6    1
     6     6     7    1
     7     7     8    1
     8     8     9    1
     9     9    10    1
    10    10    11    1
    11    11    12    1
    12    12    13    1
    13    13    14    1
    14    14    15    1
    15    15    16    1
    16    16    17    1
    17    17    18    1
    18     1    19    1
    19     1    20    1
    20     1    21    1
    21     2    22    1
    22     2    23    1
    23     3    24    1
    24     3    25    1
    25     4    26    1
    26     4    27    1
    27     5    28    1
    28     5    29    1
    29     6    30    1
    30     6    31    1
    31     7    32    1
    32     7    33    1
    33     8    34    1
    34     8    35    1
    35     9    36    1
    36     9    37    1
    37    10    38    1
    38    10    39    1
    39    11    40    1
    40    11    41    1
    41    12    42    1
    42    12    43    1
    43    13    44    1
    44    13    45    1
    45    14    46    1
    46    14    47    1
    47    15    48    1
    48    15    49    1
    49    16    50    1
    50    16    51    1
    51    17    52    1
    52    17    53    1
    53    18    54    1
    54    18    55    1
    55    18    56    1
