REMARK  Name = NuBBE_2125
REMARK  5 active torsions:
REMARK  status: ('A' for Active; 'I' for Inactive)
REMARK    1  A    between atoms: C_2  and  C_3
REMARK    2  A    between atoms: C_3  and  C_4
REMARK    3  A    between atoms: C_4  and  C_5
REMARK    4  A    between atoms: C_5  and  C_6
REMARK    5  A    between atoms: C_6  and  C_7
REMARK                            x       y       z     vdW  Elec       q    Type
REMARK                         _______ _______ _______ _____ _____    ______ ____
ROOT
ATOM      1  C   LIG A   1      -0.118   0.523   0.183  0.00  0.00    +0.004 C 
ENDROOT
BRANCH   1   2
ATOM      2  C   LIG A   1      -1.635   0.408   0.000  0.00  0.00    +0.026 C 
BRANCH   2   4
ATOM      3  C   LIG A   1      -3.272   1.370   1.646  0.00  0.00    +0.004 C 
ATOM      4  C   LIG A   1      -2.361   1.536   0.676  0.00  0.00    -0.035 C 
ENDBRANCH   2   4
ENDBRANCH   1   2
BRANCH   1   5
ATOM      5  C   LIG A   1       0.620  -0.619  -0.524  0.00  0.00    +0.000 C 
BRANCH   5   6
ATOM      6  C   LIG A   1       2.136  -0.513  -0.341  0.00  0.00    -0.003 C 
ATOM      7  C   LIG A   1       2.869  -1.646  -1.044  0.00  0.00    +0.004 C 
ENDBRANCH   5   6
ENDBRANCH   1   5
TORSDOF 4
