REMARK  Name = NuBBE_914
REMARK  12 active torsions:
REMARK  status: ('A' for Active; 'I' for Inactive)
REMARK    1  A    between atoms: C_2  and  C_3
REMARK    2  A    between atoms: C_7  and  N_8
REMARK    3  A    between atoms: C_11  and  O_12
REMARK    4  A    between atoms: N_13  and  C_14
REMARK    5  A    between atoms: C_15  and  C_32
REMARK    6  A    between atoms: C_18  and  C_19
REMARK    7  A    between atoms: C_19  and  C_20
REMARK    8  A    between atoms: C_20  and  C_21
REMARK    9  A    between atoms: C_21  and  C_22
REMARK   10  A    between atoms: C_21  and  C_23
REMARK   11  A    between atoms: C_24  and  O_25
REMARK   12  A    between atoms: C_26  and  C_27
REMARK                            x       y       z     vdW  Elec       q    Type
REMARK                         _______ _______ _______ _____ _____    ______ ____
ROOT
ATOM      1  C   LIG A   1       1.412   1.725  -2.278  0.00  0.00    +0.223 C 
ATOM      2  C   LIG A   1       2.330   2.184  -1.083  0.00  0.00    +0.204 C 
ATOM      3  O   LIG A   1       2.292   1.220   0.014  0.00  0.00    -0.459 OA
ATOM      4  C   LIG A   1       1.141   1.069   0.713  0.00  0.00    +0.313 C 
ATOM      5  C   LIG A   1       0.971  -0.308   1.311  0.00  0.00    +0.130 C 
ATOM      6  C   LIG A   1       1.123  -1.451   0.274  0.00  0.00    +0.168 C 
ATOM      7  C   LIG A   1       0.684  -1.156  -1.191  0.00  0.00    +0.203 C 
ATOM      8  C   LIG A   1       0.256  -2.460  -1.873  0.00  0.00    +0.055 C 
ATOM      9  O   LIG A   1       1.837  -0.727  -1.968  0.00  0.00    -0.458 OA
ATOM     10  C   LIG A   1       2.031   0.389  -2.707  0.00  0.00    +0.332 C 
ATOM     11  O   LIG A   1       2.930   0.383  -3.552  0.00  0.00    -0.249 OA
ATOM     12  O   LIG A   1       0.265   1.928   0.772  0.00  0.00    -0.250 OA
ATOM     13  C   LIG A   1       2.127   3.631  -0.625  0.00  0.00    +0.054 C 
ENDROOT
BRANCH   1  16
ATOM     14  O   LIG A   1      -0.829   0.941  -3.941  0.00  0.00    -0.270 OA
ATOM     15  C   LIG A   1      -1.034   1.403  -2.838  0.00  0.00    +0.248 C 
ATOM     16  N   LIG A   1      -0.016   1.766  -1.952  0.00  0.00    -0.295 N 
ATOM     17  H   LIG A   1      -0.250   2.398  -1.202  0.00  0.00    +0.150 HD
BRANCH  15  18
ATOM     18  C   LIG A   1      -2.444   1.534  -2.320  0.00  0.00    +0.080 A 
ATOM     19  C   LIG A   1      -2.716   2.476  -1.320  0.00  0.00    +0.017 A 
ATOM     20  C   LIG A   1      -3.986   2.596  -0.771  0.00  0.00    +0.003 A 
ATOM     21  C   LIG A   1      -5.014   1.775  -1.209  0.00  0.00    +0.027 A 
ATOM     22  C   LIG A   1      -4.801   0.837  -2.218  0.00  0.00    +0.076 A 
ATOM     23  C   LIG A   1      -3.509   0.721  -2.784  0.00  0.00    +0.150 A 
BRANCH  22  24
ATOM     24  N   LIG A   1      -5.858   0.033  -2.708  0.00  0.00    -0.285 N 
ATOM     25  C   LIG A   1      -7.146  -0.052  -2.188  0.00  0.00    +0.330 C 
ATOM     26  O   LIG A   1      -7.602   0.522  -1.208  0.00  0.00    -0.279 OA
ATOM     27  H   LIG A   1      -5.627  -0.555  -3.504  0.00  0.00    +0.155 HD
ENDBRANCH  22  24
BRANCH  23  28
ATOM     28  O   LIG A   1      -3.368  -0.211  -3.789  0.00  0.00    -0.504 OA
ATOM     29  H   LIG A   1      -2.602   0.052  -4.342  0.00  0.00    +0.292 HD
ENDBRANCH  23  28
ENDBRANCH  15  18
ENDBRANCH   1  16
BRANCH   6  30
ATOM     30  O   LIG A   1       2.446  -1.997   0.299  0.00  0.00    -0.387 OA
ATOM     31  H   LIG A   1       2.800  -1.972  -0.610  0.00  0.00    +0.210 HD
ENDBRANCH   6  30
BRANCH   5  32
ATOM     32  C   LIG A   1       1.789  -0.467   2.613  0.00  0.00    +0.018 C 
BRANCH  32  33
ATOM     33  C   LIG A   1       1.624  -1.840   3.300  0.00  0.00    +0.004 C 
BRANCH  33  34
ATOM     34  C   LIG A   1       2.425  -1.994   4.613  0.00  0.00    -0.017 C 
ATOM     35  C   LIG A   1       2.209  -3.391   5.210  0.00  0.00    +0.007 C 
ATOM     36  C   LIG A   1       3.920  -1.744   4.403  0.00  0.00    +0.007 C 
ENDBRANCH  33  34
ENDBRANCH  32  33
ENDBRANCH   5  32
TORSDOF 8
