REMARK  Name = NuBBE_614
REMARK  7 active torsions:
REMARK  status: ('A' for Active; 'I' for Inactive)
REMARK    1  A    between atoms: O_1  and  C_2
REMARK    2  A    between atoms: C_2  and  C_3
REMARK    3  A    between atoms: C_3  and  O_4
REMARK    4  A    between atoms: C_10  and  C_11
REMARK    5  A    between atoms: C_11  and  O_12
REMARK    6  A    between atoms: C_15  and  C_16
REMARK    7  A    between atoms: C_15  and  C_17
REMARK                            x       y       z     vdW  Elec       q    Type
REMARK                         _______ _______ _______ _____ _____    ______ ____
ROOT
ATOM      1  C   LIG A   1      -1.768   1.243  -0.644  0.00  0.00    +0.092 C 
ATOM      2  C   LIG A   1      -1.121   0.905   0.711  0.00  0.00    +0.027 C 
ATOM      3  C   LIG A   1      -1.793   0.040   1.798  0.00  0.00    +0.008 C 
ATOM      4  C   LIG A   1      -0.623  -0.806   2.420  0.00  0.00    +0.019 C 
ATOM      5  C   LIG A   1       0.192   0.196   0.526  0.00  0.00    +0.015 C 
ATOM      6  C   LIG A   1       0.182  -1.174   1.178  0.00  0.00    +0.071 C 
ATOM      7  C   LIG A   1       1.698  -1.432   1.058  0.00  0.00    +0.025 C 
ATOM      8  C   LIG A   1       2.099  -0.782  -0.366  0.00  0.00    -0.031 C 
ATOM      9  C   LIG A   1       2.465  -1.883  -1.371  0.00  0.00    +0.011 C 
ATOM     10  C   LIG A   1       3.306   0.152  -0.203  0.00  0.00    +0.011 C 
ATOM     11  C   LIG A   1       0.798  -0.037  -0.823  0.00  0.00    -0.001 C 
ATOM     12  C   LIG A   1       0.761   1.286  -1.559  0.00  0.00    +0.007 C 
ATOM     13  C   LIG A   1      -0.692   1.861  -1.619  0.00  0.00    +0.037 C 
ENDROOT
BRANCH   1  14
ATOM     14  O   LIG A   1      -2.350   0.102  -1.286  0.00  0.00    -0.386 OA
ATOM     15  H   LIG A   1      -1.954  -0.728  -0.950  0.00  0.00    +0.210 HD
ENDBRANCH   1  14
BRANCH   6  16
ATOM     16  C   LIG A   1      -0.579  -2.316   0.501  0.00  0.00    +0.311 C 
ATOM     17  O   LIG A   1      -1.391  -2.223  -0.407  0.00  0.00    -0.250 OA
BRANCH  16  18
ATOM     18  O   LIG A   1      -0.344  -3.506   1.086  0.00  0.00    -0.480 OA
ATOM     19  H   LIG A   1      -0.928  -4.136   0.612  0.00  0.00    +0.295 HD
ENDBRANCH  16  18
ENDBRANCH   6  16
BRANCH   1  20
ATOM     20  C   LIG A   1      -2.944   2.229  -0.460  0.00  0.00    +0.190 C 
BRANCH  20  21
ATOM     21  O   LIG A   1      -2.539   3.446   0.154  0.00  0.00    -0.392 OA
ATOM     22  H   LIG A   1      -3.321   4.025   0.167  0.00  0.00    +0.209 HD
ENDBRANCH  20  21
ENDBRANCH   1  20
TORSDOF 5
