@<TRIPOS>MOLECULE
NuBBE_1586
 43 45 0 0 0
SMALL
GASTEIGER

@<TRIPOS>ATOM
      1 C          -0.7759   -3.6096   -1.1616 C.3     1  LIG1        0.0791
      2 O          -0.2697   -2.2963   -0.9628 O.3     1  LIG1       -0.4885
      3 C           0.3703   -2.0450    0.2262 C.ar    1  LIG1        0.2051
      4 C           1.0979   -2.9731    0.9867 C.ar    1  LIG1        0.1687
      5 O           1.2000   -4.2721    0.5609 O.3     1  LIG1       -0.4912
      6 C           1.3723   -5.2518    1.5846 C.3     1  LIG1        0.0790
      7 C           1.7855   -2.5369    2.1269 C.ar    1  LIG1        0.0264
      8 C           1.6937   -1.2247    2.5883 C.ar    1  LIG1        0.1381
      9 O           2.3982   -0.7629    3.6703 O.3     1  LIG1       -0.4942
     10 C           3.2701   -1.6860    4.3188 C.3     1  LIG1        0.0788
     11 C           0.8882   -0.3244    1.8788 C.ar    1  LIG1        0.1094
     12 C           0.2964   -0.7122    0.6693 C.ar    1  LIG1        0.1878
     13 O          -0.3788    0.1876   -0.1286 O.2     1  LIG1       -0.4507
     14 C          -0.2901    1.5432    0.1552 C.ar    1  LIG1        0.1394
     15 C          -0.7875    2.4450   -0.9160 C.ar    1  LIG1        0.0176
     16 C          -0.8036    3.8436   -0.7778 C.ar    1  LIG1       -0.0476
     17 C          -1.2776    4.6746   -1.7973 C.ar    1  LIG1       -0.0193
     18 C          -1.7646    4.1289   -2.9798 C.ar    1  LIG1        0.1201
     19 O          -2.1966    5.0290   -3.9132 O.3     1  LIG1       -0.4951
     20 C          -3.2414    4.5598   -4.7585 C.3     1  LIG1        0.0788
     21 C          -1.7404    2.7474   -3.1504 C.ar    1  LIG1       -0.0193
     22 C          -1.2608    1.9159   -2.1292 C.ar    1  LIG1       -0.0476
     23 C           0.1609    1.9952    1.3416 C.ar    1  LIG1        0.0288
     24 C           0.5998    1.0326    2.3585 C.ar    1  LIG1        0.1967
     25 O           0.6457    1.3767    3.5376 O.2     1  LIG1       -0.2869
     26 H          -1.4977   -3.5657   -1.9827 H       1  LIG1        0.0660
     27 H          -1.3044   -3.9810   -0.2766 H       1  LIG1        0.0660
     28 H           0.0190   -4.2918   -1.4758 H       1  LIG1        0.0660
     29 H           1.1160   -6.2272    1.1629 H       1  LIG1        0.0660
     30 H           0.7086   -5.0708    2.4385 H       1  LIG1        0.0660
     31 H           2.4184   -5.2937    1.9057 H       1  LIG1        0.0660
     32 H           2.4192   -3.2438    2.6464 H       1  LIG1        0.0692
     33 H           3.8025   -1.1639    5.1180 H       1  LIG1        0.0660
     34 H           4.0245   -2.0769    3.6253 H       1  LIG1        0.0660
     35 H           2.6970   -2.5016    4.7738 H       1  LIG1        0.0660
     36 H          -0.4518    4.3317    0.1256 H       1  LIG1        0.0626
     37 H          -1.2757    5.7523   -1.6540 H       1  LIG1        0.0654
     38 H          -3.5315    5.3810   -5.4200 H       1  LIG1        0.0660
     39 H          -4.1175    4.2730   -4.1668 H       1  LIG1        0.0660
     40 H          -2.9104    3.7345   -5.3955 H       1  LIG1        0.0660
     41 H          -2.0683    2.2819   -4.0733 H       1  LIG1        0.0654
     42 H          -1.2621    0.8416   -2.3071 H       1  LIG1        0.0626
     43 H           0.2220    3.0361    1.6273 H       1  LIG1        0.0693
@<TRIPOS>BOND
     1     1     2    1
     2     2     3    1
     3     3     4   ar
     4     4     5    1
     5     5     6    1
     6     4     7   ar
     7     7     8   ar
     8     8     9    1
     9     9    10    1
    10     8    11   ar
    11    11    12   ar
    12     3    12   ar
    13    12    13   ar
    14    13    14   ar
    15    14    15    1
    16    15    16   ar
    17    16    17   ar
    18    17    18   ar
    19    18    19    1
    20    19    20    1
    21    18    21   ar
    22    21    22   ar
    23    15    22   ar
    24    14    23   ar
    25    23    24   ar
    26    11    24   ar
    27    24    25    2
    28     1    26    1
    29     1    27    1
    30     1    28    1
    31     6    29    1
    32     6    30    1
    33     6    31    1
    34     7    32    1
    35    10    33    1
    36    10    34    1
    37    10    35    1
    38    16    36    1
    39    17    37    1
    40    20    38    1
    41    20    39    1
    42    20    40    1
    43    21    41    1
    44    22    42    1
    45    23    43    1
