REMARK  Name = NuBBE_2519
REMARK  7 active torsions:
REMARK  status: ('A' for Active; 'I' for Inactive)
REMARK    1  A    between atoms: C_1  and  C_2
REMARK    2  A    between atoms: C_1  and  C_4
REMARK    3  A    between atoms: C_5  and  O_6
REMARK    4  A    between atoms: C_9  and  C_14
REMARK    5  A    between atoms: C_11  and  C_13
REMARK    6  A    between atoms: C_23  and  O_28
REMARK    7  A    between atoms: O_28  and  C_29
REMARK                            x       y       z     vdW  Elec       q    Type
REMARK                         _______ _______ _______ _____ _____    ______ ____
ROOT
ATOM      1  C   LIG A   1      -0.866  -0.530  -1.360  0.00  0.00    +0.010 C 
ATOM      2  C   LIG A   1      -0.212  -1.474  -0.333  0.00  0.00    +0.128 C 
ATOM      3  C   LIG A   1       1.145  -0.797  -0.136  0.00  0.00    +0.062 C 
ATOM      4  C   LIG A   1       0.731   0.669   0.153  0.00  0.00    +0.031 C 
ATOM      5  C   LIG A   1      -0.565   0.871  -0.717  0.00  0.00    +0.003 C 
ATOM      6  C   LIG A   1      -0.412   2.035  -1.701  0.00  0.00    +0.009 C 
ATOM      7  C   LIG A   1       2.051  -0.935  -1.390  0.00  0.00    +0.190 C 
ATOM      8  C   LIG A   1       1.306  -0.569  -2.669  0.00  0.00    +0.163 C 
ATOM      9  O   LIG A   1       1.921  -0.204  -3.673  0.00  0.00    -0.295 OA
ATOM     10  C   LIG A   1      -0.180  -0.756  -2.729  0.00  0.00    +0.087 C 
ENDROOT
BRANCH   4  11
ATOM     11  C   LIG A   1       0.481   0.982   1.637  0.00  0.00    -0.040 A 
ATOM     12  C   LIG A   1       0.633   0.022   2.655  0.00  0.00    +0.053 A 
ATOM     13  C   LIG A   1       0.400   0.383   3.965  0.00  0.00    +0.167 A 
ATOM     14  C   LIG A   1       0.025   1.653   4.312  0.00  0.00    +0.166 A 
ATOM     15  C   LIG A   1      -0.129   2.635   3.360  0.00  0.00    +0.050 A 
ATOM     16  C   LIG A   1       0.106   2.295   2.018  0.00  0.00    +0.008 A 
ATOM     17  O   LIG A   1      -0.158   1.786   5.652  0.00  0.00    -0.453 OA
ATOM     18  C   LIG A   1       0.121   0.441   6.101  0.00  0.00    +0.466 C 
ATOM     19  O   LIG A   1       0.508  -0.448   5.035  0.00  0.00    -0.453 OA
ENDBRANCH   4  11
BRANCH   2  20
ATOM     20  O   LIG A   1      -0.136  -2.804  -0.794  0.00  0.00    -0.391 OA
ATOM     21  H   LIG A   1       0.469  -3.291  -0.202  0.00  0.00    +0.210 HD
ENDBRANCH   2  20
BRANCH   7  22
ATOM     22  O   LIG A   1       2.622  -2.237  -1.340  0.00  0.00    -0.372 OA
ATOM     23  C   LIG A   1       3.527  -2.483  -2.409  0.00  0.00    +0.195 C 
ENDBRANCH   7  22
BRANCH   1  24
ATOM     24  C   LIG A   1      -2.384  -0.842  -1.455  0.00  0.00    +0.036 C 
BRANCH  24  25
ATOM     25  C   LIG A   1      -3.162   0.001  -2.429  0.00  0.00    -0.034 C 
ATOM     26  C   LIG A   1      -4.171   0.810  -2.086  0.00  0.00    +0.004 C 
ENDBRANCH  24  25
ENDBRANCH   1  24
TORSDOF 5
