@<TRIPOS>MOLECULE
NuBBE_2313
 53 56 0 0 0
SMALL
GASTEIGER

@<TRIPOS>ATOM
      1 C           0.4766    3.1481   -1.8479 C.ar    1  LIG1        0.0000
      2 C          -0.4953    3.4388   -2.7734 C.ar    1  LIG1        0.0000
      3 C          -1.6064    2.7165   -2.8944 C.ar    1  LIG1        0.0000
      4 C          -1.8743    1.6161   -2.0695 C.ar    1  LIG1        0.0000
      5 C          -0.9386    1.2604   -1.0479 C.ar    1  LIG1        0.0000
      6 C          -1.2947    0.1618    0.0805 C.3     1  LIG1        0.0000
      7 H          -2.3825    0.2296    0.2951 H       1  LIG1        0.0000
      8 C          -0.8969   -1.2980   -0.3467 C.3     1  LIG1        0.0000
      9 H          -1.1646   -1.2898   -1.4110 H       1  LIG1        0.0000
     10 C           0.6544   -1.4374    0.0221 C.3     1  LIG1        0.0000
     11 C           1.0473   -2.1809    1.3155 C.2     1  LIG1        0.0000
     12 C           0.5772   -1.7492    2.4920 C.2     1  LIG1        0.0000
     13 O           1.1722   -2.1294    3.6510 O.2     1  LIG1        0.0000
     14 C           0.4166   -2.2396    4.8112 C.3     1  LIG1        0.0000
     15 C          -0.5208   -0.7277    2.4712 C.3     1  LIG1        0.0000
     16 H          -1.4326   -1.2566    2.2000 H       1  LIG1        0.0000
     17 C          -0.3451    0.3749    1.3161 C.3     1  LIG1        0.0000
     18 C           0.9978    0.0512    0.4946 C.3     1  LIG1        0.0000
     19 O           2.1603    0.2101    1.2592 O.3     1  LIG1        0.0000
     20 AC          3.9194   -0.3752   -0.3590 Ac      1  LIG1        0.0000
     21 O          -0.4797    1.6886    1.8582 O.3     1  LIG1        0.0000
     22 C          -0.3268    2.7029    0.8440 C.3     1  LIG1        0.0000
     23 O          -0.8364   -0.3060    3.7596 O.3     1  LIG1        0.0000
     24 AC         -2.6252    1.3046    3.1844 Ac      1  LIG1        0.0000
     25 C           1.3133   -2.2052   -1.1757 C.3     1  LIG1        0.0000
     26 C           2.7721   -2.5122   -1.1651 C.2     1  LIG1        0.0000
     27 C           3.1629   -3.6745   -0.6199 C.2     1  LIG1        0.0000
     28 C          -1.7618   -2.5236    0.0318 C.3     1  LIG1        0.0000
     29 C           0.2696    2.0600   -0.9860 C.ar    1  LIG1        0.0000
     30 O          -2.3702    3.2411   -3.8511 O.3     1  LIG1        0.0000
     31 C          -1.7185    4.3713   -4.3669 C.3     1  LIG1        0.0000
     32 O          -0.5253    4.4467   -3.6493 O.3     1  LIG1        0.0000
     33 H           1.3603    3.7659   -1.7562 H       1  LIG1        0.0000
     34 H          -2.8042    1.1252   -2.2126 H       1  LIG1        0.0000
     35 H           1.8628   -2.9011    1.3070 H       1  LIG1        0.0000
     36 H           1.0563   -2.5450    5.6643 H       1  LIG1        0.0000
     37 H          -0.3907   -2.9969    4.6882 H       1  LIG1        0.0000
     38 H          -0.0582   -1.2647    5.0654 H       1  LIG1        0.0000
     39 H           1.2046    0.7014   -0.3612 H       1  LIG1        0.0000
     40 H          -1.1081    3.4794    0.9664 H       1  LIG1        0.0000
     41 H          -0.3841    2.3517   -0.2102 H       1  LIG1        0.0000
     42 H           0.6504    3.2093    0.8712 H       1  LIG1        0.0000
     43 H           0.7236   -3.1252   -1.3948 H       1  LIG1        0.0000
     44 H           1.1938   -1.6200   -2.1097 H       1  LIG1        0.0000
     45 H           3.4955   -1.8490   -1.6214 H       1  LIG1        0.0000
     46 H           2.4256   -4.3490   -0.1790 H       1  LIG1        0.0000
     47 H           4.2020   -3.9729   -0.6180 H       1  LIG1        0.0000
     48 H          -1.6528   -2.9217    1.0537 H       1  LIG1        0.0000
     49 H          -1.4818   -3.3709   -0.6314 H       1  LIG1        0.0000
     50 H          -2.8335   -2.2918   -0.1529 H       1  LIG1        0.0000
     51 H           1.0279    1.9297   -0.2450 H       1  LIG1        0.0000
     52 H          -2.3288    5.2861   -4.1985 H       1  LIG1        0.0000
     53 H          -1.5046    4.2420   -5.4478 H       1  LIG1        0.0000
@<TRIPOS>BOND
     1     1     2   ar
     2     2     3   ar
     3     3     4   ar
     4     4     5   ar
     5     6     8    1
     6     8    10    1
     7    10    11    1
     8    11    12    2
     9    13    14    1
    10    12    15    1
    11    15    17    1
    12     6    17    1
    13    17    18    1
    14    10    18    1
    15    19    20    1
    16    21    22    1
    17    23    24    1
    18    25    26    1
    19    26    27    2
    20     5    29   ar
    21     1    29   ar
    22     3    30    1
    23    30    31    1
    24    31    32    1
    25     2    32    1
    26    10    25    1
    27    12    13    1
    28    17    21    1
    29    18    19    1
    30     8    28    1
    31     8     9    1
    32     6     7    1
    33     6     5    1
    34    15    23    1
    35    15    16    1
    36     1    33    1
    37     4    34    1
    38    11    35    1
    39    14    36    1
    40    14    37    1
    41    14    38    1
    42    18    39    1
    43    22    40    1
    44    22    41    1
    45    22    42    1
    46    25    43    1
    47    25    44    1
    48    26    45    1
    49    27    46    1
    50    27    47    1
    51    28    48    1
    52    28    49    1
    53    28    50    1
    54    29    51    1
    55    31    52    1
    56    31    53    1
