@<TRIPOS>MOLECULE
NuBBE_49
 83 85 0 0 0
SMALL
GASTEIGER

@<TRIPOS>ATOM
      1 O          -3.1495   -1.5521   -0.9624 O.3     1  LIG1       -0.3877
      2 C          -2.4650   -0.4931   -0.2891 C.3     1  LIG1        0.0741
      3 H          -3.2243    0.2541   -0.0377 H       1  LIG1        0.0638
      4 C          -1.9356   -1.0634    0.9617 C.2     1  LIG1       -0.0500
      5 C          -0.7003   -0.8497    1.4271 C.2     1  LIG1        0.0115
      6 C          -0.0634   -1.5441    2.6021 C.3     1  LIG1        0.2315
      7 H          -0.2173   -1.0015    3.5396 H       1  LIG1        0.1111
      8 O          -0.4939   -2.8991    2.7085 O.3     1  LIG1       -0.4309
      9 C          -1.6216   -3.1109    3.4417 C.2     1  LIG1        0.3095
     10 C          -2.0094   -4.5797    3.4282 C.3     1  LIG1        0.0448
     11 C          -1.6099   -5.3280    2.1556 C.3     1  LIG1       -0.0458
     12 C          -2.2636   -4.7763    0.8960 C.3     1  LIG1       -0.0648
     13 O          -2.2457   -2.2642    4.0377 O.2     1  LIG1       -0.2508
     14 O           1.3396   -1.5218    2.3266 O.3     1  LIG1       -0.2971
     15 C           1.5581   -0.8698    1.0632 C.3     1  LIG1        0.2205
     16 H           2.4866   -0.2972    1.1179 H       1  LIG1        0.1068
     17 O           1.7015   -1.8841    0.0419 O.3     1  LIG1       -0.4341
     18 C           2.8996   -2.5296    0.0189 C.2     1  LIG1        0.3061
     19 C           2.9344   -3.5514   -1.0850 C.3     1  LIG1        0.0333
     20 O           3.8343   -2.3363    0.7772 O.2     1  LIG1       -0.2511
     21 C           0.3238    0.0764    0.7907 C.3     1  LIG1        0.0926
     22 C           0.3315    1.3777    1.6711 C.3     1  LIG1        0.1078
     23 H          -0.6262    1.4291    2.2070 H       1  LIG1        0.0641
     24 O           1.3221    1.2938    2.7010 O.3     1  LIG1       -0.3870
     25 C           0.5033    2.7264    0.9449 C.3     1  LIG1        0.1328
     26 H           1.0443    3.4228    1.6023 H       1  LIG1        0.0763
     27 O          -0.8202    3.2952    0.7168 O.3     1  LIG1       -0.4584
     28 C          -1.3407    3.9661    1.8018 C.2     1  LIG1        0.3074
     29 C          -2.8210    4.2625    1.6327 C.3     1  LIG1        0.0447
     30 C          -3.6326    4.2186    2.9426 C.3     1  LIG1       -0.0458
     31 C          -3.3101    5.3088    3.9601 C.3     1  LIG1       -0.0648
     32 O          -0.6861    4.2612    2.8002 O.2     1  LIG1       -0.2508
     33 C           1.3521    2.6462   -0.3434 C.3     1  LIG1        0.0018
     34 H           1.2672    3.6460   -0.7969 H       1  LIG1        0.0340
     35 C           2.8448    2.5548    0.0146 C.3     1  LIG1       -0.0584
     36 C           0.8353    1.5936   -1.4091 C.3     1  LIG1       -0.0186
     37 C          -0.0392    2.4468   -2.3823 C.3     1  LIG1       -0.0586
     38 C           2.0115    1.0295   -2.3400 C.3     1  LIG1       -0.0282
     39 C           1.5438    0.0240   -3.3800 C.2     1  LIG1       -0.0806
     40 C           2.2056   -0.5983   -4.3726 C.2     1  LIG1       -0.0549
     41 C           3.6029   -0.3739   -4.6908 C.2     1  LIG1       -0.0662
     42 C           4.0956   -0.5593   -5.9245 C.2     1  LIG1       -0.0985
     43 C           1.4719   -1.6173   -5.2233 C.3     1  LIG1       -0.0400
     44 C           0.0436    0.3516   -0.7310 C.3     1  LIG1       -0.0145
     45 H           0.5148   -0.5165   -1.1968 H       1  LIG1        0.0318
     46 C          -1.4247    0.1143   -1.2350 C.3     1  LIG1       -0.0188
     47 H          -2.5222   -2.2896   -1.0649 H       1  LIG1        0.2102
     48 H          -2.6270   -1.7049    1.5007 H       1  LIG1        0.0599
     49 H          -3.0954   -4.6421    3.5598 H       1  LIG1        0.0377
     50 H          -1.5371   -5.0484    4.2978 H       1  LIG1        0.0377
     51 H          -1.8931   -6.3799    2.2637 H       1  LIG1        0.0268
     52 H          -0.5209   -5.3041    2.0325 H       1  LIG1        0.0268
     53 H          -3.3536   -4.7516    0.9870 H       1  LIG1        0.0230
     54 H          -2.0000   -5.3941    0.0330 H       1  LIG1        0.0230
     55 H          -1.9155   -3.7670    0.6750 H       1  LIG1        0.0230
     56 H           3.9668   -3.6668   -1.4292 H       1  LIG1        0.0342
     57 H           2.3409   -3.2168   -1.9400 H       1  LIG1        0.0342
     58 H           2.5619   -4.5116   -0.7217 H       1  LIG1        0.0342
     59 H           1.1444    2.0087    3.3431 H       1  LIG1        0.2100
     60 H          -3.2350    3.4846    0.9778 H       1  LIG1        0.0377
     61 H          -2.9453    5.2272    1.1334 H       1  LIG1        0.0377
     62 H          -3.5035    3.2421    3.4241 H       1  LIG1        0.0268
     63 H          -4.6989    4.3061    2.6947 H       1  LIG1        0.0268
     64 H          -2.2539    5.3246    4.2351 H       1  LIG1        0.0230
     65 H          -3.8733    5.1342    4.8848 H       1  LIG1        0.0230
     66 H          -3.5844    6.2999    3.5866 H       1  LIG1        0.0230
     67 H           3.1161    3.3356    0.7365 H       1  LIG1        0.0234
     68 H           3.4751    2.7276   -0.8637 H       1  LIG1        0.0234
     69 H           3.1146    1.5956    0.4525 H       1  LIG1        0.0234
     70 H           0.5424    3.2950   -2.7725 H       1  LIG1        0.0235
     71 H          -0.9115    2.8741   -1.8820 H       1  LIG1        0.0235
     72 H          -0.3760    1.8887   -3.2594 H       1  LIG1        0.0235
     73 H           2.7712    0.5446   -1.7161 H       1  LIG1        0.0313
     74 H           2.4915    1.8702   -2.8596 H       1  LIG1        0.0313
     75 H           0.4849   -0.2140   -3.3314 H       1  LIG1        0.0575
     76 H           4.2625   -0.0125   -3.9047 H       1  LIG1        0.0614
     77 H           3.4646   -0.8652   -6.7536 H       1  LIG1        0.0535
     78 H           5.1352   -0.3781   -6.1656 H       1  LIG1        0.0535
     79 H           0.4284   -1.7474   -4.9199 H       1  LIG1        0.0277
     80 H           1.9586   -2.5973   -5.1419 H       1  LIG1        0.0277
     81 H           1.4518   -1.3205   -6.2758 H       1  LIG1        0.0277
     82 H          -1.3549   -0.5508   -2.1109 H       1  LIG1        0.0296
     83 H          -1.8772    1.0219   -1.6350 H       1  LIG1        0.0296
@<TRIPOS>BOND
     1     2     4    1
     2     4     5    2
     3     5     6    1
     4     6     7    1
     5     6     8    1
     6     8     9    1
     7     9    10    1
     8    10    11    1
     9    11    12    1
    10     9    13    2
    11     6    14    1
    12    14    15    1
    13    17    18    1
    14    18    19    1
    15    18    20    2
    16     5    21    1
    17    21    22    1
    18    22    25    1
    19    25    26    1
    20    25    27    1
    21    27    28    1
    22    28    29    1
    23    29    30    1
    24    30    31    1
    25    28    32    2
    26    25    33    1
    27    33    34    1
    28    33    35    1
    29    33    36    1
    30    36    37    1
    31    36    38    1
    32    38    39    1
    33    39    40    2
    34    40    41    1
    35    41    42    2
    36    40    43    1
    37    15    21    1
    38    21    44    1
    39    36    44    1
    40    44    45    1
    41    44    46    1
    42     2    46    1
    43     2     3    1
    44     2     1    1
    45    15    17    1
    46    15    16    1
    47    22    24    1
    48    22    23    1
    49     1    47    1
    50     4    48    1
    51    10    49    1
    52    10    50    1
    53    11    51    1
    54    11    52    1
    55    12    53    1
    56    12    54    1
    57    12    55    1
    58    19    56    1
    59    19    57    1
    60    19    58    1
    61    24    59    1
    62    29    60    1
    63    29    61    1
    64    30    62    1
    65    30    63    1
    66    31    64    1
    67    31    65    1
    68    31    66    1
    69    35    67    1
    70    35    68    1
    71    35    69    1
    72    37    70    1
    73    37    71    1
    74    37    72    1
    75    38    73    1
    76    38    74    1
    77    39    75    1
    78    41    76    1
    79    42    77    1
    80    42    78    1
    81    43    79    1
    82    43    80    1
    83    43    81    1
    84    46    82    1
    85    46    83    1
