REMARK  Name = NuBBE_80
REMARK  4 active torsions:
REMARK  status: ('A' for Active; 'I' for Inactive)
REMARK    1  A    between atoms: C_2  and  C_8
REMARK    2  A    between atoms: C_9  and  C_10
REMARK    3  A    between atoms: C_10  and  C_11
REMARK    4  A    between atoms: C_11  and  C_12
REMARK                            x       y       z     vdW  Elec       q    Type
REMARK                         _______ _______ _______ _____ _____    ______ ____
ROOT
ATOM      1  C   LIG A   1      -0.711  -3.296  -0.511  0.00  0.00    +0.032 C 
ENDROOT
BRANCH   1   3
ATOM      2  C   LIG A   1      -1.953  -1.181  -0.063  0.00  0.00    +0.063 C 
ATOM      3  C   LIG A   1      -1.373  -2.298   0.399  0.00  0.00    -0.021 C 
BRANCH   2   5
ATOM      4  O   LIG A   1      -3.163  -0.553   1.866  0.00  0.00    -0.271 OA
ATOM      5  C   LIG A   1      -2.568  -0.193   0.860  0.00  0.00    +0.239 C 
ATOM      6  N   LIG A   1      -2.407   1.125   0.494  0.00  0.00    -0.298 N 
ATOM      7  C   LIG A   1      -1.668   1.650  -0.643  0.00  0.00    +0.108 C 
ATOM      8  C   LIG A   1      -1.369   3.088  -0.258  0.00  0.00    +0.020 C 
ATOM      9  C   LIG A   1      -2.587   3.479   0.570  0.00  0.00    +0.020 C 
ATOM     10  C   LIG A   1      -2.948   2.196   1.310  0.00  0.00    +0.108 C 
ENDBRANCH   2   5
ENDBRANCH   1   3
BRANCH   1  11
ATOM     11  C   LIG A   1       0.788  -3.464  -0.227  0.00  0.00    +0.039 C 
BRANCH  11  12
ATOM     12  C   LIG A   1       1.581  -2.187  -0.401  0.00  0.00    -0.043 A 
ATOM     13  C   LIG A   1       2.276  -1.641   0.690  0.00  0.00    +0.053 A 
ATOM     14  C   LIG A   1       2.976  -0.469   0.492  0.00  0.00    +0.167 A 
ATOM     15  O   LIG A   1       3.701   0.190   1.435  0.00  0.00    -0.453 OA
ATOM     16  C   LIG A   1       4.194   1.305   0.665  0.00  0.00    +0.466 C 
ATOM     17  O   LIG A   1       3.752   1.297  -0.709  0.00  0.00    -0.453 OA
ATOM     18  C   LIG A   1       3.004   0.162  -0.728  0.00  0.00    +0.166 A 
ATOM     19  C   LIG A   1       2.337  -0.342  -1.822  0.00  0.00    +0.050 A 
ATOM     20  C   LIG A   1       1.623  -1.532  -1.654  0.00  0.00    +0.007 A 
ENDBRANCH  11  12
ENDBRANCH   1  11
TORSDOF 4
