@<TRIPOS>MOLECULE
NuBBE_1005
 71 75 0 0 0
SMALL
GASTEIGER

@<TRIPOS>ATOM
      1 C           4.9360   -0.2325   -5.9472 C.3     1  LIG1       -0.0621
      2 C           4.5288   -0.4096   -4.4800 C.3     1  LIG1       -0.0407
      3 C           4.3995    0.9513   -3.7342 C.3     1  LIG1       -0.0234
      4 H           3.6284    1.5472   -4.2423 H       1  LIG1        0.0343
      5 C           3.9895    0.7442   -2.2891 C.2     1  LIG1       -0.0846
      6 C           2.9164    1.3240   -1.7258 C.2     1  LIG1       -0.0846
      7 C           2.4405    1.0424   -0.3117 C.3     1  LIG1       -0.0223
      8 H           3.1259    0.3202    0.1502 H       1  LIG1        0.0343
      9 C           1.0120    0.4355   -0.3532 C.3     1  LIG1       -0.0268
     10 C           0.9612   -0.8656   -1.1897 C.3     1  LIG1       -0.0464
     11 C          -0.3985   -1.4848   -0.8755 C.3     1  LIG1       -0.0202
     12 C          -0.7533   -0.9469    0.4770 C.3     1  LIG1        0.1054
     13 C          -2.1993   -0.9295    0.9849 C.3     1  LIG1        0.1102
     14 C          -3.2995   -1.5112    0.1415 C.3     1  LIG1        0.0423
     15 C          -4.6209   -1.6894    0.8529 C.2     1  LIG1        0.1627
     16 C          -4.9152   -0.8392    2.0484 C.2     1  LIG1        0.0047
     17 C          -6.2097   -0.5453    2.2576 C.2     1  LIG1       -0.0122
     18 C          -6.6236    0.2441    3.4363 C.2     1  LIG1        0.1565
     19 C          -5.5827    0.5834    4.4709 C.3     1  LIG1        0.0107
     20 C          -4.2256    0.8084    3.8163 C.3     1  LIG1       -0.0362
     21 C          -3.7580   -0.3705    2.9144 C.3     1  LIG1        0.0023
     22 C          -2.6064    0.1347    1.9793 C.3     1  LIG1        0.0008
     23 C          -1.4018    0.7450    2.7195 C.3     1  LIG1       -0.0461
     24 C          -0.3167    1.1888    1.7331 C.3     1  LIG1       -0.0443
     25 C           0.3267    0.0001    0.9934 C.3     1  LIG1        0.0031
     26 C           1.3071   -0.7500    1.9207 C.3     1  LIG1       -0.0566
     27 H          -3.0238    0.9519    1.3694 H       1  LIG1        0.0338
     28 C          -3.3203   -1.5485    3.8130 C.3     1  LIG1       -0.0551
     29 O          -7.8075    0.5498    3.5759 O.2     1  LIG1       -0.2927
     30 O          -5.4808   -2.4480    0.4026 O.2     1  LIG1       -0.2923
     31 O          -1.2450   -1.8968    1.4326 O.3     1  LIG1       -0.3599
     32 H           0.3478    1.1580   -0.8529 H       1  LIG1        0.0313
     33 C           2.5202    2.3429    0.4896 C.3     1  LIG1       -0.0587
     34 C           5.7000    1.7607   -3.7716 C.3     1  LIG1       -0.0587
     35 C           3.2238   -1.2169   -4.4235 C.3     1  LIG1       -0.0621
     36 H           5.9361    0.2019   -6.0359 H       1  LIG1        0.0233
     37 H           4.2296    0.4124   -6.4798 H       1  LIG1        0.0233
     38 H           4.9644   -1.1997   -6.4613 H       1  LIG1        0.0233
     39 H           5.3097   -1.0096   -3.9928 H       1  LIG1        0.0301
     40 H           4.5952    0.0521   -1.7063 H       1  LIG1        0.0572
     41 H           2.3163    2.0171   -2.3101 H       1  LIG1        0.0572
     42 H           1.7660   -1.5504   -0.8974 H       1  LIG1        0.0269
     43 H           1.0577   -0.6777   -2.2633 H       1  LIG1        0.0269
     44 H          -0.3459   -2.5778   -0.8984 H       1  LIG1        0.0294
     45 H          -1.1298   -1.1561   -1.6215 H       1  LIG1        0.0294
     46 H          -3.0040   -2.4963   -0.2400 H       1  LIG1        0.0374
     47 H          -3.4811   -0.8546   -0.7169 H       1  LIG1        0.0374
     48 H          -7.0123   -0.8844    1.6104 H       1  LIG1        0.0656
     49 H          -5.5489   -0.2216    5.2113 H       1  LIG1        0.0345
     50 H          -5.8877    1.5029    4.9830 H       1  LIG1        0.0345
     51 H          -3.4887    1.0049    4.6048 H       1  LIG1        0.0278
     52 H          -4.2895    1.7251    3.2132 H       1  LIG1        0.0278
     53 H          -0.9836    0.0418    3.4456 H       1  LIG1        0.0269
     54 H          -1.7203    1.6278    3.2847 H       1  LIG1        0.0269
     55 H           0.4379    1.7544    2.2876 H       1  LIG1        0.0272
     56 H          -0.7655    1.8879    1.0157 H       1  LIG1        0.0272
     57 H           0.8043   -1.1529    2.8058 H       1  LIG1        0.0236
     58 H           2.1061   -0.0939    2.2784 H       1  LIG1        0.0236
     59 H           1.7726   -1.6026    1.4154 H       1  LIG1        0.0236
     60 H          -4.1449   -1.9021    4.4428 H       1  LIG1        0.0238
     61 H          -2.5043   -1.2632    4.4842 H       1  LIG1        0.0238
     62 H          -2.9874   -2.4141    3.2314 H       1  LIG1        0.0238
     63 H           2.4388    2.1525    1.5623 H       1  LIG1        0.0235
     64 H           1.7269    3.0422    0.2022 H       1  LIG1        0.0235
     65 H           3.4810    2.8469    0.3380 H       1  LIG1        0.0235
     66 H           5.9244    2.0980   -4.7884 H       1  LIG1        0.0235
     67 H           6.5506    1.1705   -3.4142 H       1  LIG1        0.0235
     68 H           5.6265    2.6596   -3.1490 H       1  LIG1        0.0235
     69 H           2.3723   -0.6181   -4.7618 H       1  LIG1        0.0233
     70 H           3.0190   -1.5627   -3.4064 H       1  LIG1        0.0233
     71 H           3.2837   -2.1080   -5.0559 H       1  LIG1        0.0233
@<TRIPOS>BOND
     1     1     2    1
     2     2     3    1
     3     3     4    1
     4     3     5    1
     5     5     6    2
     6     9    10    1
     7    10    11    1
     8    11    12    1
     9    12    13    1
    10    13    14    1
    11    14    15    1
    12    15    16    1
    13    16    17    2
    14    17    18    1
    15    18    19    1
    16    19    20    1
    17    20    21    1
    18    16    21    1
    19    21    22    1
    20    13    22    1
    21    22    23    1
    22    23    24    1
    23    24    25    1
    24    12    25    1
    25     9    25    1
    26    13    31    1
    27    12    31    1
    28     7    33    1
    29     3    34    1
    30     2    35    1
    31     7     9    1
    32     9    32    1
    33    15    30    2
    34    18    29    2
    35    21    28    1
    36    22    27    1
    37    25    26    1
    38     7     8    1
    39     7     6    1
    40     1    36    1
    41     1    37    1
    42     1    38    1
    43     2    39    1
    44     5    40    1
    45     6    41    1
    46    10    42    1
    47    10    43    1
    48    11    44    1
    49    11    45    1
    50    14    46    1
    51    14    47    1
    52    17    48    1
    53    19    49    1
    54    19    50    1
    55    20    51    1
    56    20    52    1
    57    23    53    1
    58    23    54    1
    59    24    55    1
    60    24    56    1
    61    26    57    1
    62    26    58    1
    63    26    59    1
    64    28    60    1
    65    28    61    1
    66    28    62    1
    67    33    63    1
    68    33    64    1
    69    33    65    1
    70    34    66    1
    71    34    67    1
    72    34    68    1
    73    35    69    1
    74    35    70    1
    75    35    71    1
