REMARK  Name = NuBBE_1312
REMARK  15 active torsions:
REMARK  status: ('A' for Active; 'I' for Inactive)
REMARK    1  A    between atoms: C_3  and  O_4
REMARK    2  A    between atoms: O_4  and  C_5
REMARK    3  A    between atoms: C_6  and  C_20
REMARK    4  A    between atoms: C_10  and  O_11
REMARK    5  A    between atoms: O_11  and  C_12
REMARK    6  A    between atoms: C_13  and  O_14
REMARK    7  A    between atoms: O_14  and  C_15
REMARK    8  A    between atoms: C_16  and  O_17
REMARK    9  A    between atoms: O_17  and  C_18
REMARK   10  A    between atoms: C_22  and  O_23
REMARK   11  A    between atoms: O_23  and  C_24
REMARK   12  A    between atoms: C_25  and  O_30
REMARK   13  A    between atoms: C_26  and  O_27
REMARK   14  A    between atoms: O_27  and  C_28
REMARK   15  A    between atoms: O_30  and  C_31
REMARK                            x       y       z     vdW  Elec       q    Type
REMARK                         _______ _______ _______ _____ _____    ______ ____
ROOT
ATOM      1  O   LIG A   1      -3.680   0.628   0.773  0.00  0.00    -0.283 OA
ATOM      2  C   LIG A   1      -2.449   0.542   0.601  0.00  0.00    +0.238 A 
ATOM      3  C   LIG A   1      -1.760  -0.788   0.449  0.00  0.00    +0.211 A 
ATOM      4  C   LIG A   1      -0.412  -0.778   0.471  0.00  0.00    +0.181 A 
ATOM      5  O   LIG A   1       0.351   0.353   0.636  0.00  0.00    -0.451 OA
ATOM      6  C   LIG A   1      -0.254   1.575   0.546  0.00  0.00    +0.147 A 
ATOM      7  C   LIG A   1      -1.635   1.758   0.526  0.00  0.00    +0.113 A 
ATOM      8  C   LIG A   1      -2.170   3.069   0.418  0.00  0.00    +0.180 A 
ATOM      9  C   LIG A   1      -1.301   4.175   0.340  0.00  0.00    +0.204 A 
ATOM     10  C   LIG A   1       0.095   3.960   0.356  0.00  0.00    +0.169 A 
ATOM     11  C   LIG A   1       0.602   2.663   0.474  0.00  0.00    +0.096 A 
ENDROOT
BRANCH   4  12
ATOM     12  C   LIG A   1       0.419  -1.984   0.312  0.00  0.00    +0.028 A 
ATOM     13  C   LIG A   1       0.786  -2.745   1.423  0.00  0.00    +0.061 A 
ATOM     14  C   LIG A   1       1.597  -3.885   1.292  0.00  0.00    +0.166 A 
ATOM     15  C   LIG A   1       2.002  -4.324   0.004  0.00  0.00    +0.203 A 
ATOM     16  C   LIG A   1       1.647  -3.544  -1.117  0.00  0.00    +0.166 A 
ATOM     17  C   LIG A   1       0.891  -2.370  -0.947  0.00  0.00    +0.061 A 
BRANCH  14  18
ATOM     18  O   LIG A   1       2.009  -4.611   2.390  0.00  0.00    -0.491 OA
ATOM     19  C   LIG A   1       1.971  -3.940   3.654  0.00  0.00    +0.277 C 
ENDBRANCH  14  18
BRANCH  16  20
ATOM     20  O   LIG A   1       1.941  -4.020  -2.369  0.00  0.00    -0.491 OA
ATOM     21  C   LIG A   1       2.211  -3.063  -3.383  0.00  0.00    +0.277 C 
ENDBRANCH  16  20
BRANCH  15  22
ATOM     22  O   LIG A   1       2.674  -5.530  -0.053  0.00  0.00    -0.488 OA
ATOM     23  C   LIG A   1       3.568  -5.759  -1.142  0.00  0.00    +0.277 C 
ENDBRANCH  15  22
ENDBRANCH   4  12
BRANCH   3  24
ATOM     24  O   LIG A   1      -2.459  -1.989   0.311  0.00  0.00    -0.488 OA
ATOM     25  C   LIG A   1      -3.869  -1.912   0.095  0.00  0.00    +0.277 C 
ENDBRANCH   3  24
BRANCH   8  26
ATOM     26  O   LIG A   1      -3.543   3.159   0.470  0.00  0.00    -0.490 OA
ATOM     27  C   LIG A   1      -4.199   4.228  -0.197  0.00  0.00    +0.277 C 
ENDBRANCH   8  26
BRANCH   9  28
ATOM     28  O   LIG A   1      -1.868   5.426   0.385  0.00  0.00    -0.488 OA
ATOM     29  C   LIG A   1      -1.299   6.449  -0.424  0.00  0.00    +0.277 C 
ENDBRANCH   9  28
BRANCH  10  30
ATOM     30  O   LIG A   1       0.932   5.041   0.366  0.00  0.00    -0.491 OA
ATOM     31  C   LIG A   1       2.182   4.862  -0.292  0.00  0.00    +0.277 C 
ENDBRANCH  10  30
TORSDOF 8
