REMARK  Name = NuBBE_2146
REMARK  16 active torsions:
REMARK  status: ('A' for Active; 'I' for Inactive)
REMARK    1  A    between atoms: O_1  and  C_2
REMARK    2  A    between atoms: C_2  and  C_3
REMARK    3  A    between atoms: C_3  and  C_4
REMARK    4  A    between atoms: C_4  and  C_5
REMARK    5  A    between atoms: C_5  and  C_6
REMARK    6  A    between atoms: C_6  and  C_7
REMARK    7  A    between atoms: C_7  and  C_8
REMARK    8  A    between atoms: C_8  and  C_9
REMARK    9  A    between atoms: C_9  and  C_10
REMARK   10  A    between atoms: C_11  and  C_12
REMARK   11  A    between atoms: C_12  and  C_13
REMARK   12  A    between atoms: C_14  and  C_15
REMARK   13  A    between atoms: C_15  and  C_16
REMARK   14  A    between atoms: C_16  and  C_17
REMARK   15  A    between atoms: C_17  and  C_18
REMARK   16  A    between atoms: C_18  and  C_19
REMARK                            x       y       z     vdW  Elec       q    Type
REMARK                         _______ _______ _______ _____ _____    ______ ____
ROOT
ATOM      1  C   LIG A   1      -0.930   0.420   0.950  0.00  0.00    +0.027 C 
ENDROOT
BRANCH   1   2
ATOM      2  C   LIG A   1      -1.923  -0.519   1.648  0.00  0.00    -0.031 C 
ATOM      3  C   LIG A   1      -2.049  -1.845   1.339  0.00  0.00    -0.027 C 
BRANCH   3   4
ATOM      4  C   LIG A   1      -1.456  -2.720   0.191  0.00  0.00    +0.054 C 
BRANCH   4   5
ATOM      5  C   LIG A   1       0.017  -2.602  -0.223  0.00  0.00    -0.027 C 
ATOM      6  C   LIG A   1       0.687  -2.818  -1.412  0.00  0.00    -0.031 C 
BRANCH   6   7
ATOM      7  C   LIG A   1       0.125  -3.088  -2.896  0.00  0.00    +0.027 C 
BRANCH   7   8
ATOM      8  C   LIG A   1       0.676  -3.917  -4.259  0.00  0.00    +0.004 C 
BRANCH   8   9
ATOM      9  C   LIG A   1      -0.428  -4.357  -5.491  0.00  0.00    +0.000 C 
BRANCH   9  10
ATOM     10  C   LIG A   1      -1.709  -5.236  -5.113  0.00  0.00    -0.003 C 
ATOM     11  C   LIG A   1      -2.568  -5.995  -6.189  0.00  0.00    +0.004 C 
ENDBRANCH   9  10
ENDBRANCH   8   9
ENDBRANCH   7   8
ENDBRANCH   6   7
ENDBRANCH   4   5
ENDBRANCH   3   4
ENDBRANCH   1   2
BRANCH   1  12
ATOM     12  C   LIG A   1      -0.549   2.091   1.122  0.00  0.00    +0.004 C 
BRANCH  12  13
ATOM     13  C   LIG A   1      -0.079   3.109   2.410  0.00  0.00    +0.000 C 
BRANCH  13  14
ATOM     14  C   LIG A   1       0.335   4.692   2.039  0.00  0.00    +0.000 C 
BRANCH  14  15
ATOM     15  C   LIG A   1       0.767   5.916   3.111  0.00  0.00    +0.000 C 
BRANCH  15  16
ATOM     16  C   LIG A   1       2.139   6.184   3.918  0.00  0.00    +0.011 C 
BRANCH  16  17
ATOM     17  C   LIG A   1       2.674   5.299   5.065  0.00  0.00    +0.120 C 
BRANCH  17  18
ATOM     18  C   LIG A   1       2.864   3.854   4.673  0.00  0.00    +0.305 C 
ATOM     19  O   LIG A   1       2.973   3.421   3.601  0.00  0.00    -0.251 OA
BRANCH  18  20
ATOM     20  O   LIG A   1       3.064   3.103   5.797  0.00  0.00    -0.481 OA
ATOM     21  H   LIG A   1       3.268   2.213   5.445  0.00  0.00    +0.295 HD
ENDBRANCH  18  20
ENDBRANCH  17  18
ENDBRANCH  16  17
ENDBRANCH  15  16
ENDBRANCH  14  15
ENDBRANCH  13  14
ENDBRANCH  12  13
ENDBRANCH   1  12
TORSDOF 15
