REMARK  Name = NuBBE_196
REMARK  5 active torsions:
REMARK  status: ('A' for Active; 'I' for Inactive)
REMARK    1  A    between atoms: O_1  and  C_2
REMARK    2  A    between atoms: C_2  and  C_3
REMARK    3  A    between atoms: C_5  and  O_6
REMARK    4  A    between atoms: O_6  and  C_7
REMARK    5  A    between atoms: C_8  and  O_9
REMARK                            x       y       z     vdW  Elec       q    Type
REMARK                         _______ _______ _______ _____ _____    ______ ____
ROOT
ATOM      1  C   LIG A   1      -0.043  -1.276   0.494  0.00  0.00    +0.062 A 
ATOM      2  C   LIG A   1      -0.338   0.099   0.511  0.00  0.00    +0.064 A 
ATOM      3  C   LIG A   1       0.127   0.924  -0.511  0.00  0.00    +0.162 A 
ATOM      4  C   LIG A   1       0.885   0.359  -1.544  0.00  0.00    +0.159 A 
ATOM      5  C   LIG A   1       1.184  -0.998  -1.573  0.00  0.00    +0.050 A 
ATOM      6  C   LIG A   1       0.718  -1.821  -0.549  0.00  0.00    +0.019 A 
ENDROOT
BRANCH   1   7
ATOM      7  C   LIG A   1      -0.561  -2.110   1.606  0.00  0.00    +0.337 C 
ATOM      8  O   LIG A   1      -1.226  -1.710   2.544  0.00  0.00    -0.245 OA
BRANCH   7   9
ATOM      9  O   LIG A   1      -0.223  -3.406   1.491  0.00  0.00    -0.477 OA
ATOM     10  H   LIG A   1      -0.625  -3.828   2.279  0.00  0.00    +0.295 HD
ENDBRANCH   7   9
ENDBRANCH   1   7
BRANCH   3  11
ATOM     11  O   LIG A   1      -0.084   2.275  -0.621  0.00  0.00    -0.491 OA
ATOM     12  C   LIG A   1      -0.853   2.885   0.410  0.00  0.00    +0.277 C 
ENDBRANCH   3  11
BRANCH   4  13
ATOM     13  O   LIG A   1       1.356   1.143  -2.561  0.00  0.00    -0.503 OA
ATOM     14  H   LIG A   1       1.041   2.045  -2.353  0.00  0.00    +0.292 HD
ENDBRANCH   4  13
TORSDOF 4
