@<TRIPOS>MOLECULE
NuBBE_1431
 81 85 0 0 0
SMALL
GASTEIGER

@<TRIPOS>ATOM
      1 O           1.5638   -0.6403   -4.2390 O.3     1  LIG1       -0.3912
      2 C           2.9086   -0.1281   -4.1307 C.3     1  LIG1        0.0607
      3 H           3.1974   -0.2444   -5.1805 H       1  LIG1        0.0599
      4 C           2.9046    1.3842   -3.7596 C.3     1  LIG1       -0.0256
      5 C           2.1294    1.6744   -2.4959 C.3     1  LIG1       -0.0413
      6 C           2.5820    0.8021   -1.2877 C.3     1  LIG1       -0.0073
      7 C           3.7582    1.4857   -0.5673 C.3     1  LIG1       -0.0556
      8 C           2.9043   -0.6408   -1.7986 C.3     1  LIG1       -0.0242
      9 C           3.0015   -1.6262   -0.6001 C.3     1  LIG1       -0.0451
     10 C           1.6620   -1.7132    0.0518 C.3     1  LIG1       -0.0306
     11 C           0.9804   -0.4243    0.3328 C.2     1  LIG1       -0.0633
     12 C           1.4201    0.7877   -0.2609 C.2     1  LIG1       -0.0636
     13 C           0.7808    2.0995    0.0204 C.3     1  LIG1       -0.0304
     14 C          -0.7230    2.0884    0.3108 C.3     1  LIG1       -0.0428
     15 C          -0.9849    1.1777    1.5499 C.3     1  LIG1       -0.0194
     16 C          -0.2998    2.2023    2.6544 C.3     1  LIG1       -0.0585
     17 C          -0.3634   -0.5314    0.9901 C.3     1  LIG1       -0.0051
     18 C          -1.0456   -1.4839   -0.3065 C.3     1  LIG1       -0.0553
     19 C          -0.6067   -1.7662    2.0045 C.3     1  LIG1       -0.0429
     20 C          -2.0706   -1.7618    2.4459 C.3     1  LIG1       -0.0465
     21 C          -2.6337   -0.3522    2.4448 C.3     1  LIG1       -0.0286
     22 C          -1.4100   -0.1195    3.7592 C.3     1  LIG1       -0.0593
     23 C          -2.5821    1.1169    2.3764 C.3     1  LIG1       -0.0289
     24 C          -4.2164    1.3610    1.9746 C.3     1  LIG1       -0.0440
     25 C          -5.2165   -0.0102    1.2857 C.3     1  LIG1       -0.0346
     26 C          -5.6203   -0.4006    2.7283 C.3     1  LIG1       -0.0598
     27 C          -5.0876   -1.6483    0.9135 C.3     1  LIG1       -0.0598
     28 C          -4.3071    0.1324    0.0847 C.3     1  LIG1       -0.0474
     29 C          -2.9118    0.0869    0.6332 C.3     1  LIG1       -0.0469
     30 C           3.8290   -0.9767   -3.1187 C.3     1  LIG1       -0.0053
     31 C           5.0443   -1.5983   -2.3185 C.3     1  LIG1       -0.0572
     32 C           5.1042   -0.3029   -3.9827 C.3     1  LIG1       -0.0572
     33 H           0.9483   -0.1166   -3.7003 H       1  LIG1        0.2098
     34 H           2.4785    1.9785   -4.5749 H       1  LIG1        0.0290
     35 H           3.9191    1.7694   -3.6041 H       1  LIG1        0.0290
     36 H           1.0553    1.5402   -2.6918 H       1  LIG1        0.0274
     37 H           2.2442    2.7463   -2.2834 H       1  LIG1        0.0274
     38 H           4.7107    1.2913   -1.0577 H       1  LIG1        0.0238
     39 H           3.8329    1.1627    0.4788 H       1  LIG1        0.0238
     40 H           3.6204    2.5751   -0.5349 H       1  LIG1        0.0238
     41 H           1.9275   -0.9788   -2.1703 H       1  LIG1        0.0315
     42 H           3.7627   -1.3427    0.1281 H       1  LIG1        0.0271
     43 H           3.1614   -2.6530   -0.9427 H       1  LIG1        0.0271
     44 H           1.7126   -2.3641    0.9439 H       1  LIG1        0.0310
     45 H           1.1014   -2.2949   -0.6962 H       1  LIG1        0.0310
     46 H           0.9073    2.8325   -0.7858 H       1  LIG1        0.0310
     47 H           1.3971    2.5481    0.8102 H       1  LIG1        0.0310
     48 H          -1.2164    1.7626   -0.6077 H       1  LIG1        0.0274
     49 H          -1.0736    3.1151    0.4882 H       1  LIG1        0.0274
     50 H           0.6618    2.6498    2.4322 H       1  LIG1        0.0235
     51 H          -0.2099    1.8921    3.6941 H       1  LIG1        0.0235
     52 H          -0.9792    3.0781    2.7196 H       1  LIG1        0.0235
     53 H          -0.9194   -1.0066   -1.2852 H       1  LIG1        0.0238
     54 H          -2.0840   -1.8239   -0.1656 H       1  LIG1        0.0238
     55 H          -0.6286   -2.4947   -0.3825 H       1  LIG1        0.0238
     56 H           0.1237   -1.8056    2.8171 H       1  LIG1        0.0274
     57 H          -0.4750   -2.7628    1.5578 H       1  LIG1        0.0274
     58 H          -2.1974   -2.2079    3.4520 H       1  LIG1        0.0271
     59 H          -2.6601   -2.5026    1.9180 H       1  LIG1        0.0271
     60 H          -1.6748    0.6277    4.5124 H       1  LIG1        0.0235
     61 H          -0.3780    0.0511    3.4061 H       1  LIG1        0.0235
     62 H          -1.2278   -0.9892    4.4088 H       1  LIG1        0.0235
     63 H          -2.5539    1.7126    3.2984 H       1  LIG1        0.0312
     64 H          -4.2925    2.2372    1.3069 H       1  LIG1        0.0273
     65 H          -4.7184    1.7255    2.8800 H       1  LIG1        0.0273
     66 H          -6.2657    0.3864    3.1269 H       1  LIG1        0.0235
     67 H          -4.7832   -0.5575    3.4144 H       1  LIG1        0.0235
     68 H          -6.2660   -1.2781    2.8334 H       1  LIG1        0.0235
     69 H          -5.4558   -1.8601   -0.1076 H       1  LIG1        0.0235
     70 H          -5.6941   -2.3568    1.4814 H       1  LIG1        0.0235
     71 H          -4.0796   -2.0466    0.9273 H       1  LIG1        0.0235
     72 H          -4.5211    1.0895   -0.4252 H       1  LIG1        0.0271
     73 H          -4.3611   -0.5224   -0.8019 H       1  LIG1        0.0271
     74 H          -2.7645    1.1673    0.4387 H       1  LIG1        0.0271
     75 H          -2.2574   -0.0657   -0.1869 H       1  LIG1        0.0271
     76 H           4.8079   -2.3926   -1.6168 H       1  LIG1        0.0236
     77 H           5.5672   -0.8417   -1.7100 H       1  LIG1        0.0236
     78 H           5.7621   -2.1773   -2.9115 H       1  LIG1        0.0236
     79 H           4.9115    0.2824   -4.8930 H       1  LIG1        0.0236
     80 H           5.6595   -1.1316   -4.4658 H       1  LIG1        0.0236
     81 H           5.7734    0.3224   -3.3868 H       1  LIG1        0.0236
@<TRIPOS>BOND
     1     2     4    1
     2     4     5    1
     3     5     6    1
     4     6     8    1
     5     8     9    1
     6     9    10    1
     7    10    11    1
     8    11    12    2
     9     6    12    1
    10    12    13    1
    11    13    14    1
    12    14    15    1
    13    15    17    1
    14    11    17    1
    15    17    19    1
    16    19    20    1
    17    20    21    1
    18    21    23    1
    19    15    23    1
    20    23    24    1
    21    24    25    1
    22    25    28    1
    23    28    29    1
    24    21    29    1
    25     8    30    1
    26     2    30    1
    27     1     2    1
    28     2     3    1
    29     6     7    1
    30    15    16    1
    31    17    18    1
    32    21    22    1
    33    25    26    1
    34    25    27    1
    35    30    31    1
    36    30    32    1
    37     1    33    1
    38     4    34    1
    39     4    35    1
    40     5    36    1
    41     5    37    1
    42     7    38    1
    43     7    39    1
    44     7    40    1
    45     8    41    1
    46     9    42    1
    47     9    43    1
    48    10    44    1
    49    10    45    1
    50    13    46    1
    51    13    47    1
    52    14    48    1
    53    14    49    1
    54    16    50    1
    55    16    51    1
    56    16    52    1
    57    18    53    1
    58    18    54    1
    59    18    55    1
    60    19    56    1
    61    19    57    1
    62    20    58    1
    63    20    59    1
    64    22    60    1
    65    22    61    1
    66    22    62    1
    67    23    63    1
    68    24    64    1
    69    24    65    1
    70    26    66    1
    71    26    67    1
    72    26    68    1
    73    27    69    1
    74    27    70    1
    75    27    71    1
    76    28    72    1
    77    28    73    1
    78    29    74    1
    79    29    75    1
    80    31    76    1
    81    31    77    1
    82    31    78    1
    83    32    79    1
    84    32    80    1
    85    32    81    1
