REMARK  Name = NuBBE_950
REMARK  8 active torsions:
REMARK  status: ('A' for Active; 'I' for Inactive)
REMARK    1  A    between atoms: O_1  and  C_2
REMARK    2  A    between atoms: C_2  and  C_3
REMARK    3  A    between atoms: C_3  and  C_4
REMARK    4  A    between atoms: C_4  and  C_5
REMARK    5  A    between atoms: C_6  and  C_7
REMARK    6  A    between atoms: C_7  and  C_8
REMARK    7  A    between atoms: C_8  and  C_9
REMARK    8  A    between atoms: C_9  and  C_10
REMARK                            x       y       z     vdW  Elec       q    Type
REMARK                         _______ _______ _______ _____ _____    ______ ____
ROOT
ATOM      1  C   LIG A   1       1.269   0.337  -1.018  0.00  0.00    +0.027 C 
ENDROOT
BRANCH   1   3
ATOM      2  C   LIG A   1       2.403   1.987   0.578  0.00  0.00    -0.031 C 
ATOM      3  C   LIG A   1       2.322   0.794  -0.037  0.00  0.00    -0.031 C 
BRANCH   2   4
ATOM      4  C   LIG A   1       1.442   3.135   0.420  0.00  0.00    +0.038 C 
BRANCH   4   5
ATOM      5  C   LIG A   1       1.322   3.976   1.690  0.00  0.00    +0.124 C 
BRANCH   5   6
ATOM      6  C   LIG A   1       0.354   5.112   1.483  0.00  0.00    +0.305 C 
ATOM      7  O   LIG A   1      -0.266   5.386   0.479  0.00  0.00    -0.251 OA
BRANCH   6   8
ATOM      8  O   LIG A   1       0.227   5.865   2.597  0.00  0.00    -0.481 OA
ATOM      9  H   LIG A   1      -0.416   6.559   2.337  0.00  0.00    +0.295 HD
ENDBRANCH   6   8
ENDBRANCH   5   6
ENDBRANCH   4   5
ENDBRANCH   2   4
ENDBRANCH   1   3
BRANCH   1  10
ATOM     10  C   LIG A   1       0.539  -0.914  -0.503  0.00  0.00    +0.009 C 
BRANCH  10  11
ATOM     11  C   LIG A   1      -0.561  -1.400  -1.458  0.00  0.00    +0.035 C 
BRANCH  11  12
ATOM     12  C   LIG A   1      -1.275  -2.648  -0.972  0.00  0.00    -0.047 A 
ATOM     13  C   LIG A   1      -2.423  -2.551  -0.172  0.00  0.00    +0.003 A 
ATOM     14  C   LIG A   1      -3.096  -3.701   0.259  0.00  0.00    +0.000 A 
ATOM     15  C   LIG A   1      -2.626  -4.963  -0.097  0.00  0.00    +0.000 A 
ATOM     16  C   LIG A   1      -1.484  -5.074  -0.888  0.00  0.00    +0.000 A 
ATOM     17  C   LIG A   1      -0.813  -3.925  -1.323  0.00  0.00    +0.003 A 
ENDBRANCH  11  12
ENDBRANCH  10  11
ENDBRANCH   1  10
TORSDOF 8
