REMARK  Name = NuBBE_2042
REMARK  13 active torsions:
REMARK  status: ('A' for Active; 'I' for Inactive)
REMARK    1  A    between atoms: O_1  and  C_2
REMARK    2  A    between atoms: O_1  and  C_3
REMARK    3  A    between atoms: C_4  and  C_6
REMARK    4  A    between atoms: C_7  and  C_21
REMARK    5  A    between atoms: C_13  and  O_20
REMARK    6  A    between atoms: C_15  and  C_17
REMARK    7  A    between atoms: C_17  and  C_18
REMARK    8  A    between atoms: C_23  and  O_24
REMARK    9  A    between atoms: O_24  and  C_25
REMARK   10  A    between atoms: C_26  and  O_31
REMARK   11  A    between atoms: C_27  and  O_29
REMARK   12  A    between atoms: O_29  and  C_30
REMARK   13  A    between atoms: O_31  and  C_32
REMARK                            x       y       z     vdW  Elec       q    Type
REMARK                         _______ _______ _______ _____ _____    ______ ____
ROOT
ATOM      1  C   LIG A   1      -0.234   1.804   1.946  0.00  0.00    +0.148 C 
ATOM      2  C   LIG A   1      -0.069   0.265   1.778  0.00  0.00    +0.037 C 
ATOM      3  C   LIG A   1       0.928  -0.385   2.741  0.00  0.00    +0.012 C 
ATOM      4  C   LIG A   1       0.378   0.044   0.296  0.00  0.00    +0.039 C 
ATOM      5  C   LIG A   1       0.371   1.419  -0.389  0.00  0.00    +0.099 C 
ATOM      6  C   LIG A   1      -0.597   2.141   0.500  0.00  0.00    +0.175 C 
ATOM      7  O   LIG A   1      -1.433   2.943   0.109  0.00  0.00    -0.294 OA
ATOM      8  C   LIG A   1       1.690   2.208  -0.227  0.00  0.00    +0.151 C 
ATOM      9  C   LIG A   1       1.979   2.777   1.153  0.00  0.00    -0.038 C 
ATOM     10  C   LIG A   1       1.060   2.572   2.145  0.00  0.00    +0.017 C 
ENDROOT
BRANCH   4  11
ATOM     11  C   LIG A   1      -0.457  -0.946  -0.517  0.00  0.00    -0.036 A 
ATOM     12  C   LIG A   1       0.194  -1.705  -1.497  0.00  0.00    +0.053 A 
ATOM     13  C   LIG A   1      -0.484  -2.688  -2.234  0.00  0.00    +0.165 A 
ATOM     14  C   LIG A   1      -1.855  -2.948  -1.995  0.00  0.00    +0.203 A 
ATOM     15  C   LIG A   1      -2.538  -2.140  -1.073  0.00  0.00    +0.165 A 
ATOM     16  C   LIG A   1      -1.842  -1.123  -0.378  0.00  0.00    +0.053 A 
BRANCH  13  17
ATOM     17  O   LIG A   1       0.123  -3.458  -3.202  0.00  0.00    -0.491 OA
ATOM     18  C   LIG A   1       1.478  -3.164  -3.521  0.00  0.00    +0.277 C 
ENDBRANCH  13  17
BRANCH  15  19
ATOM     19  O   LIG A   1      -3.878  -2.179  -0.785  0.00  0.00    -0.491 OA
ATOM     20  C   LIG A   1      -4.393  -3.429  -0.332  0.00  0.00    +0.277 C 
ENDBRANCH  15  19
BRANCH  14  21
ATOM     21  O   LIG A   1      -2.321  -4.098  -2.575  0.00  0.00    -0.488 OA
ATOM     22  C   LIG A   1      -3.568  -4.123  -3.247  0.00  0.00    +0.277 C 
ENDBRANCH  14  21
ENDBRANCH   4  11
BRANCH   1  23
ATOM     23  O   LIG A   1      -1.233   2.230   2.848  0.00  0.00    -0.365 OA
ATOM     24  C   LIG A   1      -1.123   1.743   4.174  0.00  0.00    +0.195 C 
ENDBRANCH   1  23
BRANCH   8  25
ATOM     25  O   LIG A   1       1.603   3.263  -1.177  0.00  0.00    -0.387 OA
ATOM     26  H   LIG A   1       1.129   4.003  -0.761  0.00  0.00    +0.210 HD
ENDBRANCH   8  25
BRANCH   9  27
ATOM     27  C   LIG A   1       3.281   3.485   1.496  0.00  0.00    +0.059 C 
BRANCH  27  28
ATOM     28  C   LIG A   1       3.971   4.298   0.435  0.00  0.00    -0.030 C 
ATOM     29  C   LIG A   1       4.309   3.931  -0.809  0.00  0.00    +0.004 C 
ENDBRANCH  27  28
ENDBRANCH   9  27
TORSDOF 8
