@<TRIPOS>MOLECULE
NuBBE_440
 31 33 0 0 0
SMALL
GASTEIGER

@<TRIPOS>ATOM
      1 H          -2.3359   -0.1889   -0.3787 H       1  LIG1        0.0358
      2 C          -1.2421   -0.3108   -0.4321 C.3     1  LIG1        0.0053
      3 C          -1.0286   -1.4556   -1.3990 C.2     1  LIG1       -0.0806
      4 C          -0.4510   -2.5314   -0.8080 C.2     1  LIG1       -0.0538
      5 C           0.1221   -2.1751    0.5222 C.3     1  LIG1        0.1154
      6 O           1.4915   -1.8571    0.2611 O.3     1  LIG1       -0.3818
      7 C          -0.8044   -1.0240    0.8004 C.3     1  LIG1        0.0519
      8 H          -1.7559   -1.4022    1.2319 H       1  LIG1        0.0388
      9 C          -0.0591   -0.3309    1.8680 C.3     1  LIG1        0.1686
     10 H           0.9786   -0.0466    1.6583 H       1  LIG1        0.0915
     11 O          -0.0198   -1.4214    2.8239 O.3     1  LIG1       -0.3476
     12 C           0.0740   -2.6773    1.9806 C.3     1  LIG1        0.0834
     13 O          -0.7979    0.8477    2.1188 O.3     1  LIG1       -0.3218
     14 C          -0.6724    1.7461    0.9924 C.3     1  LIG1        0.1726
     15 H           0.2396    2.3367    1.1407 H       1  LIG1        0.0917
     16 O          -1.7707    2.6434    1.0960 O.3     1  LIG1       -0.3661
     17 C          -0.7043    1.1189   -0.4457 C.3     1  LIG1        0.1137
     18 H          -1.3821    1.7037   -1.0852 H       1  LIG1        0.0470
     19 C           0.6551    1.2514   -1.0847 C.2     1  LIG1        0.3154
     20 O           0.7505    2.4260   -1.7659 O.3     1  LIG1       -0.4676
     21 C           1.9839    2.6064   -2.4658 C.3     1  LIG1        0.0817
     22 O           1.5478    0.4207   -1.0010 O.2     1  LIG1       -0.2503
     23 H          -1.4180   -1.4560   -2.4095 H       1  LIG1        0.0573
     24 H          -0.2491   -3.4692   -1.3076 H       1  LIG1        0.0598
     25 H           1.5494   -1.2115   -0.4742 H       1  LIG1        0.2107
     26 H          -0.8095   -3.2834    2.2065 H       1  LIG1        0.0593
     27 H           0.9816   -3.2016    2.2935 H       1  LIG1        0.0593
     28 H          -1.7560    2.9319    2.0258 H       1  LIG1        0.2125
     29 H           1.9004    3.5144   -3.0694 H       1  LIG1        0.0661
     30 H           2.1756    1.7637   -3.1379 H       1  LIG1        0.0661
     31 H           2.8065    2.7320   -1.7556 H       1  LIG1        0.0661
@<TRIPOS>BOND
     1     1     2    1
     2     2     3    1
     3     3     4    2
     4     4     5    1
     5     5     6    1
     6     2     7    1
     7     5     7    1
     8     7     8    1
     9     7     9    1
    10     9    10    1
    11     9    11    1
    12    11    12    1
    13     5    12    1
    14     9    13    1
    15    13    14    1
    16    14    17    1
    17    17    18    1
    18     2    17    1
    19    17    19    1
    20    19    20    1
    21    20    21    1
    22    19    22    2
    23    14    16    1
    24    14    15    1
    25     3    23    1
    26     4    24    1
    27     6    25    1
    28    12    26    1
    29    12    27    1
    30    16    28    1
    31    21    29    1
    32    21    30    1
    33    21    31    1
