@<TRIPOS>MOLECULE
NuBBE_2245
 49 51 0 0 0
SMALL
GASTEIGER

@<TRIPOS>ATOM
      1 C          -3.1553    1.6039   -2.3561 C.3     1  LIG1       -0.0557
      2 C          -1.6120    1.4996   -2.3839 C.3     1  LIG1       -0.0060
      3 C          -1.1736    0.7908   -3.6898 C.3     1  LIG1       -0.0557
      4 C          -1.0244    2.9322   -2.4943 C.3     1  LIG1       -0.0434
      5 C          -1.1867    3.7062   -1.2047 C.3     1  LIG1       -0.0483
      6 C          -0.3804    3.0296   -0.1137 C.3     1  LIG1       -0.0270
      7 C          -0.5062    1.5155   -0.0455 C.ar    1  LIG1       -0.0368
      8 C          -1.1098    0.7781   -1.1117 C.ar    1  LIG1        0.0068
      9 C          -1.2099   -0.6160   -0.9443 C.ar    1  LIG1        0.1635
     10 O          -1.8360   -1.4392   -1.8396 O.3     1  LIG1       -0.5031
     11 C          -0.6725   -1.2575    0.1776 C.ar    1  LIG1        0.1765
     12 O          -0.8379   -2.6385    0.2917 O.3     1  LIG1       -0.4218
     13 C           0.3858   -3.2129    0.0357 C.2     1  LIG1        0.3133
     14 C           1.1032   -3.5430    1.3238 C.3     1  LIG1        0.0544
     15 C           1.5943   -2.3223    2.1367 C.3     1  LIG1       -0.0002
     16 C           2.0846   -2.8731    3.4993 C.3     1  LIG1       -0.0553
     17 C           2.7817   -1.5720    1.5343 C.2     1  LIG1       -0.0844
     18 C           3.4174   -1.8128    0.3798 C.2     1  LIG1       -0.1021
     19 C           0.4211   -1.3365    2.4275 C.3     1  LIG1       -0.0145
     20 O           0.7645   -3.5819   -1.0697 O.2     1  LIG1       -0.2504
     21 C          -0.0666   -0.5533    1.2219 C.ar    1  LIG1        0.0026
     22 C           0.0446    0.8492    1.1011 C.ar    1  LIG1       -0.0401
     23 C           0.7123    1.6389    2.2079 C.3     1  LIG1       -0.0391
     24 H          -3.5202    2.2472   -3.1654 H       1  LIG1        0.0238
     25 H          -3.5203    2.0169   -1.4094 H       1  LIG1        0.0238
     26 H          -3.6472    0.6362   -2.4836 H       1  LIG1        0.0238
     27 H          -1.3775    1.4210   -4.5643 H       1  LIG1        0.0238
     28 H          -1.7004   -0.1489   -3.8717 H       1  LIG1        0.0238
     29 H          -0.0989    0.5743   -3.6799 H       1  LIG1        0.0238
     30 H          -1.5085    3.4841   -3.3104 H       1  LIG1        0.0274
     31 H           0.0443    2.8850   -2.7474 H       1  LIG1        0.0274
     32 H          -2.2408    3.7747   -0.9156 H       1  LIG1        0.0269
     33 H          -0.8343    4.7361   -1.3347 H       1  LIG1        0.0269
     34 H          -0.6961    3.4710    0.8392 H       1  LIG1        0.0313
     35 H           0.6797    3.2694   -0.2679 H       1  LIG1        0.0313
     36 H          -2.6091   -0.9820   -2.1949 H       1  LIG1        0.2923
     37 H           1.9429   -4.2070    1.0797 H       1  LIG1        0.0386
     38 H           0.4124   -4.1557    1.9194 H       1  LIG1        0.0386
     39 H           2.9049   -3.5890    3.3677 H       1  LIG1        0.0238
     40 H           1.2766   -3.3881    4.0322 H       1  LIG1        0.0238
     41 H           2.4479   -2.0713    4.1536 H       1  LIG1        0.0238
     42 H           3.1526   -0.7349    2.1279 H       1  LIG1        0.0572
     43 H           3.1448   -2.6127   -0.3007 H       1  LIG1        0.0532
     44 H           4.2508   -1.1867    0.0725 H       1  LIG1        0.0532
     45 H           0.7037   -0.6604    3.2416 H       1  LIG1        0.0323
     46 H          -0.4357   -1.8926    2.8360 H       1  LIG1        0.0323
     47 H           1.6193    1.1375    2.5576 H       1  LIG1        0.0278
     48 H           0.0180    1.7644    3.0445 H       1  LIG1        0.0278
     49 H           1.0530    2.6267    1.8901 H       1  LIG1        0.0278
@<TRIPOS>BOND
     1     1     2    1
     2     2     3    1
     3     2     4    1
     4     4     5    1
     5     5     6    1
     6     6     7    1
     7     7     8   ar
     8     2     8    1
     9     8     9   ar
    10     9    10    1
    11     9    11   ar
    12    11    12    1
    13    12    13    1
    14    13    14    1
    15    14    15    1
    16    15    16    1
    17    15    17    1
    18    17    18    2
    19    15    19    1
    20    13    20    2
    21    11    21   ar
    22    19    21    1
    23    21    22   ar
    24     7    22   ar
    25    22    23    1
    26     1    24    1
    27     1    25    1
    28     1    26    1
    29     3    27    1
    30     3    28    1
    31     3    29    1
    32     4    30    1
    33     4    31    1
    34     5    32    1
    35     5    33    1
    36     6    34    1
    37     6    35    1
    38    10    36    1
    39    14    37    1
    40    14    38    1
    41    16    39    1
    42    16    40    1
    43    16    41    1
    44    17    42    1
    45    18    43    1
    46    18    44    1
    47    19    45    1
    48    19    46    1
    49    23    47    1
    50    23    48    1
    51    23    49    1
