@<TRIPOS>MOLECULE
NuBBE_615
 48 50 0 0 0
SMALL
GASTEIGER

@<TRIPOS>ATOM
      1 C          -2.1745    1.6652   -2.5000 C.3     1  LIG1       -0.0595
      2 C          -1.0484    2.2149   -1.6158 C.3     1  LIG1       -0.0307
      3 C          -0.6400    3.5824   -2.2036 C.3     1  LIG1       -0.0595
      4 C          -1.5213    2.4408   -0.1128 C.3     1  LIG1       -0.0315
      5 C          -0.9712    1.2294    0.6381 C.3     1  LIG1        0.0715
      6 C          -2.0077    0.1093    0.5312 C.2     1  LIG1        0.3112
      7 O          -2.9494    0.1722    1.4953 O.3     1  LIG1       -0.4802
      8 O          -2.1097   -0.7546   -0.3237 O.2     1  LIG1       -0.2504
      9 C           0.3960    1.1501   -0.0371 C.3     1  LIG1       -0.0164
     10 C           0.2136    1.2763   -1.5252 C.3     1  LIG1       -0.0316
     11 H           1.0828    1.8253   -1.9180 H       1  LIG1        0.0309
     12 C           0.2662   -0.0868   -2.2080 C.3     1  LIG1       -0.0467
     13 C           1.4850   -0.8800   -1.7029 C.3     1  LIG1       -0.0202
     14 C           1.4701   -1.2124   -0.1801 C.3     1  LIG1        0.1030
     15 C           0.5787   -2.4619    0.0599 C.3     1  LIG1        0.1213
     16 O           0.4941   -2.8650    1.4383 O.3     1  LIG1       -0.4619
     17 C           1.5299   -3.5894    1.9329 C.2     1  LIG1        0.3040
     18 C           1.3131   -3.8849    3.3857 C.3     1  LIG1        0.0332
     19 O           2.4940   -3.9705    1.2824 O.2     1  LIG1       -0.2512
     20 O           2.8415   -1.5668    0.1319 O.3     1  LIG1       -0.3849
     21 C           1.2078    0.0752    0.6524 C.3     1  LIG1       -0.0048
     22 H           2.2038    0.5203    0.8107 H       1  LIG1        0.0333
     23 C           0.5573    0.0641    2.0646 C.3     1  LIG1       -0.0462
     24 C          -0.4582    1.2513    2.0822 C.3     1  LIG1       -0.0366
     25 H          -2.5565    0.7035   -2.1586 H       1  LIG1        0.0235
     26 H          -1.8337    1.5346   -3.5331 H       1  LIG1        0.0235
     27 H          -3.0257    2.3557   -2.5188 H       1  LIG1        0.0235
     28 H           0.1629    4.0467   -1.6201 H       1  LIG1        0.0235
     29 H          -1.4878    4.2768   -2.2125 H       1  LIG1        0.0235
     30 H          -0.2816    3.4756   -3.2339 H       1  LIG1        0.0235
     31 H          -2.6096    2.5435   -0.0438 H       1  LIG1        0.0281
     32 H          -1.0832    3.3612    0.2956 H       1  LIG1        0.0281
     33 H          -3.5483   -0.5770    1.2925 H       1  LIG1        0.2951
     34 H           0.9317    2.0849    0.2252 H       1  LIG1        0.0318
     35 H           0.3599    0.0602   -3.2908 H       1  LIG1        0.0269
     36 H          -0.6384   -0.6752   -2.0649 H       1  LIG1        0.0269
     37 H           2.3960   -0.3112   -1.9377 H       1  LIG1        0.0294
     38 H           1.5783   -1.8074   -2.2832 H       1  LIG1        0.0294
     39 H          -0.4405   -2.2974   -0.2814 H       1  LIG1        0.0727
     40 H           0.9486   -3.3131   -0.5282 H       1  LIG1        0.0727
     41 H           0.8217   -4.8541    3.4926 H       1  LIG1        0.0342
     42 H           0.6971   -3.1063    3.8463 H       1  LIG1        0.0342
     43 H           2.2771   -3.8898    3.9012 H       1  LIG1        0.0342
     44 H           2.9311   -2.5413    0.1758 H       1  LIG1        0.2103
     45 H           1.3074    0.1848    2.8532 H       1  LIG1        0.0269
     46 H           0.0022   -0.8484    2.2750 H       1  LIG1        0.0269
     47 H           0.0566    2.1908    2.3182 H       1  LIG1        0.0276
     48 H          -1.2190    1.0982    2.8531 H       1  LIG1        0.0276
@<TRIPOS>BOND
     1     2     4    1
     2     4     5    1
     3     6     7    1
     4     6     8    2
     5     5     9    1
     6     9    10    1
     7     2    10    1
     8    10    12    1
     9    12    13    1
    10    13    14    1
    11    15    16    1
    12    16    17    1
    13    17    18    1
    14    17    19    2
    15    14    21    1
    16     9    21    1
    17    21    23    1
    18    23    24    1
    19     5    24    1
    20     1     2    1
    21     2     3    1
    22     5     6    1
    23    10    11    1
    24    21    22    1
    25    14    20    1
    26    14    15    1
    27     1    25    1
    28     1    26    1
    29     1    27    1
    30     3    28    1
    31     3    29    1
    32     3    30    1
    33     4    31    1
    34     4    32    1
    35     7    33    1
    36     9    34    1
    37    12    35    1
    38    12    36    1
    39    13    37    1
    40    13    38    1
    41    15    39    1
    42    15    40    1
    43    18    41    1
    44    18    42    1
    45    18    43    1
    46    20    44    1
    47    23    45    1
    48    23    46    1
    49    24    47    1
    50    24    48    1
