@<TRIPOS>MOLECULE
NuBBE_1627
 42 41 0 0 0
SMALL
GASTEIGER

@<TRIPOS>ATOM
      1 C           1.1022   -0.0707   -0.4225 C.2     1  LIG1       -0.0849
      2 C           0.4376    1.0438   -0.7820 C.2     1  LIG1       -0.0762
      3 C           0.1842    2.2332    0.1192 C.3     1  LIG1       -0.0286
      4 C          -1.0839    2.0853    0.9783 C.3     1  LIG1       -0.0308
      5 C          -2.3566    1.9596    0.1774 C.2     1  LIG1       -0.0850
      6 C          -3.4262    2.7750    0.1993 C.2     1  LIG1       -0.0796
      7 C          -3.5381    3.9669    1.1047 C.3     1  LIG1       -0.0440
      8 C          -4.6053    2.5212   -0.7006 C.3     1  LIG1       -0.0440
      9 C          -0.0550    1.1584   -2.2074 C.3     1  LIG1       -0.0438
     10 C           1.8069   -0.4720    0.8264 C.3     1  LIG1       -0.0316
     11 C           1.8383   -2.0024    1.0515 C.3     1  LIG1       -0.0172
     12 C           2.6859   -2.8795    0.0724 C.3     1  LIG1        0.0814
     13 C           2.6953   -4.3527    0.4401 C.2     1  LIG1       -0.0602
     14 C           1.7417   -5.0371    1.0864 C.2     1  LIG1       -0.1000
     15 C           2.2915   -2.8217   -1.4052 C.3     1  LIG1       -0.0324
     16 O           4.0442   -2.4303    0.1467 O.3     1  LIG1       -0.3848
     17 H           1.1071   -0.8043   -1.2098 H       1  LIG1        0.0572
     18 H           0.1237    3.1387   -0.4926 H       1  LIG1        0.0313
     19 H           1.0457    2.3771    0.7802 H       1  LIG1        0.0313
     20 H          -1.1308    2.9459    1.6540 H       1  LIG1        0.0310
     21 H          -0.9956    1.1970    1.6121 H       1  LIG1        0.0310
     22 H          -2.3933    1.0890   -0.4759 H       1  LIG1        0.0572
     23 H          -3.4524    3.6613    2.1525 H       1  LIG1        0.0274
     24 H          -4.5092    4.4601    0.9906 H       1  LIG1        0.0274
     25 H          -2.7633    4.7050    0.8766 H       1  LIG1        0.0274
     26 H          -4.4315    1.6868   -1.3874 H       1  LIG1        0.0274
     27 H          -4.8149    3.4077   -1.3089 H       1  LIG1        0.0274
     28 H          -5.4937    2.2877   -0.1049 H       1  LIG1        0.0274
     29 H           0.0905    0.2285   -2.7702 H       1  LIG1        0.0274
     30 H           0.4969    1.9416   -2.7338 H       1  LIG1        0.0274
     31 H          -1.1197    1.3868   -2.2561 H       1  LIG1        0.0274
     32 H           1.3118   -0.0085    1.6947 H       1  LIG1        0.0308
     33 H           2.8388   -0.0915    0.8127 H       1  LIG1        0.0308
     34 H           0.8030   -2.3598    1.0886 H       1  LIG1        0.0299
     35 H           2.2567   -2.1505    2.0619 H       1  LIG1        0.0299
     36 H           3.5539   -4.9144    0.0713 H       1  LIG1        0.0594
     37 H           0.8235   -4.5770    1.4364 H       1  LIG1        0.0533
     38 H           1.8444   -6.1068    1.2453 H       1  LIG1        0.0533
     39 H           1.2283   -3.0506   -1.5471 H       1  LIG1        0.0260
     40 H           2.8704   -3.5305   -2.0092 H       1  LIG1        0.0260
     41 H           2.5409   -1.8586   -1.8587 H       1  LIG1        0.0260
     42 H           4.4059   -2.7375    0.9935 H       1  LIG1        0.2106
@<TRIPOS>BOND
     1     1     2    2
     2     2     3    1
     3     3     4    1
     4     4     5    1
     5     5     6    2
     6     6     7    1
     7     6     8    1
     8     2     9    1
     9     1    10    1
    10    10    11    1
    11    11    12    1
    12    12    13    1
    13    13    14    2
    14    12    15    1
    15    12    16    1
    16     1    17    1
    17     3    18    1
    18     3    19    1
    19     4    20    1
    20     4    21    1
    21     5    22    1
    22     7    23    1
    23     7    24    1
    24     7    25    1
    25     8    26    1
    26     8    27    1
    27     8    28    1
    28     9    29    1
    29     9    30    1
    30     9    31    1
    31    10    32    1
    32    10    33    1
    33    11    34    1
    34    11    35    1
    35    13    36    1
    36    14    37    1
    37    14    38    1
    38    15    39    1
    39    15    40    1
    40    15    41    1
    41    16    42    1
