@<TRIPOS>MOLECULE
NuBBE_1794
 61 61 0 0 0
SMALL
GASTEIGER

@<TRIPOS>ATOM
      1 C           0.6422    4.5232   -6.0044 C.2     1  LIG1       -0.1026
      2 C           0.7646    4.2463   -4.7032 C.2     1  LIG1       -0.0911
      3 C          -0.1964    4.7018   -3.6421 C.3     1  LIG1       -0.0350
      4 C          -1.5766    4.0497   -3.7217 C.3     1  LIG1       -0.0496
      5 C          -2.5973    4.5402   -2.6805 C.3     1  LIG1       -0.0528
      6 C          -2.4176    4.0329   -1.2418 C.3     1  LIG1       -0.0530
      7 C          -1.1732    4.5500   -0.5210 C.3     1  LIG1       -0.0531
      8 C          -1.0181    4.0634    0.9177 C.3     1  LIG1       -0.0529
      9 C          -0.8904    2.5407    1.0655 C.3     1  LIG1       -0.0497
     10 C           0.3231    1.9334    0.3391 C.3     1  LIG1       -0.0156
     11 C           0.4275    0.4219    0.5683 C.3     1  LIG1        0.1038
     12 C           1.6523   -0.1977   -0.0844 C.3     1  LIG1       -0.0026
     13 C           1.9640   -1.3878    0.8127 C.3     1  LIG1        0.0632
     14 C           1.2560   -2.6721    0.3440 C.3     1  LIG1        0.0006
     15 C           1.4565   -3.8859    1.2822 C.3     1  LIG1        0.1377
     16 O           0.8357   -3.6069    2.5464 O.3     1  LIG1       -0.4581
     17 C          -0.5145   -3.6158    2.6644 C.2     1  LIG1        0.3043
     18 C          -0.9201   -3.6426    4.1062 C.3     1  LIG1        0.0332
     19 O          -1.3066   -3.6575    1.7333 O.2     1  LIG1       -0.2512
     20 C           0.9813   -5.2202    0.6575 C.3     1  LIG1        0.1293
     21 O           1.2763   -6.4761    1.3320 O.3     1  LIG1       -0.4611
     22 C           1.0358   -6.6882    2.6527 C.2     1  LIG1        0.3041
     23 C           0.7957   -8.1389    2.9305 C.3     1  LIG1        0.0332
     24 O           0.9924   -5.8604    3.5407 O.2     1  LIG1       -0.2512
     25 C           1.5020   -0.8352    2.1457 C.2     1  LIG1        0.3107
     26 O           0.5863    0.1546    1.9612 O.3     1  LIG1       -0.4611
     27 O           1.9034   -1.1845    3.2411 O.2     1  LIG1       -0.2505
     28 H           1.3916    4.1786   -6.7123 H       1  LIG1        0.0532
     29 H          -0.1950    5.0956   -6.3876 H       1  LIG1        0.0532
     30 H           1.6269    3.6842   -4.3625 H       1  LIG1        0.0566
     31 H          -0.2811    5.7978   -3.6486 H       1  LIG1        0.0307
     32 H           0.3060    4.4421   -2.7222 H       1  LIG1        0.0307
     33 H          -1.4884    2.9565   -3.6636 H       1  LIG1        0.0268
     34 H          -2.0048    4.2695   -4.7119 H       1  LIG1        0.0268
     35 H          -3.5839    4.1829   -3.0127 H       1  LIG1        0.0265
     36 H          -2.6556    5.6339   -2.6932 H       1  LIG1        0.0265
     37 H          -2.4290    2.9381   -1.2558 H       1  LIG1        0.0265
     38 H          -3.2986    4.3460   -0.6651 H       1  LIG1        0.0265
     39 H          -1.1672    5.6461   -0.5411 H       1  LIG1        0.0265
     40 H          -0.2750    4.2204   -1.0260 H       1  LIG1        0.0265
     41 H          -1.8644    4.4187    1.5157 H       1  LIG1        0.0265
     42 H          -0.1185    4.5324    1.3376 H       1  LIG1        0.0265
     43 H          -1.8069    2.0547    0.7145 H       1  LIG1        0.0266
     44 H          -0.8153    2.3217    2.1370 H       1  LIG1        0.0266
     45 H           1.2298    2.4267    0.7129 H       1  LIG1        0.0301
     46 H           0.2646    2.1192   -0.7387 H       1  LIG1        0.0301
     47 H          -0.4905   -0.0723    0.2292 H       1  LIG1        0.0734
     48 H           2.4979    0.5016   -0.0515 H       1  LIG1        0.0309
     49 H           1.4841   -0.4609   -1.1332 H       1  LIG1        0.0309
     50 H           3.0481   -1.5455    0.8501 H       1  LIG1        0.0416
     51 H           1.6356   -2.9238   -0.6546 H       1  LIG1        0.0310
     52 H           0.1869   -2.4680    0.2230 H       1  LIG1        0.0310
     53 H           2.5293   -3.9924    1.4925 H       1  LIG1        0.0768
     54 H          -1.3577   -4.6214    4.3257 H       1  LIG1        0.0342
     55 H          -1.6395   -2.8466    4.2962 H       1  LIG1        0.0342
     56 H          -0.0524   -3.4957    4.7558 H       1  LIG1        0.0342
     57 H           1.4744   -5.3217   -0.3193 H       1  LIG1        0.0735
     58 H          -0.0908   -5.2281    0.4461 H       1  LIG1        0.0735
     59 H           0.5593   -8.6869    2.0140 H       1  LIG1        0.0342
     60 H          -0.0759   -8.2188    3.5930 H       1  LIG1        0.0342
     61 H           1.6716   -8.5728    3.4147 H       1  LIG1        0.0342
@<TRIPOS>BOND
     1     1     2    2
     2     2     3    1
     3     3     4    1
     4     4     5    1
     5     5     6    1
     6     6     7    1
     7     7     8    1
     8     8     9    1
     9     9    10    1
    10    10    11    1
    11    11    12    1
    12    12    13    1
    13    13    14    1
    14    14    15    1
    15    15    16    1
    16    16    17    1
    17    17    18    1
    18    17    19    2
    19    15    20    1
    20    20    21    1
    21    21    22    1
    22    22    23    1
    23    22    24    2
    24    13    25    1
    25    25    26    1
    26    11    26    1
    27    25    27    2
    28     1    28    1
    29     1    29    1
    30     2    30    1
    31     3    31    1
    32     3    32    1
    33     4    33    1
    34     4    34    1
    35     5    35    1
    36     5    36    1
    37     6    37    1
    38     6    38    1
    39     7    39    1
    40     7    40    1
    41     8    41    1
    42     8    42    1
    43     9    43    1
    44     9    44    1
    45    10    45    1
    46    10    46    1
    47    11    47    1
    48    12    48    1
    49    12    49    1
    50    13    50    1
    51    14    51    1
    52    14    52    1
    53    15    53    1
    54    18    54    1
    55    18    55    1
    56    18    56    1
    57    20    57    1
    58    20    58    1
    59    23    59    1
    60    23    60    1
    61    23    61    1
