REMARK  Name = NuBBE_1102
REMARK  1 active torsions:
REMARK  status: ('A' for Active; 'I' for Inactive)
REMARK    1  A    between atoms: N_5  and  C_15
REMARK                            x       y       z     vdW  Elec       q    Type
REMARK                         _______ _______ _______ _____ _____    ______ ____
ROOT
ATOM      1  O   LIG A   1      -3.425  -0.747   0.009  0.00  0.00    -0.286 OA
ATOM      2  C   LIG A   1      -2.201  -0.803   0.009  0.00  0.00    +0.200 A 
ATOM      3  C   LIG A   1      -1.476  -2.048   0.007  0.00  0.00    +0.085 A 
ATOM      4  C   LIG A   1      -0.104  -2.035   0.007  0.00  0.00    +0.212 A 
ATOM      5  N   LIG A   1       0.690  -0.942   0.008  0.00  0.00    -0.311 N 
ATOM      6  C   LIG A   1       0.073   0.330   0.007  0.00  0.00    +0.101 A 
ATOM      7  C   LIG A   1      -1.354   0.437   0.009  0.00  0.00    +0.050 A 
ATOM      8  C   LIG A   1      -2.012   1.687   0.008  0.00  0.00    +0.017 A 
ATOM      9  C   LIG A   1      -1.276   2.869   0.005  0.00  0.00    +0.050 A 
ATOM     10  C   LIG A   1       0.098   2.763   0.001  0.00  0.00    +0.168 A 
ATOM     11  C   LIG A   1       0.755   1.545   0.003  0.00  0.00    +0.190 A 
ATOM     12  O   LIG A   1       2.110   1.724  -0.001  0.00  0.00    -0.451 OA
ATOM     13  C   LIG A   1       2.222   3.158  -0.027  0.00  0.00    +0.466 C 
ATOM     14  O   LIG A   1       0.950   3.826  -0.005  0.00  0.00    -0.453 OA
ATOM     15  C   LIG A   1       2.139  -1.078   0.007  0.00  0.00    +0.152 C 
ATOM     16  O   LIG A   1       0.389  -3.298   0.004  0.00  0.00    -0.447 OA
ATOM     17  C   LIG A   1      -0.692  -4.130   0.003  0.00  0.00    +0.198 A 
ATOM     18  C   LIG A   1      -1.865  -3.406   0.005  0.00  0.00    +0.055 A 
ENDROOT
TORSDOF 0
