@<TRIPOS>MOLECULE
NuBBE_1718
 66 69 0 0 0
SMALL
GASTEIGER

@<TRIPOS>ATOM
      1 O           1.2318    1.4020   -1.7830 O.3     1  LIG1       -0.4575
      2 C           2.5489    1.1644   -1.5243 C.2     1  LIG1        0.3043
      3 O           2.9741    0.4426   -0.6368 O.2     1  LIG1       -0.2512
      4 C           3.4233    1.9244   -2.4727 C.3     1  LIG1        0.0332
      5 C           0.2146    0.7093   -0.9916 C.3     1  LIG1        0.1441
      6 H          -0.7080    1.0629   -1.4614 H       1  LIG1        0.0775
      7 C           0.1515    1.2302    0.4737 C.3     1  LIG1        0.0205
      8 H           1.1526    1.1717    0.9080 H       1  LIG1        0.0352
      9 C          -0.8105    0.3063    1.3230 C.3     1  LIG1       -0.0210
     10 H          -1.7877    0.3126    0.8155 H       1  LIG1        0.0314
     11 C          -0.2651   -1.1810    1.3363 C.3     1  LIG1       -0.0216
     12 C          -0.3493   -1.7444   -0.1280 C.3     1  LIG1        0.0105
     13 H          -1.4119   -1.6801   -0.3735 H       1  LIG1        0.0348
     14 C           0.2902   -0.8421   -1.2202 C.3     1  LIG1        0.1438
     15 H           1.3328   -1.1485   -1.3310 H       1  LIG1        0.0775
     16 O          -0.2930   -1.1438   -2.5508 O.3     1  LIG1       -0.4575
     17 C          -1.6266   -0.9457   -2.7789 C.2     1  LIG1        0.3043
     18 O          -2.4297   -0.4970   -1.9705 O.2     1  LIG1       -0.2512
     19 C          -2.0305   -1.3947   -4.1514 C.3     1  LIG1        0.0332
     20 C          -0.0856   -3.3126   -0.1820 C.3     1  LIG1       -0.0281
     21 C           0.0764   -3.8870   -1.6038 C.3     1  LIG1       -0.0594
     22 C           1.1752   -3.8010    0.5716 C.3     1  LIG1       -0.0594
     23 C          -1.3265   -3.9842    0.4809 C.3     1  LIG1       -0.0475
     24 C          -2.0417   -3.1032    1.5169 C.3     1  LIG1       -0.0520
     25 C          -1.1217   -2.1267    2.2593 C.3     1  LIG1       -0.0469
     26 C           1.1989   -1.1326    1.8745 C.3     1  LIG1       -0.0589
     27 C          -1.0702    0.8321    2.7680 C.3     1  LIG1        0.0095
     28 C          -1.1097    2.2981    2.8034 C.ar    1  LIG1        0.1091
     29 C          -0.7451    3.1952    1.8352 C.ar    1  LIG1        0.0076
     30 C          -0.2253    2.7677    0.5039 C.3     1  LIG1        0.0911
     31 H          -1.0246    2.9350   -0.2333 H       1  LIG1        0.0467
     32 C           0.9691    3.6398    0.1084 C.2     1  LIG1        0.3148
     33 O           2.1440    3.4352    0.4051 O.2     1  LIG1       -0.2502
     34 O           0.5388    4.6221   -0.7320 O.3     1  LIG1       -0.4675
     35 C           1.4940    5.1106   -1.6719 C.3     1  LIG1        0.0817
     36 C          -1.0197    4.4734    2.3891 C.ar    1  LIG1       -0.0197
     37 C          -1.4832    4.2480    3.6680 C.ar    1  LIG1        0.0924
     38 O          -1.5451    2.9152    3.9250 O.2     1  LIG1       -0.4675
     39 H           3.4457    2.9827   -2.2130 H       1  LIG1        0.0342
     40 H           3.0657    1.7908   -3.4958 H       1  LIG1        0.0342
     41 H           4.4433    1.5335   -2.4141 H       1  LIG1        0.0342
     42 H          -1.2158   -1.2523   -4.8642 H       1  LIG1        0.0342
     43 H          -2.8752   -0.7829   -4.4865 H       1  LIG1        0.0342
     44 H          -2.3346   -2.4441   -4.1268 H       1  LIG1        0.0342
     45 H           0.1362   -4.9835   -1.5708 H       1  LIG1        0.0235
     46 H           1.0029   -3.5353   -2.0723 H       1  LIG1        0.0235
     47 H          -0.7667   -3.6405   -2.2516 H       1  LIG1        0.0235
     48 H           2.0618   -3.2217    0.2989 H       1  LIG1        0.0235
     49 H           1.3977   -4.8502    0.3395 H       1  LIG1        0.0235
     50 H           1.0468   -3.7902    1.6556 H       1  LIG1        0.0235
     51 H          -1.0417   -4.9354    0.9477 H       1  LIG1        0.0271
     52 H          -2.0661   -4.2448   -0.2886 H       1  LIG1        0.0271
     53 H          -2.5573   -3.7470    2.2390 H       1  LIG1        0.0266
     54 H          -2.8369   -2.5321    1.0184 H       1  LIG1        0.0266
     55 H          -0.4727   -2.7217    2.9107 H       1  LIG1        0.0271
     56 H          -1.7525   -1.5615    2.9470 H       1  LIG1        0.0271
     57 H           1.3911   -0.2708    2.5195 H       1  LIG1        0.0235
     58 H           1.9242   -1.0771    1.0597 H       1  LIG1        0.0235
     59 H           1.4668   -1.9913    2.4921 H       1  LIG1        0.0235
     60 H          -0.3101    0.4862    3.4738 H       1  LIG1        0.0347
     61 H          -2.0367    0.4599    3.1256 H       1  LIG1        0.0347
     62 H           1.1863    4.7287   -2.6496 H       1  LIG1        0.0661
     63 H           2.5187    4.7914   -1.4718 H       1  LIG1        0.0661
     64 H           1.4637    6.2019   -1.6977 H       1  LIG1        0.0661
     65 H          -0.8895    5.4431    1.9292 H       1  LIG1        0.0652
     66 H          -1.8006    4.8899    4.4778 H       1  LIG1        0.1029
@<TRIPOS>BOND
     1     1     2    1
     2     2     3    2
     3     2     4    1
     4     5     7    1
     5     7     8    1
     6     7     9    1
     7     9    10    1
     8     9    11    1
     9    11    12    1
    10    12    13    1
    11    12    14    1
    12    14    15    1
    13     5    14    1
    14    14    16    1
    15    16    17    1
    16    17    18    2
    17    17    19    1
    18    12    20    1
    19    20    21    1
    20    20    22    1
    21    20    23    1
    22    23    24    1
    23    24    25    1
    24    11    25    1
    25    11    26    1
    26     9    27    1
    27    27    28    1
    28    28    29   ar
    29    29    30    1
    30     7    30    1
    31    32    33    2
    32    32    34    1
    33    34    35    1
    34    29    36   ar
    35    36    37   ar
    36    37    38   ar
    37    28    38   ar
    38     5     6    1
    39     5     1    1
    40    30    32    1
    41    30    31    1
    42     4    39    1
    43     4    40    1
    44     4    41    1
    45    19    42    1
    46    19    43    1
    47    19    44    1
    48    21    45    1
    49    21    46    1
    50    21    47    1
    51    22    48    1
    52    22    49    1
    53    22    50    1
    54    23    51    1
    55    23    52    1
    56    24    53    1
    57    24    54    1
    58    25    55    1
    59    25    56    1
    60    26    57    1
    61    26    58    1
    62    26    59    1
    63    27    60    1
    64    27    61    1
    65    35    62    1
    66    35    63    1
    67    35    64    1
    68    36    65    1
    69    37    66    1
