@<TRIPOS>MOLECULE
NuBBE_1150
 82 86 0 0 0
SMALL
GASTEIGER

@<TRIPOS>ATOM
      1 C          -4.6404   -1.2918    0.7068 C.3     1  LIG1       -0.0587
      2 C          -3.4034   -1.0467    1.6393 C.3     1  LIG1       -0.0212
      3 C          -2.2265   -0.5802    0.6882 C.3     1  LIG1       -0.0136
      4 H          -2.7281   -0.0272   -0.1199 H       1  LIG1        0.0351
      5 C          -1.4808   -1.7184   -0.0197 C.2     1  LIG1       -0.0634
      6 C          -0.5070   -1.2660   -1.1489 C.3     1  LIG1       -0.0051
      7 C           0.3463    0.0233   -0.7162 C.3     1  LIG1       -0.0198
      8 C          -0.1312    1.3042   -1.4163 C.3     1  LIG1       -0.0585
      9 C           1.8784   -0.3691   -0.8685 C.3     1  LIG1       -0.0298
     10 H           2.3971   -0.0747    0.0567 H       1  LIG1        0.0310
     11 C           2.8502    0.1656   -1.9783 C.3     1  LIG1       -0.0116
     12 H           3.7794   -0.4080   -1.8335 H       1  LIG1        0.0327
     13 C           2.4274   -0.1275   -3.4164 C.3     1  LIG1       -0.0597
     14 C           3.2775    1.6353   -1.7313 C.3     1  LIG1        0.0906
     15 O           2.2417    2.5607   -2.0452 O.3     1  LIG1       -0.3651
     16 C           2.8276    3.8672   -2.2350 C.3     1  LIG1        0.0927
     17 C           2.2377    4.3971   -3.5416 C.3     1  LIG1       -0.0335
     18 C           2.3914    4.7448   -1.0611 C.3     1  LIG1       -0.0335
     19 C           4.4691    2.1452   -2.5470 C.3     1  LIG1        0.1100
     20 H           4.3509    1.9313   -3.6131 H       1  LIG1        0.0646
     21 O           5.7222    1.6360   -2.1078 O.3     1  LIG1       -0.3866
     22 C           4.3556    3.6547   -2.3349 C.3     1  LIG1        0.1118
     23 H           4.8103    4.2310   -3.1473 H       1  LIG1        0.0649
     24 O           5.0495    4.0060   -1.1292 O.3     1  LIG1       -0.3863
     25 C           1.8428   -1.9066   -0.8188 C.3     1  LIG1       -0.0486
     26 C           0.5803   -2.2991   -1.5535 C.3     1  LIG1       -0.0431
     27 C           0.1801    0.2923    0.8134 C.3     1  LIG1       -0.0460
     28 C          -1.2555    0.4512    1.2821 C.3     1  LIG1       -0.0455
     29 C          -1.3836   -1.0619   -2.4128 C.3     1  LIG1       -0.0553
     30 C          -1.7295   -3.0056    0.2978 C.2     1  LIG1       -0.0836
     31 C          -2.6802   -3.4724    1.3614 C.3     1  LIG1       -0.0302
     32 C          -3.0730   -2.3850    2.3815 C.3     1  LIG1       -0.0198
     33 H          -4.0315   -2.7233    2.8059 H       1  LIG1        0.0318
     34 C          -2.0908   -2.2861    3.6095 C.3     1  LIG1        0.0270
     35 C          -0.6334   -2.7012    3.3230 C.3     1  LIG1       -0.0528
     36 C          -2.0836   -0.8781    4.2073 C.2     1  LIG1        0.1392
     37 C          -3.3322   -0.0494    4.0644 C.3     1  LIG1        0.0069
     38 C          -3.8702    0.0416    2.6438 C.3     1  LIG1       -0.0401
     39 O          -1.1493   -0.4618    4.8915 O.2     1  LIG1       -0.2968
     40 C          -2.6020   -3.2163    4.7342 C.3     1  LIG1       -0.0528
     41 H          -4.4126   -1.9496   -0.1374 H       1  LIG1        0.0235
     42 H          -5.0021   -0.3460    0.2849 H       1  LIG1        0.0235
     43 H          -5.4722   -1.7411    1.2620 H       1  LIG1        0.0235
     44 H           0.1072    1.3235   -2.4792 H       1  LIG1        0.0235
     45 H           0.2821    2.1969   -0.9394 H       1  LIG1        0.0235
     46 H          -1.2166    1.4286   -1.3427 H       1  LIG1        0.0235
     47 H           3.1839    0.2139   -4.1289 H       1  LIG1        0.0233
     48 H           1.4843    0.3432   -3.6898 H       1  LIG1        0.0233
     49 H           2.3400   -1.2038   -3.5847 H       1  LIG1        0.0233
     50 H           3.5111    1.7388   -0.6620 H       1  LIG1        0.0626
     51 H           1.1429    4.4344   -3.4852 H       1  LIG1        0.0258
     52 H           2.4774    3.7317   -4.3786 H       1  LIG1        0.0258
     53 H           2.6077    5.4005   -3.7725 H       1  LIG1        0.0258
     54 H           1.2983    4.8189   -1.0163 H       1  LIG1        0.0258
     55 H           2.8047    5.7551   -1.1371 H       1  LIG1        0.0258
     56 H           2.6979    4.3079   -0.1036 H       1  LIG1        0.0258
     57 H           5.7680    1.8111   -1.1488 H       1  LIG1        0.2100
     58 H           5.9991    3.9781   -1.3505 H       1  LIG1        0.2100
     59 H           1.7784   -2.2488    0.2217 H       1  LIG1        0.0268
     60 H           2.7293   -2.3757   -1.2565 H       1  LIG1        0.0268
     61 H           0.3324   -3.3429   -1.3572 H       1  LIG1        0.0274
     62 H           0.7652   -2.2564   -2.6320 H       1  LIG1        0.0274
     63 H           0.7406    1.1934    1.0997 H       1  LIG1        0.0271
     64 H           0.6389   -0.5198    1.3878 H       1  LIG1        0.0271
     65 H          -1.6107    1.4568    1.0188 H       1  LIG1        0.0271
     66 H          -1.2353    0.4412    2.3681 H       1  LIG1        0.0271
     67 H          -2.1999   -0.3497   -2.2570 H       1  LIG1        0.0238
     68 H          -1.8454   -2.0078   -2.7228 H       1  LIG1        0.0238
     69 H          -0.7924   -0.7021   -3.2622 H       1  LIG1        0.0238
     70 H          -1.2614   -3.8176   -0.2480 H       1  LIG1        0.0572
     71 H          -2.2659   -4.3487    1.8710 H       1  LIG1        0.0311
     72 H          -3.5805   -3.8473    0.8576 H       1  LIG1        0.0311
     73 H          -0.1863   -2.0959    2.5368 H       1  LIG1        0.0239
     74 H          -0.5474   -3.7544    3.0380 H       1  LIG1        0.0239
     75 H           0.0023   -2.5768    4.2083 H       1  LIG1        0.0239
     76 H          -3.1236    0.9617    4.4341 H       1  LIG1        0.0342
     77 H          -4.0870   -0.4803    4.7314 H       1  LIG1        0.0342
     78 H          -3.6716    1.0404    2.2354 H       1  LIG1        0.0275
     79 H          -4.9650    0.0139    2.7415 H       1  LIG1        0.0275
     80 H          -3.6061   -2.9289    5.0670 H       1  LIG1        0.0239
     81 H          -1.9516   -3.1686    5.6161 H       1  LIG1        0.0239
     82 H          -2.6414   -4.2589    4.4014 H       1  LIG1        0.0239
@<TRIPOS>BOND
     1     2     3    1
     2     3     5    1
     3     5     6    1
     4     6     7    1
     5     7     9    1
     6    11    12    1
     7    11    13    1
     8    11    14    1
     9    14    15    1
    10    15    16    1
    11    16    17    1
    12    16    18    1
    13    14    19    1
    14    19    22    1
    15    22    23    1
    16    16    22    1
    17    22    24    1
    18     9    25    1
    19    25    26    1
    20     7    27    1
    21    27    28    1
    22     3    28    1
    23    26     6    1
    24     5    30    2
    25    30    31    1
    26    31    32    1
    27     2    32    1
    28    32    34    1
    29    34    36    1
    30    36    37    1
    31    37    38    1
    32     2    38    1
    33     1     2    1
    34     3     4    1
    35     6    29    1
    36     7     8    1
    37     9    10    1
    38     9    11    1
    39    32    33    1
    40    34    35    1
    41    34    40    1
    42    36    39    2
    43    19    21    1
    44    19    20    1
    45     1    41    1
    46     1    42    1
    47     1    43    1
    48     8    44    1
    49     8    45    1
    50     8    46    1
    51    13    47    1
    52    13    48    1
    53    13    49    1
    54    14    50    1
    55    17    51    1
    56    17    52    1
    57    17    53    1
    58    18    54    1
    59    18    55    1
    60    18    56    1
    61    21    57    1
    62    24    58    1
    63    25    59    1
    64    25    60    1
    65    26    61    1
    66    26    62    1
    67    27    63    1
    68    27    64    1
    69    28    65    1
    70    28    66    1
    71    29    67    1
    72    29    68    1
    73    29    69    1
    74    30    70    1
    75    31    71    1
    76    31    72    1
    77    35    73    1
    78    35    74    1
    79    35    75    1
    80    37    76    1
    81    37    77    1
    82    38    78    1
    83    38    79    1
    84    40    80    1
    85    40    81    1
    86    40    82    1
