@<TRIPOS>MOLECULE
NuBBE_1822
 44 45 0 0 0
SMALL
GASTEIGER

@<TRIPOS>ATOM
      1 O          -3.8612   -0.0139    3.1892 O.2     1  LIG1       -0.2922
      2 C          -2.6481    0.1989    3.0967 C.2     1  LIG1        0.1639
      3 C          -1.9951    0.9501    4.2372 C.3     1  LIG1       -0.0013
      4 C          -1.8880   -0.3439    1.8839 C.ar    1  LIG1        0.0631
      5 C          -2.3734   -1.5529    1.3273 C.ar    1  LIG1       -0.0359
      6 C          -3.5490   -2.3346    1.8633 C.3     1  LIG1       -0.0389
      7 C          -1.7767   -2.1009    0.1792 C.ar    1  LIG1       -0.0500
      8 C          -0.6916   -1.5250   -0.4672 C.ar    1  LIG1       -0.0071
      9 C          -0.2330   -2.1943   -1.6227 C.ar    1  LIG1       -0.0112
     10 C           0.8597   -1.7333   -2.3296 C.ar    1  LIG1        0.1357
     11 O           1.1106   -2.2961   -3.5907 O.3     1  LIG1       -0.4259
     12 C           2.3974   -2.4041   -4.1141 C.2     1  LIG1        0.3092
     13 C           2.3237   -2.4825   -5.6160 C.3     1  LIG1        0.0336
     14 O           3.4473   -2.3892   -3.4635 O.2     1  LIG1       -0.2507
     15 C           1.5188   -0.6134   -1.8768 C.ar    1  LIG1        0.0240
     16 C           1.0236    0.1075   -0.7598 C.ar    1  LIG1        0.1463
     17 O           1.7502    1.2597   -0.3453 O.3     1  LIG1       -0.4252
     18 C           2.5619    1.9439   -1.2732 C.2     1  LIG1        0.3092
     19 C           3.6230    2.6853   -0.5176 C.3     1  LIG1        0.0336
     20 O           2.4677    1.9476   -2.4809 O.2     1  LIG1       -0.2507
     21 C          -0.1188   -0.3239    0.0240 C.ar    1  LIG1        0.0678
     22 C          -0.7775    0.2663    1.2170 C.ar    1  LIG1        0.1535
     23 O          -0.2086    1.4811    1.7029 O.3     1  LIG1       -0.4246
     24 C          -1.0408    2.5974    1.8311 C.2     1  LIG1        0.3092
     25 C          -0.2819    3.7290    2.4725 C.3     1  LIG1        0.0336
     26 O          -2.2246    2.6453    1.5577 O.2     1  LIG1       -0.2507
     27 H          -2.5994    0.7757    5.1400 H       1  LIG1        0.0309
     28 H          -2.0255    2.0300    4.0837 H       1  LIG1        0.0309
     29 H          -0.9865    0.6021    4.4542 H       1  LIG1        0.0309
     30 H          -4.4835   -1.7980    1.6772 H       1  LIG1        0.0278
     31 H          -3.4191   -2.5561    2.9255 H       1  LIG1        0.0278
     32 H          -3.6439   -3.3028    1.3560 H       1  LIG1        0.0278
     33 H          -2.1897   -3.0277   -0.2231 H       1  LIG1        0.0626
     34 H          -0.7449   -3.0803   -1.9941 H       1  LIG1        0.0660
     35 H           1.6435   -3.2787   -5.9246 H       1  LIG1        0.0342
     36 H           3.3139   -2.6942   -6.0272 H       1  LIG1        0.0342
     37 H           1.9837   -1.5189   -6.0030 H       1  LIG1        0.0342
     38 H           2.3980   -0.2919   -2.4240 H       1  LIG1        0.0691
     39 H           4.3189    3.1316   -1.2354 H       1  LIG1        0.0342
     40 H           4.1829    1.9808    0.1031 H       1  LIG1        0.0342
     41 H           3.1642    3.4696    0.0806 H       1  LIG1        0.0342
     42 H          -0.9311    4.6095    2.5197 H       1  LIG1        0.0342
     43 H           0.5946    3.9767    1.8724 H       1  LIG1        0.0342
     44 H           0.0088    3.4683    3.4944 H       1  LIG1        0.0342
@<TRIPOS>BOND
     1     1     2    2
     2     2     3    1
     3     2     4    1
     4     4     5   ar
     5     5     6    1
     6     5     7   ar
     7     7     8   ar
     8     8     9   ar
     9     9    10   ar
    10    10    11    1
    11    11    12    1
    12    12    13    1
    13    12    14    2
    14    10    15   ar
    15    15    16   ar
    16    16    17    1
    17    17    18    1
    18    18    19    1
    19    18    20    2
    20    16    21   ar
    21     8    21   ar
    22    21    22   ar
    23     4    22   ar
    24    22    23    1
    25    23    24    1
    26    24    25    1
    27    24    26    2
    28     3    27    1
    29     3    28    1
    30     3    29    1
    31     6    30    1
    32     6    31    1
    33     6    32    1
    34     7    33    1
    35     9    34    1
    36    13    35    1
    37    13    36    1
    38    13    37    1
    39    15    38    1
    40    19    39    1
    41    19    40    1
    42    19    41    1
    43    25    42    1
    44    25    43    1
    45    25    44    1
