@<TRIPOS>MOLECULE
NuBBE_1689
 59 59 0 0 0
SMALL
GASTEIGER

@<TRIPOS>ATOM
      1 C           2.9632    3.8033   -3.1729 C.3     1  LIG1       -0.0653
      2 C           1.4655    3.5921   -3.2967 C.3     1  LIG1       -0.0559
      3 C           1.1438    2.3853   -4.1808 C.3     1  LIG1       -0.0533
      4 C          -0.3628    2.1415   -4.3226 C.3     1  LIG1       -0.0528
      5 C          -1.0578    1.8371   -2.9682 C.3     1  LIG1       -0.0496
      6 C          -2.5778    1.7733   -3.1267 C.3     1  LIG1       -0.0348
      7 C          -3.5459    1.2643   -2.0779 C.2     1  LIG1       -0.0879
      8 C          -3.5457    1.1410   -0.7341 C.2     1  LIG1       -0.0879
      9 C          -2.4442    1.3915    0.2613 C.3     1  LIG1       -0.0348
     10 C          -2.8515    1.7594    1.7325 C.3     1  LIG1       -0.0496
     11 C          -1.6440    1.8857    2.6850 C.3     1  LIG1       -0.0528
     12 C          -0.8008    0.6425    2.6681 C.3     1  LIG1       -0.0530
     13 C          -1.4615   -0.6975    2.9113 C.3     1  LIG1       -0.0528
     14 C          -0.3448   -1.7123    2.8999 C.3     1  LIG1       -0.0490
     15 C           0.5100   -1.7272    1.6351 C.3     1  LIG1       -0.0268
     16 C           1.6714   -2.6898    1.5656 C.ar    1  LIG1       -0.0299
     17 C           1.7093   -3.9835    2.1201 C.ar    1  LIG1        0.1032
     18 C           0.7172   -4.5517    3.0819 C.2     1  LIG1        0.3406
     19 O           0.5096   -3.7457    4.1473 O.3     1  LIG1       -0.4770
     20 O           0.2509   -5.6404    3.0359 O.2     1  LIG1       -0.2450
     21 C           2.7599   -4.8443    1.7745 C.ar    1  LIG1        0.1311
     22 O           2.8452   -6.1365    2.2257 O.3     1  LIG1       -0.5059
     23 C           3.8098   -4.4142    0.9633 C.ar    1  LIG1       -0.0193
     24 C           3.8252   -3.1158    0.4729 C.ar    1  LIG1       -0.0580
     25 C           2.7568   -2.2682    0.7512 C.ar    1  LIG1       -0.0576
     26 H           3.1814    4.4907   -2.3496 H       1  LIG1        0.0230
     27 H           3.3674    4.2323   -4.0940 H       1  LIG1        0.0230
     28 H           3.4791    2.8590   -2.9729 H       1  LIG1        0.0230
     29 H           0.9988    4.4984   -3.7015 H       1  LIG1        0.0263
     30 H           1.0620    3.4427   -2.2911 H       1  LIG1        0.0263
     31 H           1.6150    1.4861   -3.7672 H       1  LIG1        0.0265
     32 H           1.5809    2.5422   -5.1763 H       1  LIG1        0.0265
     33 H          -0.5203    1.3137   -5.0288 H       1  LIG1        0.0265
     34 H          -0.8130    3.0275   -4.7899 H       1  LIG1        0.0265
     35 H          -0.8678    2.6782   -2.2988 H       1  LIG1        0.0268
     36 H          -0.6288    0.9396   -2.5088 H       1  LIG1        0.0268
     37 H          -2.8226    1.2959   -4.0885 H       1  LIG1        0.0307
     38 H          -2.8729    2.8208   -3.2395 H       1  LIG1        0.0307
     39 H          -4.4987    1.0064   -2.5541 H       1  LIG1        0.0569
     40 H          -4.4810    0.7884   -0.2940 H       1  LIG1        0.0569
     41 H          -1.7828    2.1793   -0.1044 H       1  LIG1        0.0307
     42 H          -1.8790    0.4535    0.2640 H       1  LIG1        0.0307
     43 H          -3.5418    1.0135    2.1491 H       1  LIG1        0.0268
     44 H          -3.3701    2.7224    1.7471 H       1  LIG1        0.0268
     45 H          -1.9192    2.1587    3.7131 H       1  LIG1        0.0265
     46 H          -0.9866    2.6879    2.3252 H       1  LIG1        0.0265
     47 H           0.0991    0.7609    3.2846 H       1  LIG1        0.0265
     48 H          -0.4395    0.6063    1.6439 H       1  LIG1        0.0265
     49 H          -2.1506   -0.9802    2.1070 H       1  LIG1        0.0265
     50 H          -2.0164   -0.7834    3.8562 H       1  LIG1        0.0265
     51 H          -0.8844   -2.6536    2.9642 H       1  LIG1        0.0268
     52 H           0.2917   -1.5263    3.7775 H       1  LIG1        0.0268
     53 H           0.9352   -0.7303    1.4719 H       1  LIG1        0.0313
     54 H          -0.1486   -1.9290    0.7817 H       1  LIG1        0.0313
     55 H          -0.3713   -4.0072    4.4879 H       1  LIG1        0.2954
     56 H           2.0196   -6.3624    2.7033 H       1  LIG1        0.2922
     57 H           4.6266   -5.0920    0.7363 H       1  LIG1        0.0654
     58 H           4.6606   -2.7668   -0.1306 H       1  LIG1        0.0619
     59 H           2.7771   -1.2633    0.3252 H       1  LIG1        0.0621
@<TRIPOS>BOND
     1     1     2    1
     2     2     3    1
     3     3     4    1
     4     4     5    1
     5     5     6    1
     6     6     7    1
     7     7     8    2
     8     8     9    1
     9     9    10    1
    10    10    11    1
    11    11    12    1
    12    12    13    1
    13    13    14    1
    14    14    15    1
    15    15    16    1
    16    16    17   ar
    17    17    18    1
    18    18    19    1
    19    18    20    2
    20    17    21   ar
    21    21    22    1
    22    21    23   ar
    23    23    24   ar
    24    24    25   ar
    25    16    25   ar
    26     1    26    1
    27     1    27    1
    28     1    28    1
    29     2    29    1
    30     2    30    1
    31     3    31    1
    32     3    32    1
    33     4    33    1
    34     4    34    1
    35     5    35    1
    36     5    36    1
    37     6    37    1
    38     6    38    1
    39     7    39    1
    40     8    40    1
    41     9    41    1
    42     9    42    1
    43    10    43    1
    44    10    44    1
    45    11    45    1
    46    11    46    1
    47    12    47    1
    48    12    48    1
    49    13    49    1
    50    13    50    1
    51    14    51    1
    52    14    52    1
    53    15    53    1
    54    15    54    1
    55    19    55    1
    56    22    56    1
    57    23    57    1
    58    24    58    1
    59    25    59    1
