@<TRIPOS>MOLECULE
NuBBE_2376
 52 54 0 0 0
SMALL
GASTEIGER

@<TRIPOS>ATOM
      1 C           3.0003   -0.9564    0.5507 C.3     1  LIG1       -0.0318
      2 C           1.6809   -0.5234   -0.2018 C.3     1  LIG1       -0.0325
      3 H           0.9858   -0.2254    0.5983 H       1  LIG1        0.0309
      4 C           1.9082    0.7423   -1.0900 C.3     1  LIG1       -0.0336
      5 C           0.6732    1.2690   -1.8611 C.3     1  LIG1       -0.0207
      6 C          -0.6507    1.0032   -1.1911 C.ar    1  LIG1        0.0012
      7 C          -1.1349   -0.3161   -1.1220 C.ar    1  LIG1       -0.0402
      8 C          -2.3720   -0.5816   -0.5078 C.ar    1  LIG1       -0.0512
      9 C          -3.1597    0.4439    0.0501 C.ar    1  LIG1        0.0005
     10 C          -4.5100    0.1268    0.6738 C.3     1  LIG1       -0.0179
     11 C          -4.3307   -0.3608    2.1127 C.3     1  LIG1       -0.0585
     12 C          -5.3434   -0.8769   -0.1338 C.3     1  LIG1       -0.0585
     13 C          -2.6333    1.7416    0.0153 C.ar    1  LIG1        0.1620
     14 C          -1.4088    2.0146   -0.6088 C.ar    1  LIG1        0.1620
     15 O          -0.9566    3.3078   -0.6203 O.3     1  LIG1       -0.5031
     16 O          -3.2525    2.8251    0.5890 O.3     1  LIG1       -0.5031
     17 C          -0.3078   -1.4368   -1.6987 C.3     1  LIG1       -0.0270
     18 C           1.0028   -1.7069   -0.9450 C.3     1  LIG1       -0.0455
     19 C           2.4909    1.8916   -0.2441 C.3     1  LIG1       -0.0496
     20 C           3.7761    1.4926    0.4647 C.3     1  LIG1       -0.0523
     21 C           3.5695    0.2576    1.3293 C.3     1  LIG1       -0.0476
     22 C           4.0776   -1.5065   -0.4085 C.3     1  LIG1       -0.0596
     23 C           2.7041   -2.0588    1.5942 C.3     1  LIG1       -0.0596
     24 H           2.6567    0.5002   -1.8558 H       1  LIG1        0.0307
     25 H           0.6523    0.8094   -2.8580 H       1  LIG1        0.0317
     26 H           0.7873    2.3374   -2.0830 H       1  LIG1        0.0317
     27 H          -2.7161   -1.6129   -0.4662 H       1  LIG1        0.0624
     28 H          -5.1125    1.0427    0.6962 H       1  LIG1        0.0345
     29 H          -3.7615   -1.2965    2.1526 H       1  LIG1        0.0235
     30 H          -5.3024   -0.5381    2.5859 H       1  LIG1        0.0235
     31 H          -3.7949    0.3799    2.7165 H       1  LIG1        0.0235
     32 H          -4.9135   -1.8837   -0.1175 H       1  LIG1        0.0235
     33 H          -5.4328   -0.5617   -1.1793 H       1  LIG1        0.0235
     34 H          -6.3551   -0.9508    0.2805 H       1  LIG1        0.0235
     35 H          -1.6662    3.8125   -0.1752 H       1  LIG1        0.2923
     36 H          -3.8774    2.5013    1.2572 H       1  LIG1        0.2923
     37 H          -0.0964   -1.2221   -2.7535 H       1  LIG1        0.0313
     38 H          -0.8938   -2.3649   -1.7249 H       1  LIG1        0.0313
     39 H           1.7017   -2.1639   -1.6542 H       1  LIG1        0.0271
     40 H           0.7732   -2.4831   -0.2051 H       1  LIG1        0.0271
     41 H           1.7524    2.2184    0.4990 H       1  LIG1        0.0268
     42 H           2.7015    2.7584   -0.8825 H       1  LIG1        0.0268
     43 H           4.1175    2.3235    1.0931 H       1  LIG1        0.0266
     44 H           4.5681    1.3144   -0.2715 H       1  LIG1        0.0266
     45 H           2.8838    0.5190    2.1470 H       1  LIG1        0.0271
     46 H           4.5229   -0.0074    1.8041 H       1  LIG1        0.0271
     47 H           4.3216   -0.8077   -1.2128 H       1  LIG1        0.0235
     48 H           3.7640   -2.4474   -0.8721 H       1  LIG1        0.0235
     49 H           5.0085   -1.7156    0.1320 H       1  LIG1        0.0235
     50 H           1.8856   -1.7641    2.2603 H       1  LIG1        0.0235
     51 H           3.5840   -2.2550    2.2185 H       1  LIG1        0.0235
     52 H           2.4326   -3.0087    1.1231 H       1  LIG1        0.0235
@<TRIPOS>BOND
     1     1     2    1
     2     2     4    1
     3     4     5    1
     4     5     6    1
     5     6     7   ar
     6     7     8   ar
     7     8     9   ar
     8    10    11    1
     9    10    12    1
    10     9    13   ar
    11    13    14   ar
    12     6    14   ar
    13     7    17    1
    14    17    18    1
    15     2    18    1
    16     4    19    1
    17    19    20    1
    18    20    21    1
    19     1    21    1
    20     1    22    1
    21     1    23    1
    22     2     3    1
    23     9    10    1
    24    13    16    1
    25    14    15    1
    26     4    24    1
    27     5    25    1
    28     5    26    1
    29     8    27    1
    30    10    28    1
    31    11    29    1
    32    11    30    1
    33    11    31    1
    34    12    32    1
    35    12    33    1
    36    12    34    1
    37    15    35    1
    38    16    36    1
    39    17    37    1
    40    17    38    1
    41    18    39    1
    42    18    40    1
    43    19    41    1
    44    19    42    1
    45    20    43    1
    46    20    44    1
    47    21    45    1
    48    21    46    1
    49    22    47    1
    50    22    48    1
    51    22    49    1
    52    23    50    1
    53    23    51    1
    54    23    52    1
