REMARK  Name = NuBBE_877
REMARK  13 active torsions:
REMARK  status: ('A' for Active; 'I' for Inactive)
REMARK    1  A    between atoms: O_1  and  C_2
REMARK    2  A    between atoms: C_6  and  C_7
REMARK    3  A    between atoms: C_6  and  C_8
REMARK    4  A    between atoms: C_12  and  O_13
REMARK    5  A    between atoms: C_14  and  C_15
REMARK    6  A    between atoms: C_15  and  C_16
REMARK    7  A    between atoms: C_16  and  C_17
REMARK    8  A    between atoms: C_17  and  C_18
REMARK    9  A    between atoms: C_20  and  C_21
REMARK   10  A    between atoms: C_21  and  C_22
REMARK   11  A    between atoms: C_23  and  C_24
REMARK   12  A    between atoms: C_23  and  C_25
REMARK   13  A    between atoms: C_26  and  O_29
REMARK                            x       y       z     vdW  Elec       q    Type
REMARK                         _______ _______ _______ _____ _____    ______ ____
ROOT
ATOM      1  C   LIG A   1      -0.601   1.770   0.803  0.00  0.00    +0.171 C 
ATOM      2  O   LIG A   1      -0.078   2.876   0.865  0.00  0.00    -0.292 OA
ENDROOT
BRANCH   1  14
ATOM      3  C   LIG A   1      -2.530   2.549  -0.629  0.00  0.00    +0.138 A 
ATOM      4  C   LIG A   1      -3.874   2.512  -1.063  0.00  0.00    +0.037 A 
ATOM      5  C   LIG A   1      -4.719   1.542  -0.523  0.00  0.00    +0.131 A 
ATOM      6  O   LIG A   1      -6.039   1.392  -0.850  0.00  0.00    -0.486 OA
ATOM      7  C   LIG A   1      -6.666   2.473  -1.560  0.00  0.00    +0.105 C 
ATOM      8  C   LIG A   1      -7.122   3.534  -0.547  0.00  0.00    +0.055 C 
ATOM      9  C   LIG A   1      -7.910   1.869  -2.228  0.00  0.00    +0.055 C 
ATOM     10  C   LIG A   1      -5.742   3.033  -2.647  0.00  0.00    +0.052 C 
ATOM     11  C   LIG A   1      -4.413   3.496  -2.065  0.00  0.00    +0.046 C 
ATOM     12  C   LIG A   1      -4.235   0.614   0.397  0.00  0.00    +0.092 A 
ATOM     13  C   LIG A   1      -2.903   0.660   0.819  0.00  0.00    +0.134 A 
ATOM     14  C   LIG A   1      -2.025   1.631   0.319  0.00  0.00    +0.101 A 
BRANCH   3  15
ATOM     15  O   LIG A   1      -1.680   3.465  -1.195  0.00  0.00    -0.505 OA
ATOM     16  H   LIG A   1      -2.163   4.282  -1.394  0.00  0.00    +0.292 HD
ENDBRANCH   3  15
BRANCH  13  17
ATOM     17  O   LIG A   1      -2.503  -0.257   1.753  0.00  0.00    -0.506 OA
ATOM     18  H   LIG A   1      -3.243  -0.858   1.952  0.00  0.00    +0.292 HD
ENDBRANCH  13  17
ENDBRANCH   1  14
BRANCH   1  19
ATOM     19  C   LIG A   1       0.151   0.537   1.291  0.00  0.00    +0.084 C 
BRANCH  19  20
ATOM     20  C   LIG A   1       1.663   0.664   1.054  0.00  0.00    +0.043 C 
BRANCH  20  21
ATOM     21  C   LIG A   1       2.429  -0.547   1.548  0.00  0.00    -0.046 A 
ATOM     22  C   LIG A   1       3.217  -1.316   0.674  0.00  0.00    +0.011 A 
ATOM     23  C   LIG A   1       3.930  -2.449   1.123  0.00  0.00    -0.002 A 
ATOM     24  C   LIG A   1       3.812  -2.802   2.475  0.00  0.00    +0.120 A 
ATOM     25  C   LIG A   1       3.070  -2.024   3.360  0.00  0.00    +0.046 A 
ATOM     26  C   LIG A   1       2.384  -0.903   2.901  0.00  0.00    +0.007 A 
BRANCH  24  27
ATOM     27  O   LIG A   1       4.398  -3.909   3.023  0.00  0.00    -0.506 OA
ATOM     28  H   LIG A   1       4.642  -4.521   2.312  0.00  0.00    +0.292 HD
ENDBRANCH  24  27
BRANCH  23  29
ATOM     29  C   LIG A   1       4.761  -3.235   0.124  0.00  0.00    +0.066 C 
BRANCH  29  30
ATOM     30  C   LIG A   1       6.216  -3.368   0.500  0.00  0.00    -0.023 C 
ATOM     31  C   LIG A   1       7.279  -3.460  -0.324  0.00  0.00    -0.079 C 
ATOM     32  C   LIG A   1       7.222  -3.434  -1.825  0.00  0.00    +0.038 C 
ATOM     33  C   LIG A   1       8.668  -3.606   0.243  0.00  0.00    +0.038 C 
ENDBRANCH  29  30
ENDBRANCH  23  29
ENDBRANCH  20  21
ENDBRANCH  19  20
ENDBRANCH   1  19
TORSDOF 9
