REMARK  Name = NuBBE_1525
REMARK  19 active torsions:
REMARK  status: ('A' for Active; 'I' for Inactive)
REMARK    1  A    between atoms: C_1  and  C_2
REMARK    2  A    between atoms: C_7  and  C_9
REMARK    3  A    between atoms: C_7  and  C_25
REMARK    4  A    between atoms: C_9  and  C_10
REMARK    5  A    between atoms: C_10  and  C_11
REMARK    6  A    between atoms: C_11  and  C_12
REMARK    7  A    between atoms: C_12  and  C_13
REMARK    8  A    between atoms: C_12  and  C_24
REMARK    9  A    between atoms: C_13  and  C_14
REMARK   10  A    between atoms: C_14  and  C_15
REMARK   11  A    between atoms: C_15  and  C_16
REMARK   12  A    between atoms: C_16  and  C_17
REMARK   13  A    between atoms: C_16  and  C_23
REMARK   14  A    between atoms: C_17  and  C_18
REMARK   15  A    between atoms: C_18  and  C_19
REMARK   16  A    between atoms: C_19  and  C_20
REMARK   17  A    between atoms: C_20  and  C_21
REMARK   18  A    between atoms: C_20  and  C_22
REMARK   19  A    between atoms: C_27  and  O_29
REMARK                            x       y       z     vdW  Elec       q    Type
REMARK                         _______ _______ _______ _____ _____    ______ ____
ROOT
ATOM      1  C   LIG A   1       3.134   2.854  -0.619  0.00  0.00    +0.048 C 
ENDROOT
BRANCH   1   8
ATOM      2  C   LIG A   1      -1.154   0.765  -2.549  0.00  0.00    +0.048 C 
ATOM      3  C   LIG A   1      -0.693   1.959  -3.341  0.00  0.00    -0.005 A 
ATOM      4  C   LIG A   1       0.384   2.713  -2.944  0.00  0.00    +0.128 A 
ATOM      5  C   LIG A   1       0.631   3.978  -3.494  0.00  0.00    -0.002 A 
ATOM      6  C   LIG A   1       1.602   4.864  -2.789  0.00  0.00    +0.043 C 
ATOM      7  C   LIG A   1       1.397   4.599  -1.294  0.00  0.00    +0.052 C 
ATOM      8  C   LIG A   1       1.619   3.094  -0.936  0.00  0.00    +0.108 C 
ATOM      9  O   LIG A   1       1.244   2.199  -1.991  0.00  0.00    -0.485 OA
ATOM     10  C   LIG A   1       0.690   2.741   0.241  0.00  0.00    +0.056 C 
ATOM     11  C   LIG A   1      -0.132   4.411  -4.592  0.00  0.00    +0.052 A 
ATOM     12  C   LIG A   1      -1.155   3.623  -5.044  0.00  0.00    +0.118 A 
ATOM     13  C   LIG A   1      -1.491   2.421  -4.415  0.00  0.00    +0.052 A 
BRANCH  12  14
ATOM     14  O   LIG A   1      -1.933   4.008  -6.118  0.00  0.00    -0.507 OA
ATOM     15  H   LIG A   1      -1.533   4.796  -6.516  0.00  0.00    +0.292 HD
ENDBRANCH  12  14
ENDBRANCH   1   8
BRANCH   1  16
ATOM     16  C   LIG A   1       3.644   1.409  -0.316  0.00  0.00    +0.004 C 
BRANCH  16  17
ATOM     17  C   LIG A   1       3.297   0.824   1.069  0.00  0.00    +0.003 C 
BRANCH  17  18
ATOM     18  C   LIG A   1       3.906  -0.540   1.468  0.00  0.00    -0.014 C 
ATOM     19  C   LIG A   1       3.759  -1.650   0.418  0.00  0.00    +0.007 C 
BRANCH  18  20
ATOM     20  C   LIG A   1       3.401  -0.994   2.881  0.00  0.00    +0.003 C 
BRANCH  20  21
ATOM     21  C   LIG A   1       1.871  -1.091   3.180  0.00  0.00    +0.000 C 
BRANCH  21  22
ATOM     22  C   LIG A   1       1.143  -2.075   2.261  0.00  0.00    +0.003 C 
BRANCH  22  23
ATOM     23  C   LIG A   1      -0.373  -2.350   2.409  0.00  0.00    -0.014 C 
ATOM     24  C   LIG A   1      -0.714  -2.838   3.810  0.00  0.00    +0.007 C 
BRANCH  23  25
ATOM     25  C   LIG A   1      -0.746  -3.381   1.298  0.00  0.00    +0.003 C 
BRANCH  25  26
ATOM     26  C   LIG A   1      -2.200  -3.866   1.177  0.00  0.00    +0.000 C 
BRANCH  26  27
ATOM     27  C   LIG A   1      -3.242  -2.809   0.766  0.00  0.00    +0.003 C 
BRANCH  27  28
ATOM     28  C   LIG A   1      -4.672  -3.394   0.590  0.00  0.00    -0.017 C 
ATOM     29  C   LIG A   1      -5.238  -3.941   1.903  0.00  0.00    +0.007 C 
ATOM     30  C   LIG A   1      -5.655  -2.352   0.029  0.00  0.00    +0.007 C 
ENDBRANCH  27  28
ENDBRANCH  26  27
ENDBRANCH  25  26
ENDBRANCH  23  25
ENDBRANCH  22  23
ENDBRANCH  21  22
ENDBRANCH  20  21
ENDBRANCH  18  20
ENDBRANCH  17  18
ENDBRANCH  16  17
ENDBRANCH   1  16
TORSDOF 13
