REMARK  Name = NuBBE_1769
REMARK  4 active torsions:
REMARK  status: ('A' for Active; 'I' for Inactive)
REMARK    1  A    between atoms: O_1  and  C_2
REMARK    2  A    between atoms: C_12  and  O_13
REMARK    3  A    between atoms: C_14  and  O_17
REMARK    4  A    between atoms: C_23  and  O_25
REMARK                            x       y       z     vdW  Elec       q    Type
REMARK                         _______ _______ _______ _____ _____    ______ ____
ROOT
ATOM      1  C   LIG A   1      -1.379  -1.796   0.705  0.00  0.00    +0.181 C 
ATOM      2  C   LIG A   1      -0.865  -1.002  -0.497  0.00  0.00    +0.197 C 
ATOM      3  C   LIG A   1       0.580  -0.579  -0.230  0.00  0.00    +0.235 C 
ATOM      4  C   LIG A   1       1.071   0.236  -1.411  0.00  0.00    +0.004 A 
ATOM      5  C   LIG A   1       0.141   0.911  -2.236  0.00  0.00    +0.030 A 
ATOM      6  C   LIG A   1      -1.339   0.825  -1.935  0.00  0.00    +0.200 C 
ATOM      7  O   LIG A   1      -1.685   0.167  -0.711  0.00  0.00    -0.365 OA
ATOM      8  C   LIG A   1       0.627   1.596  -3.358  0.00  0.00    +0.164 A 
ATOM      9  C   LIG A   1       1.996   1.620  -3.636  0.00  0.00    +0.159 A 
ATOM     10  C   LIG A   1       2.910   0.988  -2.810  0.00  0.00    +0.049 A 
ATOM     11  C   LIG A   1       2.449   0.299  -1.691  0.00  0.00    +0.011 A 
ATOM     12  O   LIG A   1       0.713   0.235   0.945  0.00  0.00    -0.481 OA
ATOM     13  C   LIG A   1       0.097  -0.266   2.062  0.00  0.00    +0.131 A 
ATOM     14  C   LIG A   1      -0.914  -1.231   2.017  0.00  0.00    +0.025 A 
ATOM     15  C   LIG A   1      -1.462  -1.704   3.222  0.00  0.00    +0.013 A 
ATOM     16  C   LIG A   1      -1.029  -1.198   4.448  0.00  0.00    +0.046 A 
ATOM     17  C   LIG A   1      -0.049  -0.213   4.468  0.00  0.00    +0.120 A 
ATOM     18  C   LIG A   1       0.511   0.260   3.285  0.00  0.00    +0.091 A 
ENDROOT
BRANCH   1  19
ATOM     19  O   LIG A   1      -2.806  -1.857   0.667  0.00  0.00    -0.384 OA
ATOM     20  H   LIG A   1      -3.086  -0.936   0.492  0.00  0.00    +0.210 HD
ENDBRANCH   1  19
BRANCH   8  21
ATOM     21  O   LIG A   1      -0.170   2.254  -4.258  0.00  0.00    -0.503 OA
ATOM     22  H   LIG A   1      -1.088   2.269  -3.945  0.00  0.00    +0.292 HD
ENDBRANCH   8  21
BRANCH   9  23
ATOM     23  O   LIG A   1       2.452   2.273  -4.747  0.00  0.00    -0.503 OA
ATOM     24  H   LIG A   1       1.645   2.629  -5.169  0.00  0.00    +0.292 HD
ENDBRANCH   9  23
BRANCH  17  25
ATOM     25  O   LIG A   1       0.396   0.314   5.645  0.00  0.00    -0.507 OA
ATOM     26  H   LIG A   1      -0.090  -0.100   6.375  0.00  0.00    +0.292 HD
ENDBRANCH  17  25
TORSDOF 4
