REMARK  Name = NuBBE_1891
REMARK  2 active torsions:
REMARK  status: ('A' for Active; 'I' for Inactive)
REMARK    1  A    between atoms: C_1  and  C_2
REMARK    2  A    between atoms: C_2  and  C_3
REMARK                            x       y       z     vdW  Elec       q    Type
REMARK                         _______ _______ _______ _____ _____    ______ ____
ROOT
ATOM      1  C   LIG A   1      -5.459  -2.418  -0.922  0.00  0.00    +0.060 C 
ATOM      2  C   LIG A   1      -3.999  -2.418  -1.397  0.00  0.00    +0.123 C 
ATOM      3  C   LIG A   1      -3.763  -3.639  -2.298  0.00  0.00    +0.060 C 
ATOM      4  C   LIG A   1      -3.102  -2.554  -0.166  0.00  0.00    +0.020 C 
ATOM      5  C   LIG A   1      -2.840  -1.406   0.454  0.00  0.00    +0.015 C 
ATOM      6  C   LIG A   1      -2.114  -0.584  -0.527  0.00  0.00    +0.059 A 
ATOM      7  C   LIG A   1      -0.842  -0.102  -0.252  0.00  0.00    +0.138 A 
ATOM      8  C   LIG A   1      -0.181   0.768  -1.131  0.00  0.00    +0.036 A 
ATOM      9  C   LIG A   1       1.274   1.134  -0.867  0.00  0.00    +0.218 C 
ATOM     10  C   LIG A   1       1.872   0.150   0.148  0.00  0.00    +0.105 C 
ATOM     11  C   LIG A   1       2.952   0.980   0.714  0.00  0.00    +0.008 A 
ATOM     12  C   LIG A   1       2.632   2.322   0.481  0.00  0.00    +0.129 A 
ATOM     13  C   LIG A   1       3.296   3.331   1.154  0.00  0.00    +0.095 A 
ATOM     14  C   LIG A   1       4.277   2.919   2.050  0.00  0.00    +0.170 A 
ATOM     15  O   LIG A   1       5.015   3.732   2.859  0.00  0.00    -0.453 OA
ATOM     16  C   LIG A   1       5.867   2.769   3.521  0.00  0.00    +0.466 C 
ATOM     17  O   LIG A   1       5.519   1.403   3.232  0.00  0.00    -0.453 OA
ATOM     18  C   LIG A   1       4.582   1.585   2.266  0.00  0.00    +0.167 A 
ATOM     19  C   LIG A   1       3.933   0.572   1.605  0.00  0.00    +0.057 A 
ATOM     20  O   LIG A   1       1.512   2.476  -0.327  0.00  0.00    -0.483 OA
ATOM     21  C   LIG A   1       0.888  -0.069   1.288  0.00  0.00    +0.241 C 
ATOM     22  O   LIG A   1      -0.273  -0.705   0.834  0.00  0.00    -0.490 OA
ATOM     23  C   LIG A   1      -0.865   1.128  -2.311  0.00  0.00    +0.014 A 
ATOM     24  C   LIG A   1      -2.096   0.512  -2.654  0.00  0.00    +0.047 A 
ATOM     25  C   LIG A   1      -2.683  -0.409  -1.784  0.00  0.00    +0.132 A 
ATOM     26  O   LIG A   1      -3.759  -1.184  -2.175  0.00  0.00    -0.481 OA
ENDROOT
TORSDOF 0
