@<TRIPOS>MOLECULE
NuBBE_1542
 39 40 0 0 0
SMALL
GASTEIGER

@<TRIPOS>ATOM
      1 C          -3.6061    1.2113    0.3827 C.3     1  LIG1       -0.0590
      2 C          -2.3249    0.5606    0.8499 C.3     1  LIG1       -0.0250
      3 C          -2.4865   -0.1408    2.1813 C.3     1  LIG1       -0.0590
      4 C          -1.4905   -0.0086   -0.2987 C.3     1  LIG1       -0.0283
      5 H          -1.7029    0.2686   -1.3286 H       1  LIG1        0.0312
      6 C          -1.0024    1.1972    0.5388 C.3     1  LIG1       -0.0139
      7 H          -1.1335    2.2102    0.1641 H       1  LIG1        0.0351
      8 C           0.3202    1.0057    1.1389 C.2     1  LIG1       -0.0811
      9 C           1.4795    1.3778    0.5450 C.2     1  LIG1       -0.0760
     10 C           1.5459    2.2330   -0.6938 C.3     1  LIG1       -0.0438
     11 C           2.7990    0.7567    0.9723 C.3     1  LIG1       -0.0286
     12 C           3.1308   -0.5034    0.1330 C.3     1  LIG1       -0.0308
     13 C           1.9167   -1.3982   -0.0131 C.2     1  LIG1       -0.0847
     14 C           1.1425   -1.5469   -1.0927 C.2     1  LIG1       -0.0765
     15 C          -0.2033   -2.2292   -0.9828 C.3     1  LIG1       -0.0317
     16 C          -1.3050   -1.5064   -0.1974 C.3     1  LIG1       -0.0455
     17 C           1.4435   -1.0489   -2.4827 C.3     1  LIG1       -0.0438
     18 H          -3.4550    1.8063   -0.5246 H       1  LIG1        0.0235
     19 H          -4.0205    1.8659    1.1542 H       1  LIG1        0.0235
     20 H          -4.3442    0.4350    0.1505 H       1  LIG1        0.0235
     21 H          -1.5546   -0.5572    2.5740 H       1  LIG1        0.0235
     22 H          -3.2041   -0.9635    2.0874 H       1  LIG1        0.0235
     23 H          -2.8693    0.5564    2.9339 H       1  LIG1        0.0235
     24 H           0.3771    0.3843    2.0297 H       1  LIG1        0.0575
     25 H           0.6027    2.7352   -0.9218 H       1  LIG1        0.0274
     26 H           1.8167    1.6331   -1.5655 H       1  LIG1        0.0274
     27 H           2.2965    3.0198   -0.5709 H       1  LIG1        0.0274
     28 H           2.7674    0.4859    2.0349 H       1  LIG1        0.0313
     29 H           3.6113    1.4881    0.8714 H       1  LIG1        0.0313
     30 H           3.9358   -1.0651    0.6187 H       1  LIG1        0.0310
     31 H           3.5224   -0.1953   -0.8408 H       1  LIG1        0.0310
     32 H           1.5762   -1.8264    0.9348 H       1  LIG1        0.0572
     33 H          -0.0512   -3.2085   -0.5068 H       1  LIG1        0.0310
     34 H          -0.5767   -2.4709   -1.9842 H       1  LIG1        0.0310
     35 H          -1.2382   -1.8406    0.8402 H       1  LIG1        0.0271
     36 H          -2.2525   -1.9258   -0.5704 H       1  LIG1        0.0271
     37 H           2.3852   -0.5056   -2.5594 H       1  LIG1        0.0274
     38 H           0.6441   -0.3886   -2.8330 H       1  LIG1        0.0274
     39 H           1.5077   -1.9011   -3.1686 H       1  LIG1        0.0274
@<TRIPOS>BOND
     1     2     4    1
     2     4     6    1
     3     2     6    1
     4     6     8    1
     5     8     9    2
     6     9    11    1
     7    11    12    1
     8    12    13    1
     9    13    14    2
    10    14    15    1
    11    15    16    1
    12     4    16    1
    13     1     2    1
    14     2     3    1
    15     4     5    1
    16     6     7    1
    17     9    10    1
    18    14    17    1
    19     1    18    1
    20     1    19    1
    21     1    20    1
    22     3    21    1
    23     3    22    1
    24     3    23    1
    25     8    24    1
    26    10    25    1
    27    10    26    1
    28    10    27    1
    29    11    28    1
    30    11    29    1
    31    12    30    1
    32    12    31    1
    33    13    32    1
    34    15    33    1
    35    15    34    1
    36    16    35    1
    37    16    36    1
    38    17    37    1
    39    17    38    1
    40    17    39    1
