@<TRIPOS>MOLECULE
NuBBE_2512
 38 40 0 0 0
SMALL
GASTEIGER

@<TRIPOS>ATOM
      1 O          -1.7465   -1.6534    1.5069 O.2     1  LIG1       -0.2916
      2 C          -1.0125   -1.4855    0.5285 C.2     1  LIG1        0.1700
      3 C          -0.1092   -0.2646    0.4251 C.3     1  LIG1        0.0265
      4 C           0.7512   -0.1469    1.6857 C.3     1  LIG1       -0.0388
      5 C           1.7155    1.0312    1.5571 C.3     1  LIG1       -0.0232
      6 C           1.0503    2.3133    1.1179 C.ar    1  LIG1        0.0009
      7 C           1.6770    3.5578    1.2763 C.ar    1  LIG1        0.1617
      8 O           2.9298    3.7129    1.8139 O.3     1  LIG1       -0.5031
      9 C           1.0400    4.7362    0.8810 C.ar    1  LIG1        0.1585
     10 O           1.6626    5.9395    1.0640 O.3     1  LIG1       -0.5033
     11 C          -0.2159    4.7119    0.3026 C.ar    1  LIG1       -0.0163
     12 C          -0.8428    3.4839    0.1068 C.ar    1  LIG1       -0.0546
     13 C          -0.2174    2.2823    0.4939 C.ar    1  LIG1       -0.0398
     14 C          -0.9747    0.9897    0.2804 C.3     1  LIG1       -0.0174
     15 C          -0.9854   -2.5490   -0.5175 C.ar    1  LIG1        0.0593
     16 C          -1.2531   -3.8605   -0.0849 C.ar    1  LIG1       -0.0443
     17 C          -1.2527   -4.9282   -0.9851 C.ar    1  LIG1       -0.0193
     18 C          -0.9907   -4.6819   -2.3262 C.ar    1  LIG1        0.1204
     19 O          -0.9765   -5.6900   -3.2435 O.3     1  LIG1       -0.5066
     20 C          -0.7403   -3.3908   -2.7807 C.ar    1  LIG1        0.0220
     21 C          -0.7426   -2.3229   -1.8776 C.ar    1  LIG1        0.1308
     22 O          -0.5397   -1.0595   -2.3560 O.3     1  LIG1       -0.5059
     23 H           0.5777   -0.3579   -0.4212 H       1  LIG1        0.0384
     24 H           1.3189   -1.0704    1.8530 H       1  LIG1        0.0275
     25 H           0.1151   -0.0081    2.5704 H       1  LIG1        0.0275
     26 H           2.4960    0.7847    0.8265 H       1  LIG1        0.0315
     27 H           2.1999    1.1727    2.5303 H       1  LIG1        0.0315
     28 H           3.3320    2.8374    1.9272 H       1  LIG1        0.2923
     29 H           2.5083    5.7062    1.4960 H       1  LIG1        0.2923
     30 H          -0.7010    5.6365    0.0068 H       1  LIG1        0.0655
     31 H          -1.8325    3.4633   -0.3456 H       1  LIG1        0.0622
     32 H          -1.4300    0.9951   -0.7178 H       1  LIG1        0.0320
     33 H          -1.8003    0.9688    1.0046 H       1  LIG1        0.0320
     34 H          -1.4659   -4.0537    0.9659 H       1  LIG1        0.0627
     35 H          -1.4618   -5.9295   -0.6213 H       1  LIG1        0.0654
     36 H          -1.1695   -6.5294   -2.7924 H       1  LIG1        0.2921
     37 H          -0.5592   -3.2375   -3.8405 H       1  LIG1        0.0691
     38 H          -0.3541   -1.1036   -3.3106 H       1  LIG1        0.2922
@<TRIPOS>BOND
     1     1     2    2
     2     2     3    1
     3     3     4    1
     4     4     5    1
     5     5     6    1
     6     6     7   ar
     7     7     8    1
     8     7     9   ar
     9     9    10    1
    10     9    11   ar
    11    11    12   ar
    12     6    13   ar
    13    12    13   ar
    14    13    14    1
    15     3    14    1
    16     2    15    1
    17    15    16   ar
    18    16    17   ar
    19    17    18   ar
    20    18    19    1
    21    18    20   ar
    22    20    21   ar
    23    15    21   ar
    24    21    22    1
    25     3    23    1
    26     4    24    1
    27     4    25    1
    28     5    26    1
    29     5    27    1
    30     8    28    1
    31    10    29    1
    32    11    30    1
    33    12    31    1
    34    14    32    1
    35    14    33    1
    36    16    34    1
    37    17    35    1
    38    19    36    1
    39    20    37    1
    40    22    38    1
