REMARK  Name = NuBBE_2167
REMARK  18 active torsions:
REMARK  status: ('A' for Active; 'I' for Inactive)
REMARK    1  A    between atoms: C_2  and  C_3
REMARK    2  A    between atoms: C_2  and  C_17
REMARK    3  A    between atoms: C_4  and  O_5
REMARK    4  A    between atoms: O_5  and  C_6
REMARK    5  A    between atoms: C_6  and  C_7
REMARK    6  A    between atoms: C_12  and  O_13
REMARK    7  A    between atoms: O_13  and  C_14
REMARK    8  A    between atoms: C_14  and  C_15
REMARK    9  A    between atoms: C_17  and  C_18
REMARK   10  A    between atoms: C_18  and  C_19
REMARK   11  A    between atoms: C_19  and  C_20
REMARK   12  A    between atoms: C_20  and  C_21
REMARK   13  A    between atoms: C_21  and  C_22
REMARK   14  A    between atoms: C_22  and  C_23
REMARK   15  A    between atoms: C_23  and  C_24
REMARK   16  A    between atoms: C_24  and  C_25
REMARK   17  A    between atoms: C_25  and  C_26
REMARK   18  A    between atoms: C_26  and  C_27
REMARK                            x       y       z     vdW  Elec       q    Type
REMARK                         _______ _______ _______ _____ _____    ______ ____
ROOT
ATOM      1  O   LIG A   1      -4.026   2.067  -0.405  0.00  0.00    -0.292 OA
ATOM      2  C   LIG A   1      -4.153   0.847  -0.293  0.00  0.00    +0.170 C 
ENDROOT
BRANCH   2   3
ATOM      3  C   LIG A   1      -4.880   0.077  -1.361  0.00  0.00    +0.102 A 
ATOM      4  C   LIG A   1      -4.812   0.498  -2.706  0.00  0.00    +0.146 A 
ATOM      5  C   LIG A   1      -5.292  -0.315  -3.742  0.00  0.00    +0.047 A 
ATOM      6  C   LIG A   1      -5.894  -1.532  -3.451  0.00  0.00    +0.007 A 
ATOM      7  C   LIG A   1      -6.058  -1.921  -2.128  0.00  0.00    +0.047 A 
ATOM      8  C   LIG A   1      -5.591  -1.107  -1.089  0.00  0.00    +0.146 A 
BRANCH   4   9
ATOM      9  O   LIG A   1      -4.148   1.703  -3.037  0.00  0.00    -0.425 OA
BRANCH   9  10
ATOM     10  C   LIG A   1      -4.674   2.558  -4.009  0.00  0.00    +0.309 C 
ATOM     11  C   LIG A   1      -3.756   3.730  -4.198  0.00  0.00    +0.136 C 
ATOM     12  O   LIG A   1      -5.709   2.400  -4.644  0.00  0.00    -0.251 OA
ENDBRANCH   9  10
ENDBRANCH   4   9
BRANCH   8  13
ATOM     13  O   LIG A   1      -5.748  -1.512   0.257  0.00  0.00    -0.425 OA
BRANCH  13  14
ATOM     14  C   LIG A   1      -6.580  -2.555   0.682  0.00  0.00    +0.309 C 
ATOM     15  C   LIG A   1      -5.937  -3.169   1.892  0.00  0.00    +0.136 C 
ATOM     16  O   LIG A   1      -7.569  -2.982   0.127  0.00  0.00    -0.251 OA
ENDBRANCH  13  14
ENDBRANCH   8  13
ENDBRANCH   2   3
BRANCH   2  17
ATOM     17  C   LIG A   1      -3.502   0.118   0.890  0.00  0.00    +0.080 C 
BRANCH  17  18
ATOM     18  C   LIG A   1      -1.983   0.290   0.854  0.00  0.00    +0.008 C 
BRANCH  18  19
ATOM     19  C   LIG A   1      -1.243  -0.403   2.010  0.00  0.00    +0.000 C 
BRANCH  19  20
ATOM     20  C   LIG A   1       0.268  -0.174   1.869  0.00  0.00    +0.000 C 
BRANCH  20  21
ATOM     21  C   LIG A   1       1.087  -0.824   2.989  0.00  0.00    -0.000 C 
BRANCH  21  22
ATOM     22  C   LIG A   1       2.594  -0.563   2.843  0.00  0.00    -0.000 C 
BRANCH  22  23
ATOM     23  C   LIG A   1       2.955   0.928   2.898  0.00  0.00    +0.000 C 
BRANCH  23  24
ATOM     24  C   LIG A   1       4.455   1.208   2.764  0.00  0.00    +0.000 C 
BRANCH  24  25
ATOM     25  C   LIG A   1       5.012   0.701   1.435  0.00  0.00    +0.005 C 
BRANCH  25  26
ATOM     26  C   LIG A   1       6.509   0.952   1.294  0.00  0.00    +0.035 C 
BRANCH  26  27
ATOM     27  C   LIG A   1       6.999   0.396  -0.020  0.00  0.00    -0.047 A 
ATOM     28  C   LIG A   1       7.003   1.198  -1.168  0.00  0.00    +0.003 A 
ATOM     29  C   LIG A   1       7.412   0.673  -2.394  0.00  0.00    +0.000 A 
ATOM     30  C   LIG A   1       7.811  -0.659  -2.485  0.00  0.00    +0.000 A 
ATOM     31  C   LIG A   1       7.794  -1.471  -1.352  0.00  0.00    +0.000 A 
ATOM     32  C   LIG A   1       7.386  -0.948  -0.125  0.00  0.00    +0.003 A 
ENDBRANCH  26  27
ENDBRANCH  25  26
ENDBRANCH  24  25
ENDBRANCH  23  24
ENDBRANCH  22  23
ENDBRANCH  21  22
ENDBRANCH  20  21
ENDBRANCH  19  20
ENDBRANCH  18  19
ENDBRANCH  17  18
ENDBRANCH   2  17
TORSDOF 16
