@<TRIPOS>MOLECULE
NuBBE_306
 63 63 0 0 0
SMALL
GASTEIGER

@<TRIPOS>ATOM
      1 H          -2.3093    1.8144   -4.5823 H       1  LIG1        0.1226
      2 N          -2.6970    1.0305   -4.0504 N.3     1  LIG1       -0.3063
      3 CA         -1.8608   -0.1406   -4.3849 C.3     1  LIG1        0.0572
      4 HA         -1.3715    0.1452   -5.3284 H       1  LIG1        0.0509
      5 C          -2.8011   -1.2617   -4.8887 C.3     1  LIG1        0.0620
      6 O          -2.1222   -2.4676   -5.2155 O.3     1  LIG1       -0.3934
      7 C          -0.5926   -0.4305   -3.5179 C.3     1  LIG1        0.0727
      8 H           0.2834   -0.0785   -4.0717 H       1  LIG1        0.0609
      9 O          -0.3644   -1.8110   -3.2299 O.3     1  LIG1       -0.3902
     10 C          -0.4935    0.2881   -2.1871 C.3     1  LIG1       -0.0239
     11 C          -1.3297    1.5529   -2.0700 C.3     1  LIG1       -0.0352
     12 C          -2.7398    1.4457   -2.6439 C.3     1  LIG1        0.0081
     13 H          -3.0840    2.4914   -2.7230 H       1  LIG1        0.0460
     14 C          -3.8463    0.8339   -1.7290 C.3     1  LIG1       -0.0375
     15 C          -3.7563   -0.5798   -1.1156 C.3     1  LIG1       -0.0516
     16 C          -2.7416   -0.6649    0.0150 C.3     1  LIG1       -0.0530
     17 C          -2.4625   -2.0292    0.6345 C.3     1  LIG1       -0.0531
     18 C          -1.1616   -1.9927    1.4570 C.3     1  LIG1       -0.0531
     19 C          -1.1447   -0.9190    2.5552 C.3     1  LIG1       -0.0531
     20 C           0.1398   -0.9672    3.3937 C.3     1  LIG1       -0.0531
     21 C           1.3710   -0.7746    2.5068 C.3     1  LIG1       -0.0531
     22 C           2.6955   -0.7854    3.2558 C.3     1  LIG1       -0.0530
     23 C           3.8774   -0.5824    2.2988 C.3     1  LIG1       -0.0527
     24 C           3.9552    0.7652    1.5664 C.3     1  LIG1       -0.0464
     25 C           3.9788    2.0298    2.4285 C.3     1  LIG1        0.0055
     26 C           5.1936    2.1523    3.3500 C.2     1  LIG1        0.1303
     27 C           5.3504    3.4930    4.0429 C.3     1  LIG1       -0.0061
     28 O           5.9740    1.2636    3.5491 O.2     1  LIG1       -0.2977
     29 H1         -3.6136   -1.4807   -4.1885 H       1  LIG1        0.0573
     30 H2         -3.2851   -0.9133   -5.8156 H       1  LIG1        0.0573
     31 H          -2.7991   -3.1685   -5.1638 H       1  LIG1        0.2095
     32 H          -0.2737   -2.2763   -4.0806 H       1  LIG1        0.2098
     33 H           0.5384    0.5296   -1.9028 H       1  LIG1        0.0291
     34 H          -0.6761   -0.4982   -1.4762 H       1  LIG1        0.0291
     35 H          -0.7960    2.3314   -2.6359 H       1  LIG1        0.0281
     36 H          -1.3725    1.9295   -1.0401 H       1  LIG1        0.0281
     37 H          -4.7953    0.8871   -2.2812 H       1  LIG1        0.0280
     38 H          -3.9765    1.5342   -0.8896 H       1  LIG1        0.0280
     39 H          -3.5873   -1.3262   -1.8958 H       1  LIG1        0.0266
     40 H          -4.7303   -0.8087   -0.6615 H       1  LIG1        0.0266
     41 H          -2.9487    0.0908    0.7739 H       1  LIG1        0.0265
     42 H          -1.8046   -0.3349   -0.3437 H       1  LIG1        0.0265
     43 H          -2.3380   -2.7973   -0.1415 H       1  LIG1        0.0265
     44 H          -3.3008   -2.3173    1.2706 H       1  LIG1        0.0265
     45 H          -0.3332   -1.8101    0.7603 H       1  LIG1        0.0265
     46 H          -0.9787   -2.9755    1.9065 H       1  LIG1        0.0265
     47 H          -2.0185   -1.0475    3.2038 H       1  LIG1        0.0265
     48 H          -1.2193    0.0801    2.1085 H       1  LIG1        0.0265
     49 H           0.1997   -1.9328    3.9071 H       1  LIG1        0.0265
     50 H           0.0975   -0.1893    4.1668 H       1  LIG1        0.0265
     51 H           1.2563    0.1490    1.9297 H       1  LIG1        0.0265
     52 H           1.4205   -1.6047    1.7961 H       1  LIG1        0.0265
     53 H           2.8082   -1.7713    3.7266 H       1  LIG1        0.0265
     54 H           2.7088   -0.0458    4.0617 H       1  LIG1        0.0265
     55 H           3.8419   -1.3695    1.5329 H       1  LIG1        0.0265
     56 H           4.8055   -0.7590    2.8501 H       1  LIG1        0.0265
     57 H           3.1080    0.8465    0.8708 H       1  LIG1        0.0269
     58 H           4.8515    0.7556    0.9368 H       1  LIG1        0.0269
     59 H           3.0664    2.1241    3.0236 H       1  LIG1        0.0341
     60 H           4.0247    2.8918    1.7511 H       1  LIG1        0.0341
     61 H           4.6680    4.2359    3.6237 H       1  LIG1        0.0306
     62 H           6.3740    3.8464    3.8941 H       1  LIG1        0.0306
     63 H           5.1377    3.3737    5.1070 H       1  LIG1        0.0306
@<TRIPOS>BOND
     1     1     2    1
     2     2     3    1
     3     5     6    1
     4     3     7    1
     5     7     8    1
     6     7     9    1
     7     7    10    1
     8    10    11    1
     9    11    12    1
    10    12    13    1
    11     2    12    1
    12    12    14    1
    13    14    15    1
    14    15    16    1
    15    16    17    1
    16    17    18    1
    17    18    19    1
    18    19    20    1
    19    20    21    1
    20    21    22    1
    21    22    23    1
    22    23    24    1
    23    24    25    1
    24    25    26    1
    25    26    27    1
    26    26    28    2
    27     3     5    1
    28     3     4    1
    29     5    29    1
    30     5    30    1
    31     6    31    1
    32     9    32    1
    33    10    33    1
    34    10    34    1
    35    11    35    1
    36    11    36    1
    37    14    37    1
    38    14    38    1
    39    15    39    1
    40    15    40    1
    41    16    41    1
    42    16    42    1
    43    17    43    1
    44    17    44    1
    45    18    45    1
    46    18    46    1
    47    19    47    1
    48    19    48    1
    49    20    49    1
    50    20    50    1
    51    21    51    1
    52    21    52    1
    53    22    53    1
    54    22    54    1
    55    23    55    1
    56    23    56    1
    57    24    57    1
    58    24    58    1
    59    25    59    1
    60    25    60    1
    61    27    61    1
    62    27    62    1
    63    27    63    1
