@<TRIPOS>MOLECULE
NuBBE_830
 52 56 0 0 0
SMALL
GASTEIGER

@<TRIPOS>ATOM
      1 O           1.0182    3.1898   -1.6873 O.2     1  LIG1       -0.2503
      2 C           1.1253    2.6110   -0.6149 C.2     1  LIG1        0.3154
      3 C           1.7426    1.2596   -0.4843 C.3     1  LIG1        0.1093
      4 H           2.7935    1.4462   -0.2061 H       1  LIG1        0.0461
      5 C           1.7436    0.3083   -1.6458 C.3     1  LIG1        0.1173
      6 O           2.2238   -0.8931   -1.0024 O.3     1  LIG1       -0.4601
      7 C           1.8671   -0.8446    0.3277 C.2     1  LIG1        0.3149
      8 O           2.1488   -1.6884    1.1607 O.2     1  LIG1       -0.2502
      9 H           2.4577    0.6098   -2.4195 H       1  LIG1        0.0742
     10 C           0.3628    0.0485   -2.2523 C.3     1  LIG1       -0.0107
     11 C          -0.7120   -0.4301   -1.2400 C.3     1  LIG1       -0.0183
     12 H          -1.6240    0.1138   -1.5373 H       1  LIG1        0.0315
     13 C          -1.1263   -1.9520   -1.4025 C.3     1  LIG1        0.0682
     14 C           0.0563   -2.9338   -1.5188 C.3     1  LIG1       -0.0491
     15 C          -1.9785   -2.1058   -2.6890 C.2     1  LIG1        0.3131
     16 O          -2.3623   -3.4015   -2.8714 O.3     1  LIG1       -0.4675
     17 C          -3.1899   -3.6540   -4.0098 C.3     1  LIG1        0.0817
     18 O          -2.2943   -1.1844   -3.4304 O.2     1  LIG1       -0.2502
     19 C          -2.0314   -2.3840   -0.2284 C.3     1  LIG1       -0.0372
     20 C          -1.4232   -2.0705    1.1277 C.3     1  LIG1       -0.0518
     21 C          -1.2670   -0.5740    1.3024 C.3     1  LIG1       -0.0489
     22 C          -0.4514    0.1271    0.2029 C.3     1  LIG1       -0.0203
     23 H          -0.9011    1.1312    0.1680 H       1  LIG1        0.0315
     24 C           1.0525    0.3987    0.5543 C.3     1  LIG1        0.0907
     25 C           1.3165    1.1130    1.8727 C.3     1  LIG1        0.0056
     26 C           0.7013    2.5220    1.8413 C.3     1  LIG1        0.1320
     27 H          -0.3792    2.4300    2.0128 H       1  LIG1        0.0786
     28 C           1.2524    3.3796    2.9377 C.ar    1  LIG1        0.0304
     29 C           0.7511    3.5164    4.2179 C.ar    1  LIG1        0.0983
     30 O           1.5072    4.3766    4.9449 O.2     1  LIG1       -0.4706
     31 C           2.5061    4.8065    4.1346 C.ar    1  LIG1        0.0921
     32 C           2.3997    4.2245    2.8937 C.ar    1  LIG1       -0.0172
     33 O           0.8119    3.2099    0.5599 O.3     1  LIG1       -0.4561
     34 H           0.4603   -0.6665   -3.0758 H       1  LIG1        0.0304
     35 H           0.0086    0.9766   -2.7183 H       1  LIG1        0.0304
     36 H          -0.2923   -3.9673   -1.6365 H       1  LIG1        0.0240
     37 H           0.6851   -2.9374   -0.6297 H       1  LIG1        0.0240
     38 H           0.6834   -2.7272   -2.3909 H       1  LIG1        0.0240
     39 H          -2.9809   -2.9793   -4.8455 H       1  LIG1        0.0661
     40 H          -4.2390   -3.5764   -3.7112 H       1  LIG1        0.0661
     41 H          -2.9972   -4.6772   -4.3445 H       1  LIG1        0.0661
     42 H          -2.2417   -3.4603   -0.2784 H       1  LIG1        0.0276
     43 H          -3.0084   -1.8874   -0.3099 H       1  LIG1        0.0276
     44 H          -0.4640   -2.5787    1.2615 H       1  LIG1        0.0266
     45 H          -2.0867   -2.4531    1.9125 H       1  LIG1        0.0266
     46 H          -0.8730   -0.3698    2.3006 H       1  LIG1        0.0268
     47 H          -2.2747   -0.1343    1.3008 H       1  LIG1        0.0268
     48 H           2.4026    1.1862    2.0338 H       1  LIG1        0.0315
     49 H           0.9565    0.5480    2.7391 H       1  LIG1        0.0315
     50 H          -0.0947    3.0911    4.7413 H       1  LIG1        0.1033
     51 H           3.1967    5.5115    4.5764 H       1  LIG1        0.1029
     52 H           3.0615    4.3951    2.0556 H       1  LIG1        0.0653
@<TRIPOS>BOND
     1     2     3    1
     2     3     5    1
     3     5     6    1
     4     6     7    1
     5     5    10    1
     6    10    11    1
     7    11    13    1
     8    15    16    1
     9    16    17    1
    10    15    18    2
    11    13    19    1
    12    19    20    1
    13    20    21    1
    14    21    22    1
    15    11    22    1
    16    22    24    1
    17     7    24    1
    18     3    24    1
    19    24    25    1
    20    25    26    1
    21    28    29   ar
    22    29    30   ar
    23    30    31   ar
    24    31    32   ar
    25    28    32   ar
    26    26    33    1
    27     2    33    1
    28     1     2    2
    29     3     4    1
    30     5     9    1
    31     7     8    2
    32    11    12    1
    33    13    14    1
    34    13    15    1
    35    22    23    1
    36    26    28    1
    37    26    27    1
    38    10    34    1
    39    10    35    1
    40    14    36    1
    41    14    37    1
    42    14    38    1
    43    17    39    1
    44    17    40    1
    45    17    41    1
    46    19    42    1
    47    19    43    1
    48    20    44    1
    49    20    45    1
    50    21    46    1
    51    21    47    1
    52    25    48    1
    53    25    49    1
    54    29    50    1
    55    31    51    1
    56    32    52    1
