REMARK  Name = NuBBE_222
REMARK  20 active torsions:
REMARK  status: ('A' for Active; 'I' for Inactive)
REMARK    1  A    between atoms: C_1  and  C_2
REMARK    2  A    between atoms: C_4  and  O_6
REMARK    3  A    between atoms: O_6  and  C_7
REMARK    4  A    between atoms: C_7  and  C_8
REMARK    5  A    between atoms: C_8  and  C_9
REMARK    6  A    between atoms: C_9  and  C_10
REMARK    7  A    between atoms: C_12  and  O_14
REMARK    8  A    between atoms: C_17  and  O_19
REMARK    9  A    between atoms: O_19  and  C_20
REMARK   10  A    between atoms: C_20  and  C_21
REMARK   11  A    between atoms: C_24  and  O_26
REMARK   12  A    between atoms: O_26  and  C_27
REMARK   13  A    between atoms: C_27  and  C_28
REMARK   14  A    between atoms: C_31  and  O_33
REMARK   15  A    between atoms: O_33  and  C_34
REMARK   16  A    between atoms: C_38  and  C_39
REMARK   17  A    between atoms: C_38  and  C_40
REMARK   18  A    between atoms: C_40  and  C_41
REMARK   19  A    between atoms: C_42  and  C_43
REMARK   20  A    between atoms: C_42  and  C_45
REMARK                            x       y       z     vdW  Elec       q    Type
REMARK                         _______ _______ _______ _____ _____    ______ ____
ROOT
ATOM      1  C   LIG A   1       0.822   0.908   3.363  0.00  0.00    +0.012 C 
ATOM      2  C   LIG A   1      -0.197   1.195   2.248  0.00  0.00    +0.036 C 
ATOM      3  C   LIG A   1      -1.298   0.118   2.266  0.00  0.00    +0.209 C 
ATOM      4  C   LIG A   1      -0.782  -1.241   1.756  0.00  0.00    +0.172 C 
ATOM      5  C   LIG A   1       0.117  -1.202   0.461  0.00  0.00    +0.093 C 
ATOM      6  C   LIG A   1      -0.452  -2.238  -0.495  0.00  0.00    +0.011 C 
ATOM      7  C   LIG A   1      -0.042  -3.605  -0.009  0.00  0.00    +0.343 C 
ATOM      8  O   LIG A   1       1.207  -3.372   0.676  0.00  0.00    -0.297 OA
ATOM      9  C   LIG A   1       1.491  -1.946   0.662  0.00  0.00    +0.327 C 
ATOM     10  C   LIG A   1      -1.045  -1.966  -1.663  0.00  0.00    +0.010 C 
ATOM     11  C   LIG A   1      -1.243  -0.640  -2.259  0.00  0.00    +0.141 C 
ATOM     12  C   LIG A   1      -0.713   0.504  -1.400  0.00  0.00    +0.041 C 
ATOM     13  C   LIG A   1       0.262   0.220  -0.205  0.00  0.00    +0.017 C 
ATOM     14  C   LIG A   1       0.388   1.476   0.800  0.00  0.00    -0.019 C 
ATOM     15  C   LIG A   1      -0.420   2.712   0.269  0.00  0.00    +0.012 C 
ENDROOT
BRANCH   4  16
ATOM     16  O   LIG A   1      -0.070  -1.888   2.829  0.00  0.00    -0.387 OA
ATOM     17  H   LIG A   1      -0.692  -2.084   3.554  0.00  0.00    +0.210 HD
ENDBRANCH   4  16
BRANCH  11  18
ATOM     18  O   LIG A   1      -0.638  -0.748  -3.550  0.00  0.00    -0.376 OA
ATOM     19  C   LIG A   1      -0.786   0.395  -4.373  0.00  0.00    +0.194 C 
ENDBRANCH  11  18
BRANCH   3  20
ATOM     20  O   LIG A   1      -2.474   0.570   1.553  0.00  0.00    -0.458 OA
BRANCH  20  21
ATOM     21  C   LIG A   1      -3.294   1.373   2.301  0.00  0.00    +0.307 C 
ATOM     22  O   LIG A   1      -3.099   1.671   3.478  0.00  0.00    -0.251 OA
BRANCH  21  23
ATOM     23  C   LIG A   1      -4.482   1.879   1.538  0.00  0.00    +0.120 C 
BRANCH  23  24
ATOM     24  C   LIG A   1      -5.762   1.419   2.232  0.00  0.00    +0.008 C 
ATOM     25  C   LIG A   1      -6.993   1.982   1.546  0.00  0.00    +0.004 C 
ENDBRANCH  23  24
ENDBRANCH  21  23
ENDBRANCH  20  21
ENDBRANCH   3  20
BRANCH   7  26
ATOM     26  O   LIG A   1       0.165  -4.526  -1.086  0.00  0.00    -0.431 OA
BRANCH  26  27
ATOM     27  C   LIG A   1      -0.944  -4.956  -1.755  0.00  0.00    +0.306 C 
ATOM     28  C   LIG A   1      -0.548  -5.393  -3.141  0.00  0.00    +0.136 C 
ATOM     29  O   LIG A   1      -2.099  -4.863  -1.376  0.00  0.00    -0.251 OA
ENDBRANCH  26  27
ENDBRANCH   7  26
BRANCH   9  30
ATOM     30  O   LIG A   1       2.376  -1.713  -0.449  0.00  0.00    -0.434 OA
BRANCH  30  31
ATOM     31  C   LIG A   1       3.710  -1.839  -0.186  0.00  0.00    +0.306 C 
ATOM     32  C   LIG A   1       4.322  -2.663  -1.290  0.00  0.00    +0.136 C 
ATOM     33  O   LIG A   1       4.305  -1.387   0.760  0.00  0.00    -0.251 OA
ENDBRANCH  30  31
ENDBRANCH   9  30
BRANCH  14  34
ATOM     34  C   LIG A   1       1.895   1.961   0.900  0.00  0.00    +0.034 C 
BRANCH  34  35
ATOM     35  C   LIG A   1       2.504   2.509  -0.373  0.00  0.00    -0.023 C 
ATOM     36  C   LIG A   1       3.777   2.540  -0.811  0.00  0.00    -0.055 C 
ATOM     37  C   LIG A   1       4.056   3.145  -2.171  0.00  0.00    +0.043 C 
BRANCH  36  38
ATOM     38  C   LIG A   1       4.949   2.012  -0.140  0.00  0.00    -0.005 C 
ATOM     39  C   LIG A   1       5.189   2.022   1.177  0.00  0.00    +0.008 C 
ENDBRANCH  36  38
ENDBRANCH  34  35
ENDBRANCH  14  34
TORSDOF 13
