@<TRIPOS>MOLECULE
NuBBE_1879
 57 59 0 0 0
SMALL
GASTEIGER

@<TRIPOS>ATOM
      1 O          -3.3373   -0.7169    0.6116 O.2     1  LIG1       -0.2830
      2 C          -2.1935   -0.5211    0.1601 C.ar    1  LIG1        0.2382
      3 C          -1.3403   -1.6498   -0.1623 C.ar    1  LIG1        0.1138
      4 C          -1.7541   -2.9290   -0.5868 C.ar    1  LIG1        0.1911
      5 C          -0.8042   -3.9232   -0.8873 C.ar    1  LIG1        0.2052
      6 O          -1.2549   -5.0793   -1.4860 O.3     1  LIG1       -0.4885
      7 C          -0.7238   -6.2871   -0.9358 C.3     1  LIG1        0.0791
      8 C           0.5687   -3.6614   -0.7049 C.ar    1  LIG1        0.1687
      9 C           0.9708   -2.3953   -0.2875 C.ar    1  LIG1        0.0270
     10 C           0.0320   -1.4062   -0.0421 C.ar    1  LIG1        0.1468
     11 O           0.5279   -0.1760    0.2766 O.2     1  LIG1       -0.4505
     12 C          -0.2637    0.9095   -0.0119 C.ar    1  LIG1        0.1844
     13 C           0.5401    2.1102   -0.2713 C.ar    1  LIG1        0.0665
     14 C           1.0184    2.2893   -1.5798 C.ar    1  LIG1       -0.0437
     15 C           1.8844    3.3382   -1.8689 C.ar    1  LIG1       -0.0154
     16 C           2.3503    4.1711   -0.8423 C.ar    1  LIG1        0.1652
     17 C           1.8886    3.9959    0.4859 C.ar    1  LIG1        0.2042
     18 O           2.3255    4.9084    1.4091 O.3     1  LIG1       -0.4885
     19 C           2.8305    4.4287    2.6511 C.3     1  LIG1        0.0791
     20 C           0.9324    2.9952    0.7606 C.ar    1  LIG1        0.1759
     21 O           0.3561    2.7327    1.9792 O.3     1  LIG1       -0.4906
     22 C           0.0076    3.8270    2.8189 C.3     1  LIG1        0.0790
     23 O           3.2389    5.1275   -1.2830 O.3     1  LIG1       -0.4913
     24 C           4.1856    5.5994   -0.3294 C.3     1  LIG1        0.0790
     25 C          -1.5956    0.8346   -0.0605 C.ar    1  LIG1        0.2108
     26 O          -2.3679    1.9742   -0.3918 O.3     1  LIG1       -0.4883
     27 C          -3.6994    1.9744    0.1167 C.3     1  LIG1        0.0791
     28 O           1.4717   -4.6265   -1.0587 O.3     1  LIG1       -0.4912
     29 C           2.7058   -4.5994   -0.3501 C.3     1  LIG1        0.0790
     30 O          -3.1212   -3.1171   -0.9168 O.3     1  LIG1       -0.4213
     31 C          -3.7135   -4.3537   -0.6467 C.2     1  LIG1        0.3093
     32 C          -4.8827   -4.5597   -1.5659 C.3     1  LIG1        0.0336
     33 O          -3.3687   -5.1619    0.2066 O.2     1  LIG1       -0.2507
     34 H          -1.4735   -7.0754   -1.0593 H       1  LIG1        0.0660
     35 H          -0.4947   -6.2115    0.1344 H       1  LIG1        0.0660
     36 H           0.1580   -6.5926   -1.5059 H       1  LIG1        0.0660
     37 H           2.0177   -2.1222   -0.2007 H       1  LIG1        0.0692
     38 H           0.7264    1.6007   -2.3713 H       1  LIG1        0.0627
     39 H           2.2202    3.4873   -2.8944 H       1  LIG1        0.0655
     40 H           3.8995    4.6432    2.7275 H       1  LIG1        0.0660
     41 H           2.6730    3.3619    2.8295 H       1  LIG1        0.0660
     42 H           2.3377    5.0176    3.4334 H       1  LIG1        0.0660
     43 H          -1.0554    3.7761    3.0598 H       1  LIG1        0.0660
     44 H           0.1973    4.8170    2.3961 H       1  LIG1        0.0660
     45 H           0.5532    3.7049    3.7613 H       1  LIG1        0.0660
     46 H           4.9586    6.1668   -0.8552 H       1  LIG1        0.0660
     47 H           4.6751    4.7656    0.1869 H       1  LIG1        0.0660
     48 H           3.7277    6.3030    0.3719 H       1  LIG1        0.0660
     49 H          -4.1499    2.9448   -0.1112 H       1  LIG1        0.0660
     50 H          -3.6980    1.8495    1.2039 H       1  LIG1        0.0660
     51 H          -4.3107    1.2138   -0.3783 H       1  LIG1        0.0660
     52 H           3.2702   -5.4910   -0.6335 H       1  LIG1        0.0660
     53 H           2.5394   -4.6274    0.7327 H       1  LIG1        0.0660
     54 H           3.3067   -3.7312   -0.6354 H       1  LIG1        0.0660
     55 H          -4.8228   -3.8904   -2.4296 H       1  LIG1        0.0342
     56 H          -5.8086   -4.3779   -1.0194 H       1  LIG1        0.0342
     57 H          -4.8614   -5.5850   -1.9498 H       1  LIG1        0.0342
@<TRIPOS>BOND
     1     1     2    2
     2     2     3   ar
     3     3     4   ar
     4     4     5   ar
     5     5     6    1
     6     6     7    1
     7     5     8   ar
     8     8     9   ar
     9     9    10   ar
    10     3    10   ar
    11    10    11   ar
    12    11    12   ar
    13    12    13    1
    14    13    14   ar
    15    14    15   ar
    16    15    16   ar
    17    16    17   ar
    18    17    18    1
    19    18    19    1
    20    17    20   ar
    21    13    20   ar
    22    20    21    1
    23    21    22    1
    24    16    23    1
    25    23    24    1
    26    12    25   ar
    27     2    25   ar
    28    25    26    1
    29    26    27    1
    30     8    28    1
    31    28    29    1
    32     4    30    1
    33    30    31    1
    34    31    32    1
    35    31    33    2
    36     7    34    1
    37     7    35    1
    38     7    36    1
    39     9    37    1
    40    14    38    1
    41    15    39    1
    42    19    40    1
    43    19    41    1
    44    19    42    1
    45    22    43    1
    46    22    44    1
    47    22    45    1
    48    24    46    1
    49    24    47    1
    50    24    48    1
    51    27    49    1
    52    27    50    1
    53    27    51    1
    54    29    52    1
    55    29    53    1
    56    29    54    1
    57    32    55    1
    58    32    56    1
    59    32    57    1
