REMARK  Name = NuBBE_35
REMARK  10 active torsions:
REMARK  status: ('A' for Active; 'I' for Inactive)
REMARK    1  A    between atoms: C_1  and  O_2
REMARK    2  A    between atoms: O_2  and  C_3
REMARK    3  A    between atoms: C_10  and  C_11
REMARK    4  A    between atoms: C_17  and  C_19
REMARK    5  A    between atoms: C_21  and  O_22
REMARK    6  A    between atoms: O_22  and  C_23
REMARK    7  A    between atoms: C_24  and  O_25
REMARK    8  A    between atoms: O_25  and  C_26
REMARK    9  A    between atoms: C_27  and  O_28
REMARK   10  A    between atoms: O_28  and  C_29
REMARK                            x       y       z     vdW  Elec       q    Type
REMARK                         _______ _______ _______ _____ _____    ______ ____
ROOT
ATOM      1  C   LIG A   1      -0.259   0.557   3.587  0.00  0.00    +0.154 C 
ATOM      2  C   LIG A   1      -1.501   0.020   2.863  0.00  0.00    +0.056 C 
ATOM      3  C   LIG A   1      -2.205   0.865   1.829  0.00  0.00    +0.167 C 
ATOM      4  O   LIG A   1      -1.513   0.684   0.588  0.00  0.00    -0.371 OA
ATOM      5  C   LIG A   1      -0.678  -0.487   0.689  0.00  0.00    +0.154 C 
ATOM      6  C   LIG A   1      -0.979  -1.130   2.045  0.00  0.00    +0.056 C 
ATOM      7  C   LIG A   1       0.232  -1.613   2.806  0.00  0.00    +0.167 C 
ATOM      8  O   LIG A   1       0.643  -0.569   3.697  0.00  0.00    -0.371 OA
ENDROOT
BRANCH   1  16
ATOM      9  C   LIG A   1       2.316   2.679   1.637  0.00  0.00    +0.166 A 
ATOM     10  C   LIG A   1       1.858   3.950   1.975  0.00  0.00    +0.207 A 
ATOM     11  O   LIG A   1       2.389   5.138   1.601  0.00  0.00    -0.449 OA
ATOM     12  C   LIG A   1       1.515   6.074   2.277  0.00  0.00    +0.467 C 
ATOM     13  O   LIG A   1       0.489   5.430   3.051  0.00  0.00    -0.453 OA
ATOM     14  C   LIG A   1       0.772   4.107   2.804  0.00  0.00    +0.170 A 
ATOM     15  C   LIG A   1       0.064   3.050   3.330  0.00  0.00    +0.056 A 
ATOM     16  C   LIG A   1       0.494   1.746   3.021  0.00  0.00    -0.011 A 
ATOM     17  C   LIG A   1       1.640   1.598   2.207  0.00  0.00    +0.056 A 
BRANCH   9  19
ATOM     18  C   LIG A   1       3.711   3.327  -0.154  0.00  0.00    +0.277 C 
ATOM     19  O   LIG A   1       3.368   2.364   0.838  0.00  0.00    -0.491 OA
ENDBRANCH   9  19
ENDBRANCH   1  16
BRANCH   5  20
ATOM     20  C   LIG A   1      -0.871  -1.340  -0.545  0.00  0.00    -0.011 A 
ATOM     21  C   LIG A   1      -1.863  -2.317  -0.655  0.00  0.00    +0.056 A 
ATOM     22  C   LIG A   1      -2.020  -3.079  -1.825  0.00  0.00    +0.166 A 
ATOM     23  C   LIG A   1      -1.188  -2.840  -2.936  0.00  0.00    +0.203 A 
ATOM     24  C   LIG A   1      -0.209  -1.828  -2.857  0.00  0.00    +0.166 A 
ATOM     25  C   LIG A   1      -0.054  -1.105  -1.663  0.00  0.00    +0.056 A 
BRANCH  22  26
ATOM     26  O   LIG A   1      -3.034  -3.998  -1.698  0.00  0.00    -0.491 OA
ATOM     27  C   LIG A   1      -3.297  -4.871  -2.787  0.00  0.00    +0.277 C 
ENDBRANCH  22  26
BRANCH  23  28
ATOM     28  O   LIG A   1      -1.475  -3.534  -4.082  0.00  0.00    -0.488 OA
ATOM     29  C   LIG A   1      -0.431  -3.915  -4.964  0.00  0.00    +0.277 C 
ENDBRANCH  23  28
BRANCH  24  30
ATOM     30  O   LIG A   1       0.519  -1.571  -3.990  0.00  0.00    -0.491 OA
ATOM     31  C   LIG A   1       1.513  -0.558  -3.940  0.00  0.00    +0.277 C 
ENDBRANCH  24  30
ENDBRANCH   5  20
TORSDOF 6
