@<TRIPOS>MOLECULE
NuBBE_589
 45 49 0 0 0
SMALL
GASTEIGER

@<TRIPOS>ATOM
      1 O           1.2622    0.2996   -1.7597 O.3     1  LIG1       -0.3789
      2 C           0.6843   -0.2430   -0.5523 C.3     1  LIG1        0.1225
      3 C           1.2085    0.6587    0.5627 C.ar    1  LIG1        0.0372
      4 C           0.9774    2.0349    0.5445 C.ar    1  LIG1        0.1727
      5 C           1.4161    2.8813    1.5374 C.ar    1  LIG1        0.1666
      6 C           2.1379    2.4214    2.6118 C.ar    1  LIG1       -0.0159
      7 C           2.4133    1.0548    2.6649 C.ar    1  LIG1       -0.0545
      8 C           1.9486    0.1686    1.6603 C.ar    1  LIG1       -0.0371
      9 C           2.3280   -1.2866    1.7689 C.3     1  LIG1       -0.0243
     10 C           1.3675   -2.2192    1.0255 C.3     1  LIG1       -0.0341
     11 H           1.8377   -3.2121    0.9911 H       1  LIG1        0.0305
     12 C           1.1449   -1.7432   -0.4318 C.3     1  LIG1       -0.0036
     13 H           0.3710   -2.3925   -0.8661 H       1  LIG1        0.0335
     14 C           2.4074   -2.0460   -1.2673 C.3     1  LIG1       -0.0589
     15 C           0.0698   -2.4180    1.8142 C.3     1  LIG1       -0.0618
     16 O           1.0634    4.1764    1.3211 O.3     1  LIG1       -0.4526
     17 C           0.3251    4.0556    0.0911 C.3     1  LIG1        0.2332
     18 O           0.3114    2.7144   -0.4366 O.3     1  LIG1       -0.4522
     19 C          -0.8469   -0.1880   -0.7664 C.ar    1  LIG1       -0.0076
     20 C          -1.3731   -0.4688   -2.0479 C.ar    1  LIG1       -0.0099
     21 C          -2.7343   -0.3773   -2.2482 C.ar    1  LIG1        0.1666
     22 C          -3.5923   -0.0426   -1.2304 C.ar    1  LIG1        0.1662
     23 C          -3.1363    0.2149    0.0409 C.ar    1  LIG1       -0.0158
     24 C          -1.7560    0.1434    0.2703 C.ar    1  LIG1       -0.0518
     25 O          -4.8885    0.0035   -1.6383 O.3     1  LIG1       -0.4526
     26 C          -4.7418   -0.3100   -3.0392 C.3     1  LIG1        0.2332
     27 O          -3.3799   -0.5835   -3.4266 O.3     1  LIG1       -0.4526
     28 H           0.9077    1.2050   -1.8384 H       1  LIG1        0.2111
     29 H           2.4886    3.0983    3.3824 H       1  LIG1        0.0655
     30 H           3.0009    0.6707    3.4975 H       1  LIG1        0.0622
     31 H           2.3747   -1.5829    2.8246 H       1  LIG1        0.0316
     32 H           3.3426   -1.3989    1.3667 H       1  LIG1        0.0316
     33 H           3.2419   -1.3898   -1.0020 H       1  LIG1        0.0234
     34 H           2.2036   -1.9262   -2.3371 H       1  LIG1        0.0234
     35 H           2.7313   -3.0827   -1.1236 H       1  LIG1        0.0234
     36 H          -0.3936   -1.4747    2.1064 H       1  LIG1        0.0233
     37 H           0.2761   -2.9672    2.7402 H       1  LIG1        0.0233
     38 H          -0.6555   -3.0031    1.2403 H       1  LIG1        0.0233
     39 H           0.7732    4.7207   -0.6554 H       1  LIG1        0.1166
     40 H          -0.7095    4.3728    0.2682 H       1  LIG1        0.1166
     41 H          -0.7228   -0.7350   -2.8767 H       1  LIG1        0.0659
     42 H          -3.8236    0.4770    0.8379 H       1  LIG1        0.0655
     43 H          -1.3961    0.3694    1.2717 H       1  LIG1        0.0622
     44 H          -5.1098    0.5385   -3.6281 H       1  LIG1        0.1166
     45 H          -5.3550   -1.1888   -3.2687 H       1  LIG1        0.1166
@<TRIPOS>BOND
     1     2     3    1
     2     3     4   ar
     3     4     5   ar
     4     5     6   ar
     5     6     7   ar
     6     7     8   ar
     7     3     8   ar
     8     8     9    1
     9     9    10    1
    10    10    12    1
    11     2    12    1
    12     5    16    1
    13    16    17    1
    14    17    18    1
    15     4    18    1
    16    19    20   ar
    17    20    21   ar
    18    21    22   ar
    19    22    23   ar
    20    23    24   ar
    21    19    24   ar
    22    22    25    1
    23    25    26    1
    24    26    27    1
    25    21    27    1
    26    10    15    1
    27    10    11    1
    28     2    19    1
    29     2     1    1
    30    12    14    1
    31    12    13    1
    32     1    28    1
    33     6    29    1
    34     7    30    1
    35     9    31    1
    36     9    32    1
    37    14    33    1
    38    14    34    1
    39    14    35    1
    40    15    36    1
    41    15    37    1
    42    15    38    1
    43    17    39    1
    44    17    40    1
    45    20    41    1
    46    23    42    1
    47    24    43    1
    48    26    44    1
    49    26    45    1
