REMARK  Name = NuBBE_1138
REMARK  6 active torsions:
REMARK  status: ('A' for Active; 'I' for Inactive)
REMARK    1  A    between atoms: C_1  and  C_2
REMARK    2  A    between atoms: C_2  and  C_20
REMARK    3  A    between atoms: C_13  and  C_15
REMARK    4  A    between atoms: C_16  and  C_17
REMARK    5  A    between atoms: C_16  and  C_18
REMARK    6  A    between atoms: C_21  and  C_22
REMARK                            x       y       z     vdW  Elec       q    Type
REMARK                         _______ _______ _______ _____ _____    ______ ____
ROOT
ATOM      1  C   LIG A   1       1.016  -0.562   2.901  0.00  0.00    +0.020 C 
ATOM      2  C   LIG A   1       0.755  -0.216   1.427  0.00  0.00    +0.012 C 
ATOM      3  C   LIG A   1       1.258  -1.305   0.493  0.00  0.00    -0.033 A 
ATOM      4  C   LIG A   1       1.023  -2.677   0.594  0.00  0.00    +0.014 A 
ATOM      5  C   LIG A   1       1.563  -3.519  -0.400  0.00  0.00    -0.000 A 
ATOM      6  C   LIG A   1       1.538  -4.926  -0.613  0.00  0.00    +0.027 A 
ATOM      7  C   LIG A   1       2.233  -5.190  -1.771  0.00  0.00    +0.083 A 
ATOM      8  N   LIG A   1       2.682  -3.996  -2.270  0.00  0.00    -0.361 N 
ATOM      9  H   LIG A   1       3.223  -3.885  -3.116  0.00  0.00    +0.165 HD
ATOM     10  C   LIG A   1       2.291  -2.957  -1.454  0.00  0.00    +0.047 A 
ATOM     11  C   LIG A   1       2.522  -1.580  -1.578  0.00  0.00    +0.030 A 
ATOM     12  C   LIG A   1       2.001  -0.772  -0.569  0.00  0.00    -0.035 A 
ATOM     13  C   LIG A   1       2.070   0.736  -0.479  0.00  0.00    +0.043 C 
ATOM     14  C   LIG A   1       1.687   0.957   1.002  0.00  0.00    +0.027 C 
ENDROOT
BRANCH  13  15
ATOM     15  C   LIG A   1       3.430   1.313  -0.778  0.00  0.00    -0.020 C 
ATOM     16  C   LIG A   1       3.715   2.513  -1.323  0.00  0.00    -0.079 C 
ATOM     17  C   LIG A   1       2.698   3.539  -1.738  0.00  0.00    +0.038 C 
ATOM     18  C   LIG A   1       5.146   2.939  -1.533  0.00  0.00    +0.038 C 
ENDBRANCH  13  15
BRANCH   2  19
ATOM     19  C   LIG A   1      -0.697   0.122   1.119  0.00  0.00    -0.015 C 
ATOM     20  C   LIG A   1      -1.756   0.025   1.950  0.00  0.00    +0.005 C 
BRANCH  20  21
ATOM     21  C   LIG A   1      -3.133   0.369   1.558  0.00  0.00    -0.023 A 
ATOM     22  C   LIG A   1      -3.581   0.177   0.243  0.00  0.00    +0.034 A 
ATOM     23  C   LIG A   1      -4.898   0.531  -0.071  0.00  0.00    +0.047 A 
ATOM     24  C   LIG A   1      -5.789   1.036   0.873  0.00  0.00    -0.000 A 
ATOM     25  C   LIG A   1      -7.015   1.281   0.195  0.00  0.00    +0.027 A 
ATOM     26  C   LIG A   1      -6.844   0.929  -1.125  0.00  0.00    +0.083 A 
ATOM     27  N   LIG A   1      -5.563   0.472  -1.273  0.00  0.00    -0.361 N 
ATOM     28  H   LIG A   1      -5.151   0.146  -2.136  0.00  0.00    +0.165 HD
ATOM     29  C   LIG A   1      -5.346   1.192   2.200  0.00  0.00    +0.010 A 
ATOM     30  C   LIG A   1      -4.023   0.852   2.528  0.00  0.00    +0.008 A 
ENDBRANCH  20  21
ENDBRANCH   2  19
TORSDOF 3
