@<TRIPOS>MOLECULE
NuBBE_2142
 32 31 0 0 0
SMALL
GASTEIGER

@<TRIPOS>ATOM
      1 O          -0.1530    4.9855   -3.7595 O.3     1  LIG1       -0.4806
      2 C           0.1180    3.7576   -4.2533 C.2     1  LIG1        0.3047
      3 C           0.8462    2.8675   -3.2806 C.3     1  LIG1        0.0448
      4 C          -0.1401    2.0932   -2.4145 C.3     1  LIG1       -0.0430
      5 C           0.5942    1.1884   -1.4251 C.3     1  LIG1       -0.0526
      6 C          -0.3800    0.4013   -0.5481 C.3     1  LIG1       -0.0530
      7 C           0.3688   -0.4902    0.4455 C.3     1  LIG1       -0.0531
      8 C          -0.6018   -1.2893    1.3168 C.3     1  LIG1       -0.0531
      9 C           0.1414   -2.1723    2.3225 C.3     1  LIG1       -0.0533
     10 C          -0.8341   -2.9829    3.1769 C.3     1  LIG1       -0.0559
     11 C          -0.1094   -3.8588    4.1872 C.3     1  LIG1       -0.0653
     12 O          -0.2273    3.4076   -5.3720 O.2     1  LIG1       -0.2510
     13 H           0.1655    5.1260   -2.8482 H       1  LIG1        0.2951
     14 H           1.5271    3.4719   -2.6704 H       1  LIG1        0.0377
     15 H           1.4789    2.1841   -3.8590 H       1  LIG1        0.0377
     16 H          -0.7984    1.4908   -3.0530 H       1  LIG1        0.0270
     17 H          -0.7871    2.7929   -1.8708 H       1  LIG1        0.0270
     18 H           1.2486    1.7975   -0.7897 H       1  LIG1        0.0265
     19 H           1.2367    0.4901   -1.9753 H       1  LIG1        0.0265
     20 H          -1.0289   -0.2160   -1.1813 H       1  LIG1        0.0265
     21 H          -1.0282    1.0970   -0.0014 H       1  LIG1        0.0265
     22 H           1.0107    0.1302    1.0828 H       1  LIG1        0.0265
     23 H           1.0249   -1.1789   -0.1008 H       1  LIG1        0.0265
     24 H          -1.2361   -1.9148    0.6770 H       1  LIG1        0.0265
     25 H          -1.2643   -0.5995    1.8535 H       1  LIG1        0.0265
     26 H           0.7659   -1.5452    2.9703 H       1  LIG1        0.0265
     27 H           0.8134   -2.8538    1.7869 H       1  LIG1        0.0265
     28 H          -1.4512   -3.6187    2.5313 H       1  LIG1        0.0263
     29 H          -1.5126   -2.3071    3.7104 H       1  LIG1        0.0263
     30 H           0.5577   -4.5680    3.6869 H       1  LIG1        0.0230
     31 H          -0.8321   -4.4322    4.7768 H       1  LIG1        0.0230
     32 H           0.4865   -3.2538    4.8780 H       1  LIG1        0.0230
@<TRIPOS>BOND
     1     1     2    1
     2     2     3    1
     3     3     4    1
     4     4     5    1
     5     5     6    1
     6     6     7    1
     7     7     8    1
     8     8     9    1
     9     9    10    1
    10    10    11    1
    11     2    12    2
    12     1    13    1
    13     3    14    1
    14     3    15    1
    15     4    16    1
    16     4    17    1
    17     5    18    1
    18     5    19    1
    19     6    20    1
    20     6    21    1
    21     7    22    1
    22     7    23    1
    23     8    24    1
    24     8    25    1
    25     9    26    1
    26     9    27    1
    27    10    28    1
    28    10    29    1
    29    11    30    1
    30    11    31    1
    31    11    32    1
