@<TRIPOS>MOLECULE
NuBBE_2076
 54 58 0 0 0
SMALL
GASTEIGER

@<TRIPOS>ATOM
      1 O          -4.5347   -0.9242    0.6735 O.2     1  LIG1       -0.2500
      2 C          -3.3292   -0.8082    0.6945 C.2     1  LIG1        0.3189
      3 C          -2.4920    0.4329    0.8824 C.3     1  LIG1        0.1250
      4 C          -2.1882    0.3527    2.4150 C.3     1  LIG1       -0.0439
      5 C          -2.7369    1.8990    0.3940 C.3     1  LIG1        0.1855
      6 O          -4.0451    2.3023    0.7720 O.3     1  LIG1       -0.3508
      7 C          -4.3913    3.6377    0.4336 C.3     1  LIG1        0.0397
      8 C          -2.3989    2.1871   -1.1239 C.3     1  LIG1        0.0031
      9 C          -0.8893    1.8746   -1.4358 C.3     1  LIG1       -0.0397
     10 C          -0.3356    1.0644   -0.2290 C.3     1  LIG1        0.0050
     11 C          -0.4045    2.1410    0.9124 C.3     1  LIG1        0.0573
     12 O          -1.7264    2.6990    1.0733 O.3     1  LIG1       -0.3470
     13 C           1.0970    0.4692   -0.2671 C.3     1  LIG1       -0.0266
     14 C           2.0011    1.1143   -1.3244 C.3     1  LIG1       -0.0491
     15 C           3.4384    0.6129   -1.2048 C.3     1  LIG1       -0.0494
     16 C           3.5218   -0.9097   -1.2522 C.3     1  LIG1       -0.0154
     17 C           2.6186   -1.5731   -0.2000 C.3     1  LIG1        0.1062
     18 H           2.9594   -1.3138    0.8105 H       1  LIG1        0.0736
     19 O           2.6403   -3.0064   -0.3547 O.3     1  LIG1       -0.4612
     20 C           3.7104   -3.6437    0.2000 C.2     1  LIG1        0.3042
     21 C           3.4795   -5.1240    0.2285 C.3     1  LIG1        0.0332
     22 O           4.6892   -3.0948    0.6860 O.2     1  LIG1       -0.2512
     23 C           1.1616   -1.0858   -0.3667 C.3     1  LIG1        0.0029
     24 C           0.1686   -1.7660    0.6265 C.3     1  LIG1       -0.0089
     25 C          -1.2165   -1.4750    0.0859 C.3     1  LIG1        0.1080
     26 H          -1.2596   -1.9789   -0.8917 H       1  LIG1        0.0737
     27 O          -2.4214   -1.8893    0.7347 O.3     1  LIG1       -0.4605
     28 C          -1.4196   -0.0115   -0.0884 C.3     1  LIG1        0.0246
     29 H          -2.9347   -0.2436    2.9568 H       1  LIG1        0.0242
     30 H          -2.1977    1.3266    2.9132 H       1  LIG1        0.0242
     31 H          -1.2177   -0.1104    2.6151 H       1  LIG1        0.0242
     32 H          -5.3751    3.8567    0.8572 H       1  LIG1        0.0525
     33 H          -4.4772    3.7597   -0.6502 H       1  LIG1        0.0525
     34 H          -3.6712    4.3527    0.8418 H       1  LIG1        0.0525
     35 H          -2.5509    3.2433   -1.3717 H       1  LIG1        0.0317
     36 H          -3.0729    1.6206   -1.7774 H       1  LIG1        0.0317
     37 H          -0.3404    2.8139   -1.5755 H       1  LIG1        0.0273
     38 H          -0.8109    1.3186   -2.3776 H       1  LIG1        0.0273
     39 H           0.2698    2.9795    0.7005 H       1  LIG1        0.0566
     40 H          -0.0814    1.7353    1.8767 H       1  LIG1        0.0566
     41 H           1.5565    0.7016    0.7067 H       1  LIG1        0.0311
     42 H           1.9986    2.2049   -1.2130 H       1  LIG1        0.0268
     43 H           1.6229    0.8874   -2.3282 H       1  LIG1        0.0268
     44 H           4.0426    1.0421   -2.0120 H       1  LIG1        0.0267
     45 H           3.8702    0.9700   -0.2614 H       1  LIG1        0.0267
     46 H           4.5634   -1.2170   -1.1072 H       1  LIG1        0.0301
     47 H           3.2488   -1.2647   -2.2547 H       1  LIG1        0.0301
     48 H           2.7656   -5.3575    1.0227 H       1  LIG1        0.0342
     49 H           4.4240   -5.6355    0.4364 H       1  LIG1        0.0342
     50 H           3.1066   -5.4760   -0.7361 H       1  LIG1        0.0342
     51 H           0.8477   -1.3725   -1.3824 H       1  LIG1        0.0340
     52 H           0.3059   -1.3919    1.6456 H       1  LIG1        0.0305
     53 H           0.3161   -2.8503    0.6717 H       1  LIG1        0.0305
     54 H          -1.9050   -0.0765   -1.0812 H       1  LIG1        0.0355
@<TRIPOS>BOND
     1     1     2    2
     2     2     3    1
     3     3     4    1
     4     3     5    1
     5     5     6    1
     6     6     7    1
     7     5     8    1
     8     8     9    1
     9     9    10    1
    10    10    11    1
    11    11    12    1
    12     5    12    1
    13    10    13    1
    14    13    14    1
    15    14    15    1
    16    15    16    1
    17    16    17    1
    18    19    20    1
    19    20    21    1
    20    20    22    2
    21    17    23    1
    22    13    23    1
    23    23    24    1
    24    24    25    1
    25    25    26    1
    26    25    27    1
    27     2    27    1
    28    25    28    1
    29    10    28    1
    30     3    28    1
    31    17    19    1
    32    17    18    1
    33     4    29    1
    34     4    30    1
    35     4    31    1
    36     7    32    1
    37     7    33    1
    38     7    34    1
    39     8    35    1
    40     8    36    1
    41     9    37    1
    42     9    38    1
    43    11    39    1
    44    11    40    1
    45    13    41    1
    46    14    42    1
    47    14    43    1
    48    15    44    1
    49    15    45    1
    50    16    46    1
    51    16    47    1
    52    21    48    1
    53    21    49    1
    54    21    50    1
    55    23    51    1
    56    24    52    1
    57    24    53    1
    58    28    54    1
