@<TRIPOS>MOLECULE
NuBBE_999
 68 71 0 0 0
SMALL
GASTEIGER

@<TRIPOS>ATOM
      1 C          -2.2939    3.0493   -1.1267 C.3     1  LIG1       -0.0586
      2 C          -0.8257    2.9084   -1.6012 C.3     1  LIG1       -0.0191
      3 C           0.0427    2.5472   -0.3597 C.3     1  LIG1       -0.0252
      4 C           0.6595    3.8519    0.1539 C.3     1  LIG1        0.0097
      5 C           0.3918    4.8568   -0.9189 C.2     1  LIG1        0.1372
      6 C          -0.2465    4.2555   -2.1519 C.3     1  LIG1        0.0229
      7 H           0.5806    4.0468   -2.8431 H       1  LIG1        0.0383
      8 C          -1.2617    5.1845   -2.8363 C.3     1  LIG1       -0.0459
      9 C          -0.6717    6.4860   -3.3716 C.3     1  LIG1       -0.0646
     10 O           0.7380    6.0263   -0.8017 O.2     1  LIG1       -0.2971
     11 C           1.0700    1.4049   -0.5829 C.3     1  LIG1       -0.0340
     12 C           1.8816    1.1585    0.7080 C.3     1  LIG1       -0.0494
     13 C           2.4845   -0.2237    0.8647 C.3     1  LIG1       -0.0493
     14 C           1.6216   -1.3921    0.3740 C.3     1  LIG1       -0.0318
     15 C           1.6163   -2.5218    1.3907 C.3     1  LIG1       -0.0088
     16 C           1.0024   -3.8135    0.8381 C.3     1  LIG1        0.1400
     17 H           1.6687   -4.2572    0.0881 H       1  LIG1        0.0771
     18 O           0.8345   -4.7451    1.9322 O.3     1  LIG1       -0.4578
     19 C           1.9510   -5.1427    2.6107 C.2     1  LIG1        0.3043
     20 C           1.5563   -5.8121    3.8890 C.3     1  LIG1        0.0332
     21 O           3.0981   -4.8993    2.2981 O.2     1  LIG1       -0.2512
     22 C          -0.3830   -3.5787    0.1681 C.3     1  LIG1        0.1402
     23 H          -0.6517   -4.4542   -0.4370 H       1  LIG1        0.0771
     24 O          -1.3829   -3.3964    1.1988 O.3     1  LIG1       -0.4578
     25 C          -1.9657   -4.5207    1.6919 C.2     1  LIG1        0.3043
     26 C          -2.5087   -4.2496    3.0631 C.3     1  LIG1        0.0332
     27 O          -2.0129   -5.6124    1.1352 O.2     1  LIG1       -0.2512
     28 C          -0.3855   -2.3376   -0.7615 C.3     1  LIG1       -0.0062
     29 C           0.1985   -1.0328   -0.1165 C.3     1  LIG1       -0.0226
     30 C          -0.7633   -0.5874    1.0132 C.3     1  LIG1       -0.0589
     31 C           0.4088    0.1125   -1.1711 C.3     1  LIG1       -0.0321
     32 C          -0.8226    0.4052   -2.0464 C.3     1  LIG1       -0.0489
     33 C          -0.7531    1.7972   -2.6738 C.3     1  LIG1       -0.0464
     34 H          -2.4076    3.8752   -0.4167 H       1  LIG1        0.0235
     35 H          -2.6412    2.1432   -0.6172 H       1  LIG1        0.0235
     36 H          -2.9752    3.2194   -1.9671 H       1  LIG1        0.0235
     37 H          -0.6253    2.2028    0.4377 H       1  LIG1        0.0313
     38 H           1.7399    3.7958    0.3028 H       1  LIG1        0.0345
     39 H           0.1724    4.1813    1.0762 H       1  LIG1        0.0345
     40 H          -2.0689    5.4559   -2.1470 H       1  LIG1        0.0269
     41 H          -1.7177    4.6491   -3.6777 H       1  LIG1        0.0269
     42 H          -0.3664    7.1564   -2.5633 H       1  LIG1        0.0230
     43 H          -1.4263    7.0276   -3.9514 H       1  LIG1        0.0230
     44 H           0.1918    6.3014   -4.0162 H       1  LIG1        0.0230
     45 H           1.7878    1.7573   -1.3387 H       1  LIG1        0.0307
     46 H           2.6990    1.8875    0.7723 H       1  LIG1        0.0268
     47 H           1.2671    1.3611    1.5930 H       1  LIG1        0.0268
     48 H           2.7618   -0.3583    1.9185 H       1  LIG1        0.0268
     49 H           3.4355   -0.2506    0.3156 H       1  LIG1        0.0268
     50 H           2.1643   -1.7909   -0.4994 H       1  LIG1        0.0307
     51 H           1.1185   -2.2288    2.3223 H       1  LIG1        0.0305
     52 H           2.6568   -2.7072    1.6754 H       1  LIG1        0.0305
     53 H           0.6015   -6.3230    3.7651 H       1  LIG1        0.0342
     54 H           1.4738   -5.0600    4.6816 H       1  LIG1        0.0342
     55 H           2.3168   -6.5474    4.1452 H       1  LIG1        0.0342
     56 H          -3.4591   -3.7177    3.0009 H       1  LIG1        0.0342
     57 H          -1.7788   -3.6643    3.6321 H       1  LIG1        0.0342
     58 H          -2.6467   -5.1972    3.5927 H       1  LIG1        0.0342
     59 H          -1.4141   -2.1522   -1.0963 H       1  LIG1        0.0307
     60 H           0.1995   -2.5835   -1.6579 H       1  LIG1        0.0307
     61 H          -0.7555   -1.2616    1.8713 H       1  LIG1        0.0235
     62 H          -1.7962   -0.5393    0.6515 H       1  LIG1        0.0235
     63 H          -0.5339    0.3872    1.4330 H       1  LIG1        0.0235
     64 H           1.1589   -0.2750   -1.8810 H       1  LIG1        0.0309
     65 H          -1.7493    0.2975   -1.4767 H       1  LIG1        0.0268
     66 H          -0.8730   -0.3422   -2.8486 H       1  LIG1        0.0268
     67 H          -1.5655    1.9144   -3.4010 H       1  LIG1        0.0271
     68 H           0.1796    1.8725   -3.2483 H       1  LIG1        0.0271
@<TRIPOS>BOND
     1     1     2    1
     2     2     3    1
     3     3     4    1
     4     4     5    1
     5     5     6    1
     6     6     7    1
     7     2     6    1
     8     6     8    1
     9     8     9    1
    10     5    10    2
    11     3    11    1
    12    11    12    1
    13    12    13    1
    14    13    14    1
    15    14    15    1
    16    15    16    1
    17    18    19    1
    18    19    20    1
    19    19    21    2
    20    16    22    1
    21    24    25    1
    22    25    26    1
    23    25    27    2
    24    22    28    1
    25    28    29    1
    26    14    29    1
    27    29    30    1
    28    29    31    1
    29    11    31    1
    30    31    32    1
    31    32    33    1
    32     2    33    1
    33    16    18    1
    34    16    17    1
    35    22    24    1
    36    22    23    1
    37     1    34    1
    38     1    35    1
    39     1    36    1
    40     3    37    1
    41     4    38    1
    42     4    39    1
    43     8    40    1
    44     8    41    1
    45     9    42    1
    46     9    43    1
    47     9    44    1
    48    11    45    1
    49    12    46    1
    50    12    47    1
    51    13    48    1
    52    13    49    1
    53    14    50    1
    54    15    51    1
    55    15    52    1
    56    20    53    1
    57    20    54    1
    58    20    55    1
    59    26    56    1
    60    26    57    1
    61    26    58    1
    62    28    59    1
    63    28    60    1
    64    30    61    1
    65    30    62    1
    66    30    63    1
    67    31    64    1
    68    32    65    1
    69    32    66    1
    70    33    67    1
    71    33    68    1
