@<TRIPOS>MOLECULE
NuBBE_173
 64 64 0 0 0
SMALL
GASTEIGER

@<TRIPOS>ATOM
      1 O           3.1914   -0.8438    5.1790 O.3     1  LIG1       -0.3903
      2 C           2.0381   -0.1173    5.6236 C.3     1  LIG1        0.0703
      3 H           1.9595   -0.2472    6.7065 H       1  LIG1        0.0609
      4 C           2.1881    1.3709    5.2493 C.3     1  LIG1        0.0310
      5 H           1.2732    1.9197    5.5056 H       1  LIG1        0.0483
      6 C           3.3578    2.0186    5.9857 C.3     1  LIG1       -0.0473
      7 N           2.4386    1.4594    3.8048 N.3     1  LIG1       -0.3083
      8 H           2.6183    2.4291    3.5397 H       1  LIG1        0.1225
      9 C           1.3141    0.9399    3.0146 C.3     1  LIG1        0.0080
     10 H           0.4620    1.6266    3.1029 H       1  LIG1        0.0460
     11 C           1.8188    0.9344    1.5710 C.3     1  LIG1       -0.0375
     12 C           0.7900    0.4105    0.5943 C.3     1  LIG1       -0.0516
     13 C           1.3260    0.3986   -0.8240 C.3     1  LIG1       -0.0530
     14 C           2.4737   -0.5969   -1.0377 C.3     1  LIG1       -0.0531
     15 C           2.9952   -0.7526   -2.4736 C.3     1  LIG1       -0.0531
     16 C           2.0505   -1.4232   -3.4893 C.3     1  LIG1       -0.0531
     17 C           0.7848   -0.6273   -3.7814 C.3     1  LIG1       -0.0531
     18 C          -0.2366   -1.2570   -4.7138 C.3     1  LIG1       -0.0531
     19 C          -1.4907   -0.3602   -4.8376 C.3     1  LIG1       -0.0530
     20 C          -2.2622   -0.1266   -3.5202 C.3     1  LIG1       -0.0527
     21 C          -3.5149    0.7347   -3.7359 C.3     1  LIG1       -0.0479
     22 C          -4.3090    1.0124   -2.4447 C.3     1  LIG1       -0.0115
     23 C          -4.8051   -0.2457   -1.7320 C.2     1  LIG1        0.0544
     24 C          -4.9741   -0.1609   -0.2309 C.3     1  LIG1       -0.0231
     25 N          -5.0552   -1.2957   -2.4238 N.2     1  LIG1       -0.0968
     26 O          -5.4373   -2.3900   -1.6241 O.2     1  LIG1       -0.4093
     27 C           0.8671   -0.4777    3.4295 C.3     1  LIG1       -0.0352
     28 C           0.8009   -0.6868    4.9373 C.3     1  LIG1       -0.0240
     29 H           3.4564   -0.3983    4.3462 H       1  LIG1        0.2098
     30 H           3.2367    1.9030    7.0674 H       1  LIG1        0.0245
     31 H           3.4067    3.0914    5.7678 H       1  LIG1        0.0245
     32 H           4.3193    1.5751    5.7039 H       1  LIG1        0.0245
     33 H           2.1182    1.9438    1.2606 H       1  LIG1        0.0280
     34 H           2.7171    0.3073    1.5216 H       1  LIG1        0.0280
     35 H          -0.1160    1.0293    0.6294 H       1  LIG1        0.0266
     36 H           0.4781   -0.6113    0.8419 H       1  LIG1        0.0266
     37 H           1.6017    1.4011   -1.1680 H       1  LIG1        0.0265
     38 H           0.4365    0.1161   -1.3591 H       1  LIG1        0.0265
     39 H           2.1892   -1.5821   -0.6500 H       1  LIG1        0.0265
     40 H           3.3316   -0.2685   -0.4361 H       1  LIG1        0.0265
     41 H           3.8918   -1.3870   -2.4086 H       1  LIG1        0.0265
     42 H           3.3442    0.2164   -2.8506 H       1  LIG1        0.0265
     43 H           1.7847   -2.4185   -3.1155 H       1  LIG1        0.0265
     44 H           2.6047   -1.5671   -4.4235 H       1  LIG1        0.0265
     45 H           1.0352    0.3921   -4.0961 H       1  LIG1        0.0265
     46 H           0.2271   -0.5860   -2.8681 H       1  LIG1        0.0265
     47 H          -0.5315   -2.2369   -4.3179 H       1  LIG1        0.0265
     48 H           0.2072   -1.4182   -5.7004 H       1  LIG1        0.0265
     49 H          -2.1668   -0.8264   -5.5627 H       1  LIG1        0.0265
     50 H          -1.1931    0.6109   -5.2506 H       1  LIG1        0.0265
     51 H          -1.6337    0.3774   -2.7784 H       1  LIG1        0.0265
     52 H          -2.5365   -1.1000   -3.0995 H       1  LIG1        0.0265
     53 H          -4.1651    0.2696   -4.4789 H       1  LIG1        0.0269
     54 H          -3.2082    1.7093   -4.1469 H       1  LIG1        0.0269
     55 H          -5.1945    1.6059   -2.6873 H       1  LIG1        0.0326
     56 H          -3.7030    1.5914   -1.7509 H       1  LIG1        0.0326
     57 H          -5.1963    0.8633    0.0663 H       1  LIG1        0.0290
     58 H          -4.0487   -0.4844    0.2500 H       1  LIG1        0.0290
     59 H          -5.8004   -0.7953    0.1091 H       1  LIG1        0.0290
     60 H          -5.5941   -3.0903   -2.2716 H       1  LIG1        0.3278
     61 H           1.5479   -1.2261    3.0024 H       1  LIG1        0.0281
     62 H          -0.1255   -0.6886    3.0101 H       1  LIG1        0.0281
     63 H           0.7150   -1.7614    5.1354 H       1  LIG1        0.0291
     64 H          -0.0990   -0.2026    5.3336 H       1  LIG1        0.0291
@<TRIPOS>BOND
     1     1     2    1
     2     2     3    1
     3     2     4    1
     4     4     5    1
     5     4     6    1
     6     4     7    1
     7     7     8    1
     8     7     9    1
     9    11    12    1
    10    12    13    1
    11    13    14    1
    12    14    15    1
    13    15    16    1
    14    16    17    1
    15    17    18    1
    16    18    19    1
    17    19    20    1
    18    20    21    1
    19    21    22    1
    20    22    23    1
    21    23    24    1
    22    23    25    2
    23    25    26    1
    24     9    27    1
    25    27    28    1
    26     2    28    1
    27     9    11    1
    28     9    10    1
    29     1    29    1
    30     6    30    1
    31     6    31    1
    32     6    32    1
    33    11    33    1
    34    11    34    1
    35    12    35    1
    36    12    36    1
    37    13    37    1
    38    13    38    1
    39    14    39    1
    40    14    40    1
    41    15    41    1
    42    15    42    1
    43    16    43    1
    44    16    44    1
    45    17    45    1
    46    17    46    1
    47    18    47    1
    48    18    48    1
    49    19    49    1
    50    19    50    1
    51    20    51    1
    52    20    52    1
    53    21    53    1
    54    21    54    1
    55    22    55    1
    56    22    56    1
    57    24    57    1
    58    24    58    1
    59    24    59    1
    60    26    60    1
    61    27    61    1
    62    27    62    1
    63    28    63    1
    64    28    64    1
