@<TRIPOS>MOLECULE
NuBBE_1361
 61 64 0 0 0
SMALL
GASTEIGER

@<TRIPOS>ATOM
      1 C          -0.0962    2.6994    3.9702 C.2     1  LIG1       -0.1026
      2 C          -0.1002    1.7697    3.0059 C.2     1  LIG1       -0.0896
      3 C           0.1241    2.0640    1.5461 C.3     1  LIG1       -0.0190
      4 C           1.3664    1.3696    0.9268 C.3     1  LIG1        0.0181
      5 N           1.5950    1.6934   -0.5078 N.3     1  LIG1       -0.3015
      6 C           2.9201    1.2262   -0.9372 C.3     1  LIG1        0.0032
      7 C           1.4136    3.0912   -0.8822 C.3     1  LIG1       -0.0125
      8 C           1.5023   -0.1894    1.1875 C.3     1  LIG1       -0.0053
      9 H           1.4036   -0.3750    2.2640 H       1  LIG1        0.0334
     10 C           0.5637   -1.2099    0.4266 C.3     1  LIG1        0.0376
     11 H           0.9167   -2.2153    0.7057 H       1  LIG1        0.0513
     12 C          -0.8946   -1.1602    0.9071 C.2     1  LIG1       -0.0381
     13 C          -1.8387   -0.3975    0.3348 C.2     1  LIG1       -0.0000
     14 N          -3.1768   -0.4211    0.6814 N.am    1  LIG1       -0.2782
     15 C          -4.1870    0.2988    0.0165 C.2     1  LIG1        0.2162
     16 C          -3.7640    1.2072   -1.1120 C.3     1  LIG1        0.0127
     17 O          -5.3776    0.2063    0.3054 O.2     1  LIG1       -0.2756
     18 C          -3.6389   -1.4022    1.6700 C.3     1  LIG1        0.0195
     19 C          -2.5750   -1.7422    2.7023 C.3     1  LIG1       -0.0330
     20 C          -1.2710   -2.1296    2.0115 C.3     1  LIG1       -0.0274
     21 C           2.9516   -0.5575    0.8121 C.3     1  LIG1       -0.0416
     22 C           3.1253   -0.2756   -0.6811 C.3     1  LIG1       -0.0123
     23 H           4.1560   -0.5297   -0.9621 H       1  LIG1        0.0328
     24 C           2.1636   -1.1977   -1.4691 C.3     1  LIG1        0.0150
     25 N           0.7389   -1.1277   -1.0405 N.3     1  LIG1       -0.2921
     26 C          -0.0092   -2.1093   -1.8345 C.3     1  LIG1       -0.0002
     27 C          -0.1501   -1.5724   -3.2669 C.3     1  LIG1       -0.0401
     28 C           0.9821   -0.6204   -3.6641 C.3     1  LIG1       -0.0505
     29 C           2.2983   -1.0275   -3.0063 C.3     1  LIG1       -0.0370
     30 H          -0.2741    2.4246    5.0052 H       1  LIG1        0.0532
     31 H           0.0712    3.7505    3.7545 H       1  LIG1        0.0532
     32 H          -0.3006    0.7380    3.2795 H       1  LIG1        0.0567
     33 H           0.2545    3.1506    1.4483 H       1  LIG1        0.0322
     34 H          -0.7834    1.8359    0.9881 H       1  LIG1        0.0322
     35 H           2.2058    1.8284    1.4756 H       1  LIG1        0.0469
     36 H           3.7041    1.7865   -0.4075 H       1  LIG1        0.0430
     37 H           3.0682    1.4389   -2.0015 H       1  LIG1        0.0430
     38 H           0.3643    3.3892   -0.7926 H       1  LIG1        0.0391
     39 H           1.6663    3.2433   -1.9394 H       1  LIG1        0.0391
     40 H           2.0355    3.7667   -0.2860 H       1  LIG1        0.0391
     41 H          -1.5385    0.2710   -0.4736 H       1  LIG1        0.0784
     42 H          -3.0425    1.9450   -0.7785 H       1  LIG1        0.0323
     43 H          -4.6387    1.7169   -1.5068 H       1  LIG1        0.0323
     44 H          -3.3389    0.5918   -1.9269 H       1  LIG1        0.0323
     45 H          -3.9218   -2.3019    1.1101 H       1  LIG1        0.0468
     46 H          -4.5384   -1.0419    2.1775 H       1  LIG1        0.0468
     47 H          -2.9281   -2.5586    3.3449 H       1  LIG1        0.0284
     48 H          -2.4078   -0.8757    3.3550 H       1  LIG1        0.0284
     49 H          -1.3762   -3.1289    1.5661 H       1  LIG1        0.0311
     50 H          -0.4799   -2.1925    2.7662 H       1  LIG1        0.0311
     51 H           3.1570   -1.6115    1.0367 H       1  LIG1        0.0273
     52 H           3.6671    0.0292    1.4017 H       1  LIG1        0.0273
     53 H           2.5193   -2.2176   -1.2512 H       1  LIG1        0.0466
     54 H           0.5073   -3.0793   -1.8460 H       1  LIG1        0.0427
     55 H          -1.0129   -2.3162   -1.4517 H       1  LIG1        0.0427
     56 H          -1.1045   -1.0427   -3.3745 H       1  LIG1        0.0278
     57 H          -0.1771   -2.4190   -3.9633 H       1  LIG1        0.0278
     58 H           0.7233    0.3996   -3.3501 H       1  LIG1        0.0266
     59 H           1.0863   -0.5900   -4.7543 H       1  LIG1        0.0266
     60 H           3.0792   -0.3092   -3.2765 H       1  LIG1        0.0280
     61 H           2.6117   -1.9866   -3.4390 H       1  LIG1        0.0280
@<TRIPOS>BOND
     1     1     2    2
     2     2     3    1
     3     3     4    1
     4     4     5    1
     5     5     6    1
     6     5     7    1
     7     4     8    1
     8     8     9    1
     9     8    10    1
    10    10    11    1
    11    10    12    1
    12    12    13    2
    13    13    14    1
    14    14    15   am
    15    15    16    1
    16    15    17    2
    17    14    18    1
    18    18    19    1
    19    19    20    1
    20    12    20    1
    21     8    21    1
    22    21    22    1
    23    22    23    1
    24     6    22    1
    25    22    24    1
    26    24    25    1
    27    10    25    1
    28    25    26    1
    29    26    27    1
    30    27    28    1
    31    28    29    1
    32    24    29    1
    33     1    30    1
    34     1    31    1
    35     2    32    1
    36     3    33    1
    37     3    34    1
    38     4    35    1
    39     6    36    1
    40     6    37    1
    41     7    38    1
    42     7    39    1
    43     7    40    1
    44    13    41    1
    45    16    42    1
    46    16    43    1
    47    16    44    1
    48    18    45    1
    49    18    46    1
    50    19    47    1
    51    19    48    1
    52    20    49    1
    53    20    50    1
    54    21    51    1
    55    21    52    1
    56    24    53    1
    57    26    54    1
    58    26    55    1
    59    27    56    1
    60    27    57    1
    61    28    58    1
    62    28    59    1
    63    29    60    1
    64    29    61    1
