@<TRIPOS>MOLECULE
NuBBE_94
 76 81 0 0 0
SMALL
GASTEIGER

@<TRIPOS>ATOM
      1 O           5.9542   -3.2725   -1.6571 O.2     1  LIG1       -0.2838
      2 C           5.6197   -2.1847   -1.2172 C.2     1  LIG1        0.2262
      3 C           6.6029   -1.2656   -0.5123 C.2     1  LIG1        0.2329
      4 C           6.0343   -0.2299    0.3665 C.ar    1  LIG1        0.0348
      5 C           6.8810    0.5136    1.1951 C.ar    1  LIG1       -0.0315
      6 C           6.3426    1.4593    2.0727 C.ar    1  LIG1        0.0704
      7 C           7.2412    2.2565    2.8564 C.1     1  LIG1        0.1005
      8 N           7.9812    2.9046    3.4757 N.1     1  LIG1       -0.1908
      9 C           4.9474    1.6041    2.1706 C.ar    1  LIG1        0.0768
     10 C           4.3954    2.5639    3.0874 C.1     1  LIG1        0.1011
     11 N           3.9333    3.3377    3.8200 N.1     1  LIG1       -0.1908
     12 C           4.0970    0.8354    1.3382 C.ar    1  LIG1        0.0017
     13 C           2.6304    0.8526    1.4860 C.2     1  LIG1       -0.0521
     14 C           1.7890    0.4783    0.4966 C.2     1  LIG1       -0.0523
     15 C           2.3843    0.0470   -0.8715 C.3     1  LIG1        0.0154
     16 C           2.6706    1.3124   -1.7316 C.3     1  LIG1       -0.0517
     17 C           1.4368   -0.8594   -1.7062 C.3     1  LIG1       -0.0393
     18 C          -0.0587   -0.5690   -1.5694 C.3     1  LIG1       -0.0455
     19 C          -0.5313   -0.5478   -0.0893 C.3     1  LIG1       -0.0196
     20 C          -0.1870   -1.9484    0.4980 C.3     1  LIG1       -0.0585
     21 C           0.2416    0.6176    0.6639 C.3     1  LIG1       -0.0043
     22 C          -0.0802    2.0437    0.1118 C.3     1  LIG1       -0.0553
     23 C          -0.2484    0.6168    2.1539 C.3     1  LIG1       -0.0429
     24 C          -1.7683    0.7762    2.3315 C.3     1  LIG1       -0.0465
     25 C          -2.6494   -0.1593    1.4676 C.3     1  LIG1       -0.0286
     26 C          -2.8099   -1.5060    2.2233 C.3     1  LIG1       -0.0593
     27 C          -2.0889   -0.2682    0.0046 C.3     1  LIG1       -0.0284
     28 H          -2.2148    0.7272   -0.4408 H       1  LIG1        0.0312
     29 C          -2.9938   -1.1630   -0.8800 C.3     1  LIG1       -0.0336
     30 C          -4.4768   -0.7178   -0.9008 C.3     1  LIG1        0.0653
     31 C          -5.3478   -1.8791   -1.4397 C.3     1  LIG1       -0.0494
     32 C          -4.6366    0.4896   -1.8488 C.2     1  LIG1        0.3128
     33 O          -4.9194    0.0768   -3.1155 O.3     1  LIG1       -0.4675
     34 C          -5.4938    1.0560   -3.9798 C.3     1  LIG1        0.0817
     35 O          -4.5322    1.6627   -1.5165 O.2     1  LIG1       -0.2502
     36 C          -5.0232   -0.3507    0.4974 C.3     1  LIG1       -0.0370
     37 C          -4.0656    0.4708    1.3629 C.3     1  LIG1       -0.0464
     38 C           4.6501   -0.0245    0.3723 C.ar    1  LIG1       -0.0015
     39 C           3.7750   -0.6360   -0.6613 C.2     1  LIG1       -0.0253
     40 C           4.2409   -1.6774   -1.3762 C.2     1  LIG1       -0.0064
     41 O           7.8090   -1.3890   -0.6555 O.2     1  LIG1       -0.2832
     42 H           7.9606    0.3611    1.1442 H       1  LIG1        0.0638
     43 H           2.2522    1.2079    2.4386 H       1  LIG1        0.0624
     44 H           1.7566    1.7542   -2.1360 H       1  LIG1        0.0241
     45 H           3.3001    1.0672   -2.5968 H       1  LIG1        0.0241
     46 H           3.1901    2.0956   -1.1676 H       1  LIG1        0.0241
     47 H           1.5892   -1.9158   -1.4572 H       1  LIG1        0.0277
     48 H           1.6966   -0.7917   -2.7723 H       1  LIG1        0.0277
     49 H          -0.5758   -1.3604   -2.1242 H       1  LIG1        0.0271
     50 H          -0.3123    0.3639   -2.0827 H       1  LIG1        0.0271
     51 H          -0.4385   -2.0593    1.5465 H       1  LIG1        0.0235
     52 H           0.8825   -2.1730    0.4653 H       1  LIG1        0.0235
     53 H          -0.7023   -2.7434   -0.0517 H       1  LIG1        0.0235
     54 H           0.0721    2.1336   -0.9633 H       1  LIG1        0.0238
     55 H           0.5555    2.7995    0.5913 H       1  LIG1        0.0238
     56 H          -1.1096    2.3608    0.2931 H       1  LIG1        0.0238
     57 H           0.2048    1.4499    2.7059 H       1  LIG1        0.0274
     58 H           0.0874   -0.2912    2.6679 H       1  LIG1        0.0274
     59 H          -2.0295    1.8218    2.1287 H       1  LIG1        0.0271
     60 H          -2.0088    0.6370    3.3946 H       1  LIG1        0.0271
     61 H          -1.9214   -1.7769    2.7982 H       1  LIG1        0.0235
     62 H          -3.0560   -2.3420    1.5646 H       1  LIG1        0.0235
     63 H          -3.6126   -1.4454    2.9688 H       1  LIG1        0.0235
     64 H          -2.9211   -2.2064   -0.5573 H       1  LIG1        0.0279
     65 H          -2.6336   -1.1443   -1.9143 H       1  LIG1        0.0279
     66 H          -5.3437   -2.7352   -0.7579 H       1  LIG1        0.0240
     67 H          -4.9872   -2.2392   -2.4106 H       1  LIG1        0.0240
     68 H          -6.3884   -1.5575   -1.5737 H       1  LIG1        0.0240
     69 H          -4.7187    1.5010   -4.6073 H       1  LIG1        0.0661
     70 H          -6.0410    1.8269   -3.4287 H       1  LIG1        0.0661
     71 H          -6.2106    0.5335   -4.6205 H       1  LIG1        0.0661
     72 H          -5.2761   -1.2674    1.0451 H       1  LIG1        0.0276
     73 H          -5.9658    0.2046    0.4003 H       1  LIG1        0.0276
     74 H          -4.5045    0.5846    2.3633 H       1  LIG1        0.0271
     75 H          -3.9923    1.4880    0.9597 H       1  LIG1        0.0271
     76 H           3.6704   -2.1962   -2.1369 H       1  LIG1        0.0660
@<TRIPOS>BOND
     1     2     3    1
     2     3     4    1
     3     4     5   ar
     4     5     6   ar
     5     7     8    3
     6     6     9   ar
     7    10    11    3
     8     9    12   ar
     9    12    13    1
    10    13    14    2
    11    14    15    1
    12    15    17    1
    13    17    18    1
    14    18    19    1
    15    19    21    1
    16    14    21    1
    17    21    23    1
    18    23    24    1
    19    24    25    1
    20    25    27    1
    21    19    27    1
    22    27    29    1
    23    29    30    1
    24    32    33    1
    25    33    34    1
    26    32    35    2
    27    30    36    1
    28    36    37    1
    29    25    37    1
    30    12    38   ar
    31     4    38   ar
    32    38    39    1
    33    15    39    1
    34    39    40    2
    35     2    40    1
    36     1     2    2
    37     3    41    2
    38     6     7    1
    39     9    10    1
    40    15    16    1
    41    19    20    1
    42    21    22    1
    43    25    26    1
    44    27    28    1
    45    30    32    1
    46    30    31    1
    47     5    42    1
    48    13    43    1
    49    16    44    1
    50    16    45    1
    51    16    46    1
    52    17    47    1
    53    17    48    1
    54    18    49    1
    55    18    50    1
    56    20    51    1
    57    20    52    1
    58    20    53    1
    59    22    54    1
    60    22    55    1
    61    22    56    1
    62    23    57    1
    63    23    58    1
    64    24    59    1
    65    24    60    1
    66    26    61    1
    67    26    62    1
    68    26    63    1
    69    29    64    1
    70    29    65    1
    71    31    66    1
    72    31    67    1
    73    31    68    1
    74    34    69    1
    75    34    70    1
    76    34    71    1
    77    36    72    1
    78    36    73    1
    79    37    74    1
    80    37    75    1
    81    40    76    1
