REMARK  Name = NuBBE_1901
REMARK  10 active torsions:
REMARK  status: ('A' for Active; 'I' for Inactive)
REMARK    1  A    between atoms: C_1  and  O_2
REMARK    2  A    between atoms: O_2  and  C_3
REMARK    3  A    between atoms: C_3  and  C_4
REMARK    4  A    between atoms: C_8  and  C_9
REMARK    5  A    between atoms: C_9  and  C_10
REMARK    6  A    between atoms: C_9  and  C_11
REMARK    7  A    between atoms: C_9  and  O_12
REMARK    8  A    between atoms: O_12  and  C_13
REMARK    9  A    between atoms: C_13  and  C_14
REMARK   10  A    between atoms: C_19  and  C_20
REMARK                            x       y       z     vdW  Elec       q    Type
REMARK                         _______ _______ _______ _____ _____    ______ ____
ROOT
ATOM      1  C   LIG A   1      -1.484  -2.549  -0.031  0.00  0.00    -0.011 A 
ATOM      2  C   LIG A   1      -0.725  -1.360  -0.103  0.00  0.00    +0.026 A 
ATOM      3  C   LIG A   1       0.692  -1.392  -0.081  0.00  0.00    -0.033 A 
ATOM      4  C   LIG A   1       1.519  -0.124  -0.066  0.00  0.00    +0.043 C 
ATOM      5  C   LIG A   1       0.759   1.199  -0.244  0.00  0.00    +0.044 C 
ATOM      6  C   LIG A   1      -0.607   1.118   0.439  0.00  0.00    +0.087 C 
ATOM      7  C   LIG A   1      -1.392  -0.029  -0.139  0.00  0.00    +0.164 C 
ATOM      8  O   LIG A   1      -2.534   0.120  -0.559  0.00  0.00    -0.292 OA
ATOM      9  C   LIG A   1       1.356  -2.636   0.010  0.00  0.00    -0.047 A 
ATOM     10  C   LIG A   1       2.857  -2.766   0.005  0.00  0.00    +0.044 C 
ATOM     11  C   LIG A   1       0.600  -3.811   0.062  0.00  0.00    +0.004 A 
ATOM     12  C   LIG A   1      -0.791  -3.767   0.050  0.00  0.00    +0.007 A 
ENDROOT
BRANCH   5  13
ATOM     13  C   LIG A   1       1.583   2.449   0.222  0.00  0.00    +0.111 C 
ATOM     14  C   LIG A   1       1.952   2.369   1.722  0.00  0.00    +0.056 C 
ATOM     15  C   LIG A   1       2.906   2.619  -0.547  0.00  0.00    +0.056 C 
BRANCH  13  16
ATOM     16  O   LIG A   1       0.789   3.669   0.112  0.00  0.00    -0.459 OA
BRANCH  16  17
ATOM     17  C   LIG A   1       0.286   4.062  -1.093  0.00  0.00    +0.304 C 
ATOM     18  C   LIG A   1      -0.517   5.318  -0.931  0.00  0.00    +0.136 C 
ATOM     19  O   LIG A   1       0.459   3.502  -2.160  0.00  0.00    -0.251 OA
ENDBRANCH  16  17
ENDBRANCH  13  16
ENDBRANCH   5  13
BRANCH   1  20
ATOM     20  C   LIG A   1      -3.002  -2.539  -0.003  0.00  0.00    +0.195 C 
BRANCH  20  22
ATOM     21  C   LIG A   1      -4.937  -3.874   0.254  0.00  0.00    +0.194 C 
ATOM     22  O   LIG A   1      -3.518  -3.856   0.231  0.00  0.00    -0.378 OA
ENDBRANCH  20  22
ENDBRANCH   1  20
TORSDOF 5
