REMARK  Name = NuBBE_2052
REMARK  4 active torsions:
REMARK  status: ('A' for Active; 'I' for Inactive)
REMARK    1  A    between atoms: O_1  and  C_2
REMARK    2  A    between atoms: C_6  and  O_9
REMARK    3  A    between atoms: O_9  and  C_10
REMARK    4  A    between atoms: C_12  and  C_16
REMARK                            x       y       z     vdW  Elec       q    Type
REMARK                         _______ _______ _______ _____ _____    ______ ____
ROOT
ATOM      1  C   LIG A   1      -1.831   0.636  -0.254  0.00  0.00    +0.153 A 
ATOM      2  C   LIG A   1      -0.989  -0.489  -0.171  0.00  0.00    +0.110 A 
ATOM      3  C   LIG A   1       0.401  -0.332  -0.213  0.00  0.00    -0.001 A 
ATOM      4  C   LIG A   1       0.949   0.949  -0.325  0.00  0.00    +0.056 A 
ATOM      5  C   LIG A   1       0.115   2.069  -0.382  0.00  0.00    +0.142 A 
ATOM      6  C   LIG A   1      -1.278   1.920  -0.372  0.00  0.00    +0.125 A 
ATOM      7 CL   LIG A   1      -2.312   3.299  -0.539  0.00  0.00    -0.076 Cl
ATOM      8  C   LIG A   1       1.268  -1.499  -0.145  0.00  0.00    +0.050 A 
ATOM      9  C   LIG A   1       0.714  -2.712  -0.038  0.00  0.00    +0.107 A 
ATOM     10  O   LIG A   1      -0.685  -2.898   0.014  0.00  0.00    -0.427 OA
ATOM     11  C   LIG A   1      -1.558  -1.851  -0.048  0.00  0.00    +0.348 A 
ATOM     12  O   LIG A   1      -2.775  -2.008  -0.005  0.00  0.00    -0.244 OA
ATOM     13  C   LIG A   1       1.498  -3.983   0.037  0.00  0.00    +0.086 C 
ENDROOT
BRANCH   1  14
ATOM     14  O   LIG A   1      -3.201   0.518  -0.226  0.00  0.00    -0.504 OA
ATOM     15  H   LIG A   1      -3.453  -0.429  -0.145  0.00  0.00    +0.292 HD
ENDBRANCH   1  14
BRANCH   5  16
ATOM     16  O   LIG A   1       0.741   3.281  -0.524  0.00  0.00    -0.493 OA
ATOM     17  C   LIG A   1       0.724   4.026   0.696  0.00  0.00    +0.277 C 
ENDBRANCH   5  16
TORSDOF 2
