@<TRIPOS>MOLECULE
NuBBE_2158
 77 80 0 0 0
SMALL
GASTEIGER

@<TRIPOS>ATOM
      1 C          -2.7577    4.7813    0.6962 C.3     1  LIG1       -0.0622
      2 C          -3.7759    3.6386    0.5559 C.3     1  LIG1       -0.0415
      3 H          -4.0996    3.6432   -0.4955 H       1  LIG1        0.0301
      4 C          -5.0528    3.8653    1.4196 C.3     1  LIG1       -0.0441
      5 C          -5.7002    5.2332    1.1434 C.3     1  LIG1       -0.0624
      6 C          -6.1214    2.7896    1.1823 C.3     1  LIG1       -0.0624
      7 C          -3.0662    2.2728    0.7818 C.3     1  LIG1       -0.0500
      8 C          -2.4979    2.0345    2.1984 C.3     1  LIG1       -0.0499
      9 C          -1.7642    0.6706    2.4166 C.3     1  LIG1       -0.0405
     10 H          -1.4412    0.6585    3.4665 H       1  LIG1        0.0301
     11 C          -2.7748   -0.4692    2.2401 C.3     1  LIG1       -0.0621
     12 C          -0.4985    0.5315    1.5266 C.3     1  LIG1       -0.0328
     13 H          -0.8323    0.7019    0.4946 H       1  LIG1        0.0309
     14 C           0.5545    1.6144    1.7769 C.3     1  LIG1       -0.0492
     15 C           1.6829    1.1688    0.8639 C.3     1  LIG1       -0.0492
     16 C           1.7998   -0.3359    1.1426 C.3     1  LIG1       -0.0320
     17 H           2.4248   -0.3964    2.0472 H       1  LIG1        0.0309
     18 C           2.5597   -1.0775    0.0276 C.3     1  LIG1       -0.0307
     19 H           3.2881   -0.3688   -0.3879 H       1  LIG1        0.0309
     20 C           3.3819   -2.2581    0.5949 C.3     1  LIG1       -0.0311
     21 C           3.9444   -3.1571   -0.4656 C.2     1  LIG1       -0.0839
     22 C           3.5623   -3.1246   -1.7657 C.2     1  LIG1       -0.0648
     23 C           4.3496   -3.8437   -2.8255 C.3     1  LIG1       -0.0051
     24 C           5.0528   -2.8070   -3.7152 C.3     1  LIG1        0.0590
     25 H           5.8716   -2.3454   -3.1493 H       1  LIG1        0.0596
     26 O           5.6286   -3.4498   -4.8516 O.3     1  LIG1       -0.3915
     27 C           4.1152   -1.6969   -4.2123 C.3     1  LIG1       -0.0258
     28 C           3.2086   -1.1167   -3.1117 C.3     1  LIG1       -0.0413
     29 C           2.4616   -2.2075   -2.2842 C.3     1  LIG1       -0.0078
     30 C           1.4851   -2.9558   -3.2291 C.3     1  LIG1       -0.0556
     31 C           1.6354   -1.5596   -1.1065 C.3     1  LIG1       -0.0285
     32 H           1.1025   -0.6918   -1.5199 H       1  LIG1        0.0312
     33 C           0.5814   -2.5008   -0.4867 C.3     1  LIG1       -0.0486
     34 C          -0.3288   -1.7692    0.4847 C.3     1  LIG1       -0.0468
     35 C           0.3408   -0.8111    1.5014 C.3     1  LIG1       -0.0259
     36 C           0.4451   -1.5165    2.8720 C.3     1  LIG1       -0.0590
     37 H          -2.3140    4.8131    1.6951 H       1  LIG1        0.0232
     38 H          -3.2057    5.7599    0.5045 H       1  LIG1        0.0232
     39 H          -1.9490    4.6606   -0.0331 H       1  LIG1        0.0232
     40 H          -4.7783    3.8392    2.4805 H       1  LIG1        0.0298
     41 H          -5.8006    5.4150    0.0673 H       1  LIG1        0.0232
     42 H          -5.1094    6.0459    1.5767 H       1  LIG1        0.0232
     43 H          -6.6998    5.2986    1.5871 H       1  LIG1        0.0232
     44 H          -6.4869    2.8149    0.1496 H       1  LIG1        0.0232
     45 H          -6.9818    2.9569    1.8413 H       1  LIG1        0.0232
     46 H          -5.7511    1.7839    1.3944 H       1  LIG1        0.0232
     47 H          -2.2518    2.2119    0.0506 H       1  LIG1        0.0268
     48 H          -3.7559    1.4645    0.5177 H       1  LIG1        0.0268
     49 H          -3.3177    2.0991    2.9236 H       1  LIG1        0.0268
     50 H          -1.8068    2.8406    2.4607 H       1  LIG1        0.0268
     51 H          -3.7100   -0.2448    2.7653 H       1  LIG1        0.0233
     52 H          -2.4111   -1.4082    2.6594 H       1  LIG1        0.0233
     53 H          -3.0124   -0.6437    1.1872 H       1  LIG1        0.0233
     54 H           0.8741    1.6259    2.8255 H       1  LIG1        0.0268
     55 H           0.2125    2.6167    1.5052 H       1  LIG1        0.0268
     56 H           1.4238    1.3616   -0.1839 H       1  LIG1        0.0268
     57 H           2.6149    1.6995    1.0839 H       1  LIG1        0.0268
     58 H           2.7968   -2.8649    1.2935 H       1  LIG1        0.0310
     59 H           4.2208   -1.8475    1.1736 H       1  LIG1        0.0310
     60 H           4.7558   -3.8065   -0.1583 H       1  LIG1        0.0572
     61 H           3.6993   -4.4970   -3.4221 H       1  LIG1        0.0335
     62 H           5.1003   -4.5164   -2.3934 H       1  LIG1        0.0335
     63 H           6.2155   -4.1524   -4.5235 H       1  LIG1        0.2098
     64 H           3.5095   -2.0662   -5.0486 H       1  LIG1        0.0290
     65 H           4.7189   -0.8893   -4.6467 H       1  LIG1        0.0290
     66 H           2.4860   -0.4293   -3.5691 H       1  LIG1        0.0274
     67 H           3.8405   -0.5032   -2.4574 H       1  LIG1        0.0274
     68 H           1.9368   -3.2469   -4.1806 H       1  LIG1        0.0238
     69 H           0.6259   -2.3197   -3.4773 H       1  LIG1        0.0238
     70 H           1.1141   -3.8815   -2.7776 H       1  LIG1        0.0238
     71 H           1.0405   -3.3613    0.0101 H       1  LIG1        0.0268
     72 H          -0.0737   -2.9190   -1.2573 H       1  LIG1        0.0268
     73 H          -0.9466   -2.5114    1.0060 H       1  LIG1        0.0271
     74 H          -1.0407   -1.2166   -0.1416 H       1  LIG1        0.0271
     75 H           1.1101   -2.3858    2.8048 H       1  LIG1        0.0235
     76 H          -0.5101   -1.8912    3.2402 H       1  LIG1        0.0235
     77 H           0.8520   -0.8496    3.6399 H       1  LIG1        0.0235
@<TRIPOS>BOND
     1     2     4    1
     2     4     5    1
     3     4     6    1
     4     2     7    1
     5     7     8    1
     6     8     9    1
     7     9    10    1
     8     9    11    1
     9    12    14    1
    10    14    15    1
    11    15    16    1
    12    16    18    1
    13    18    20    1
    14    20    21    1
    15    21    22    2
    16    22    23    1
    17    23    24    1
    18    24    27    1
    19    27    28    1
    20    28    29    1
    21    22    29    1
    22    29    31    1
    23    18    31    1
    24    31    33    1
    25    33    34    1
    26    34    35    1
    27    16    35    1
    28    12    35    1
    29    16    17    1
    30    18    19    1
    31    29    30    1
    32    31    32    1
    33    35    36    1
    34     2     3    1
    35     2     1    1
    36    12    13    1
    37    12     9    1
    38    24    26    1
    39    24    25    1
    40     1    37    1
    41     1    38    1
    42     1    39    1
    43     4    40    1
    44     5    41    1
    45     5    42    1
    46     5    43    1
    47     6    44    1
    48     6    45    1
    49     6    46    1
    50     7    47    1
    51     7    48    1
    52     8    49    1
    53     8    50    1
    54    11    51    1
    55    11    52    1
    56    11    53    1
    57    14    54    1
    58    14    55    1
    59    15    56    1
    60    15    57    1
    61    20    58    1
    62    20    59    1
    63    21    60    1
    64    23    61    1
    65    23    62    1
    66    26    63    1
    67    27    64    1
    68    27    65    1
    69    28    66    1
    70    28    67    1
    71    30    68    1
    72    30    69    1
    73    30    70    1
    74    33    71    1
    75    33    72    1
    76    34    73    1
    77    34    74    1
    78    36    75    1
    79    36    76    1
    80    36    77    1
