REMARK  Name = NuBBE_448
REMARK  12 active torsions:
REMARK  status: ('A' for Active; 'I' for Inactive)
REMARK    1  A    between atoms: C_4  and  O_13
REMARK    2  A    between atoms: C_8  and  C_9
REMARK    3  A    between atoms: C_9  and  O_10
REMARK    4  A    between atoms: O_10  and  C_11
REMARK    5  A    between atoms: O_13  and  C_14
REMARK    6  A    between atoms: C_17  and  C_25
REMARK    7  A    between atoms: C_19  and  O_24
REMARK    8  A    between atoms: C_21  and  O_23
REMARK    9  A    between atoms: C_25  and  O_26
REMARK   10  A    between atoms: C_27  and  O_29
REMARK   11  A    between atoms: C_33  and  C_35
REMARK   12  A    between atoms: C_35  and  O_36
REMARK                            x       y       z     vdW  Elec       q    Type
REMARK                         _______ _______ _______ _____ _____    ______ ____
ROOT
ATOM      1  C   LIG A   1      -0.939  -3.000  -0.465  0.00  0.00    +0.061 C 
ATOM      2  C   LIG A   1      -0.970  -1.524  -0.885  0.00  0.00    +0.087 C 
ATOM      3  C   LIG A   1      -0.132  -0.670   0.076  0.00  0.00    +0.314 C 
ATOM      4  O   LIG A   1       1.184  -1.245   0.262  0.00  0.00    -0.470 OA
ATOM      5  C   LIG A   1       1.407  -2.542  -0.133  0.00  0.00    +0.201 C 
ATOM      6  C   LIG A   1       0.478  -3.420  -0.572  0.00  0.00    +0.078 C 
ATOM      7  C   LIG A   1      -2.002  -3.548  -1.365  0.00  0.00    -0.021 C 
ATOM      8  C   LIG A   1      -2.883  -2.577  -1.662  0.00  0.00    -0.016 C 
ATOM      9  C   LIG A   1      -2.457  -1.250  -1.064  0.00  0.00    +0.130 C 
ENDROOT
BRANCH   6  10
ATOM     10  C   LIG A   1       0.885  -4.755  -1.099  0.00  0.00    +0.338 C 
ATOM     11  O   LIG A   1       0.194  -5.746  -1.133  0.00  0.00    -0.245 OA
BRANCH  10  12
ATOM     12  O   LIG A   1       2.161  -4.612  -1.578  0.00  0.00    -0.465 OA
ATOM     13  C   LIG A   1       2.856  -5.816  -1.895  0.00  0.00    +0.280 C 
ENDBRANCH  10  12
ENDBRANCH   6  10
BRANCH   9  14
ATOM     14  C   LIG A   1      -2.734  -0.098  -2.011  0.00  0.00    +0.312 C 
ATOM     15  O   LIG A   1      -2.753  -0.124  -3.226  0.00  0.00    -0.250 OA
BRANCH  14  16
ATOM     16  O   LIG A   1      -2.995   1.044  -1.341  0.00  0.00    -0.480 OA
ATOM     17  H   LIG A   1      -3.174   1.694  -2.052  0.00  0.00    +0.295 HD
ENDBRANCH  14  16
ENDBRANCH   9  14
BRANCH   3  18
ATOM     18  O   LIG A   1      -0.048   0.661  -0.471  0.00  0.00    -0.309 OA
BRANCH  18  19
ATOM     19  C   LIG A   1       0.803   1.562   0.260  0.00  0.00    +0.286 C 
ATOM     20  O   LIG A   1       0.254   1.767   1.575  0.00  0.00    -0.340 OA
ATOM     21  C   LIG A   1       0.856   2.891   2.244  0.00  0.00    +0.178 C 
ATOM     22  C   LIG A   1       0.417   4.220   1.588  0.00  0.00    +0.177 C 
ATOM     23  C   LIG A   1       0.015   3.999   0.119  0.00  0.00    +0.179 C 
ATOM     24  C   LIG A   1       0.909   2.917  -0.522  0.00  0.00    +0.201 C 
BRANCH  23  25
ATOM     25  O   LIG A   1      -1.372   3.671   0.016  0.00  0.00    -0.386 OA
ATOM     26  H   LIG A   1      -1.500   2.777   0.388  0.00  0.00    +0.210 HD
ENDBRANCH  23  25
BRANCH  22  27
ATOM     27  O   LIG A   1       1.524   5.140   1.637  0.00  0.00    -0.387 OA
ATOM     28  H   LIG A   1       1.252   5.881   2.212  0.00  0.00    +0.210 HD
ENDBRANCH  22  27
BRANCH  24  29
ATOM     29  O   LIG A   1       2.283   3.362  -0.541  0.00  0.00    -0.384 OA
ATOM     30  H   LIG A   1       2.340   4.243  -0.117  0.00  0.00    +0.210 HD
ENDBRANCH  24  29
BRANCH  21  31
ATOM     31  C   LIG A   1       0.418   2.852   3.713  0.00  0.00    +0.190 C 
BRANCH  31  32
ATOM     32  O   LIG A   1      -1.005   2.891   3.814  0.00  0.00    -0.392 OA
ATOM     33  H   LIG A   1      -1.329   2.117   3.315  0.00  0.00    +0.209 HD
ENDBRANCH  31  32
ENDBRANCH  21  31
ENDBRANCH  18  19
ENDBRANCH   3  18
TORSDOF 11
