@<TRIPOS>MOLECULE
NuBBE_2096
 32 33 0 0 0
SMALL
GASTEIGER

@<TRIPOS>ATOM
      1 C           0.2608    1.2338    0.7457 C.2     1  LIG1        0.3431
      2 O           0.0135    1.4328    1.9256 O.2     1  LIG1       -0.2448
      3 O          -0.6482    1.1587   -0.2540 O.3     1  LIG1       -0.4563
      4 C          -2.0195    1.2313    0.1501 C.3     1  LIG1        0.1179
      5 C          -2.5254   -0.1113    0.6142 C.ar    1  LIG1       -0.0103
      6 C          -2.5049   -1.2190   -0.2452 C.ar    1  LIG1       -0.0554
      7 C          -2.9788   -2.4584    0.1869 C.ar    1  LIG1       -0.0614
      8 C          -3.4760   -2.6032    1.4818 C.ar    1  LIG1       -0.0617
      9 C          -3.4950   -1.5101    2.3462 C.ar    1  LIG1       -0.0614
     10 C          -3.0213   -0.2706    1.9149 C.ar    1  LIG1       -0.0554
     11 C           1.6505    1.1723    0.2154 C.ar    1  LIG1        0.1005
     12 C           2.0268    0.4647   -0.9430 C.ar    1  LIG1        0.1341
     13 O           1.0637   -0.2674   -1.5852 O.3     1  LIG1       -0.4943
     14 C           1.4168   -0.9395   -2.7858 C.3     1  LIG1        0.0788
     15 C           3.3670    0.5101   -1.3538 C.ar    1  LIG1       -0.0191
     16 C           4.3208    1.2212   -0.6176 C.ar    1  LIG1       -0.0583
     17 C           3.9509    1.8958    0.5403 C.ar    1  LIG1       -0.0608
     18 C           2.6215    1.8718    0.9555 C.ar    1  LIG1       -0.0442
     19 H          -2.6016    1.5418   -0.7253 H       1  LIG1        0.0749
     20 H          -2.1633    2.0148    0.9051 H       1  LIG1        0.0749
     21 H          -2.1071   -1.1181   -1.2527 H       1  LIG1        0.0621
     22 H          -2.9550   -3.3131   -0.4840 H       1  LIG1        0.0618
     23 H          -3.8408   -3.5695    1.8198 H       1  LIG1        0.0618
     24 H          -3.8712   -1.6236    3.3587 H       1  LIG1        0.0618
     25 H          -3.0262    0.5699    2.6067 H       1  LIG1        0.0621
     26 H           0.5328   -1.4811   -3.1362 H       1  LIG1        0.0660
     27 H           2.2067   -1.6771   -2.6119 H       1  LIG1        0.0660
     28 H           1.7028   -0.2259   -3.5654 H       1  LIG1        0.0660
     29 H           3.7109   -0.0102   -2.2423 H       1  LIG1        0.0654
     30 H           5.3572    1.2371   -0.9465 H       1  LIG1        0.0619
     31 H           4.6935    2.4387    1.1198 H       1  LIG1        0.0618
     32 H           2.3383    2.4035    1.8623 H       1  LIG1        0.0627
@<TRIPOS>BOND
     1     1     2    2
     2     1     3    1
     3     3     4    1
     4     4     5    1
     5     5     6   ar
     6     6     7   ar
     7     7     8   ar
     8     8     9   ar
     9     9    10   ar
    10     5    10   ar
    11     1    11    1
    12    11    12   ar
    13    12    13    1
    14    13    14    1
    15    12    15   ar
    16    15    16   ar
    17    16    17   ar
    18    17    18   ar
    19    11    18   ar
    20     4    19    1
    21     4    20    1
    22     6    21    1
    23     7    22    1
    24     8    23    1
    25     9    24    1
    26    10    25    1
    27    14    26    1
    28    14    27    1
    29    14    28    1
    30    15    29    1
    31    16    30    1
    32    17    31    1
    33    18    32    1
