@<TRIPOS>MOLECULE
NuBBE_1598
 30 31 0 0 0
SMALL
GASTEIGER

@<TRIPOS>ATOM
      1 C          -0.9399   -1.0301    0.3788 C.2     1  LIG1       -0.0402
      2 C          -1.8095   -0.0062    0.4167 C.2     1  LIG1       -0.0820
      3 C          -3.2984   -0.1767    0.5101 C.3     1  LIG1       -0.0347
      4 C          -4.0058    0.4512   -0.6915 C.3     1  LIG1       -0.0525
      5 C          -5.5128    0.2609   -0.6126 C.3     1  LIG1       -0.0650
      6 C           0.5208   -0.8783    0.2821 C.ar    1  LIG1        0.0643
      7 N           1.0157    0.3802    0.2220 N.ar    1  LIG1       -0.2473
      8 C           2.3460    0.5466    0.1281 C.ar    1  LIG1        0.0716
      9 C           3.2446   -0.5397    0.0905 C.ar    1  LIG1        0.0004
     10 C           2.7109   -1.8310    0.1532 C.ar    1  LIG1       -0.0506
     11 C           1.3335   -2.0040    0.2502 C.ar    1  LIG1       -0.0357
     12 C           4.6291   -0.3129   -0.0074 C.ar    1  LIG1       -0.0526
     13 C           5.1259    0.9875   -0.0689 C.ar    1  LIG1       -0.0611
     14 C           4.2442    2.0618   -0.0336 C.ar    1  LIG1       -0.0597
     15 C           2.8689    1.8310    0.0643 C.ar    1  LIG1       -0.0357
     16 H          -1.3108   -2.0498    0.4173 H       1  LIG1        0.0636
     17 H          -1.4389    1.0175    0.3854 H       1  LIG1        0.0573
     18 H          -3.6461    0.2981    1.4353 H       1  LIG1        0.0307
     19 H          -3.5622   -1.2391    0.5786 H       1  LIG1        0.0307
     20 H          -3.6370    0.0032   -1.6223 H       1  LIG1        0.0266
     21 H          -3.7829    1.5240   -0.7405 H       1  LIG1        0.0266
     22 H          -5.7739   -0.8022   -0.6060 H       1  LIG1        0.0230
     23 H          -5.9988    0.7239   -1.4771 H       1  LIG1        0.0230
     24 H          -5.9203    0.7210    0.2933 H       1  LIG1        0.0230
     25 H           3.3585   -2.7032    0.1264 H       1  LIG1        0.0625
     26 H           0.9142   -3.0030    0.2981 H       1  LIG1        0.0639
     27 H           5.3249   -1.1480   -0.0360 H       1  LIG1        0.0624
     28 H           6.1962    1.1611   -0.1441 H       1  LIG1        0.0618
     29 H           4.6198    3.0808   -0.0815 H       1  LIG1        0.0618
     30 H           2.1843    2.6754    0.0909 H       1  LIG1        0.0639
@<TRIPOS>BOND
     1     1     2    2
     2     2     3    1
     3     3     4    1
     4     4     5    1
     5     1     6    1
     6     6     7   ar
     7     7     8   ar
     8     8     9   ar
     9     9    10   ar
    10    10    11   ar
    11     6    11   ar
    12     9    12   ar
    13    12    13   ar
    14    13    14   ar
    15    14    15   ar
    16     8    15   ar
    17     1    16    1
    18     2    17    1
    19     3    18    1
    20     3    19    1
    21     4    20    1
    22     4    21    1
    23     5    22    1
    24     5    23    1
    25     5    24    1
    26    10    25    1
    27    11    26    1
    28    12    27    1
    29    13    28    1
    30    14    29    1
    31    15    30    1
