@<TRIPOS>MOLECULE
NuBBE_2308
 48 51 0 0 0
SMALL
GASTEIGER

@<TRIPOS>ATOM
      1 C          -3.1065    1.6160   -2.2740 C.ar    1  LIG1        0.0000
      2 C          -3.7290    1.8029   -1.0426 C.ar    1  LIG1        0.0000
      3 C          -3.1057    1.5450    0.1036 C.ar    1  LIG1        0.0000
      4 C          -1.8104    1.0770    0.1618 C.ar    1  LIG1        0.0000
      5 C          -1.0962    0.8532   -1.0615 C.ar    1  LIG1        0.0000
      6 C           0.3723    0.3214   -1.1373 C.3     1  LIG1        0.0000
      7 H           0.8012    0.7978   -2.0471 H       1  LIG1        0.0000
      8 C           0.5181   -1.2271   -1.2086 C.3     1  LIG1        0.0000
      9 C           0.1614   -1.5539    0.2872 C.3     1  LIG1        0.0000
     10 C           1.1735   -0.6190    1.0182 C.3     1  LIG1        0.0000
     11 C           1.1284    0.7102    0.1626 C.3     1  LIG1        0.0000
     12 H           0.5612    1.5034    0.6898 H       1  LIG1        0.0000
     13 C           2.4819    1.3924   -0.1383 C.3     1  LIG1        0.0000
     14 C           2.5342   -1.2972    0.8815 C.2     1  LIG1        0.0000
     15 C           2.9317   -1.7576   -0.3110 C.2     1  LIG1        0.0000
     16 C           2.0023   -1.6342   -1.4700 C.2     1  LIG1        0.0000
     17 O           2.3985   -1.9093   -2.5919 O.2     1  LIG1        0.0000
     18 O           4.1442   -2.3397   -0.4253 O.2     1  LIG1        0.0000
     19 AC          5.4472   -2.2640   -2.4782 Ac      1  LIG1        0.0000
     20 C           0.9016   -0.3483    2.5272 C.3     1  LIG1        0.0000
     21 C           1.9107    0.5643    3.1920 C.2     1  LIG1        0.0000
     22 C           1.7260    1.8873    3.2133 C.2     1  LIG1        0.0000
     23 O           0.3370   -2.9054    0.6192 O.3     1  LIG1        0.0000
     24 AC         -0.2882   -3.1153    2.9847 Ac      1  LIG1        0.0000
     25 O          -0.4154   -1.6713   -2.1971 O.3     1  LIG1        0.0000
     26 C          -0.5119   -3.0437   -2.4844 C.3     1  LIG1        0.0000
     27 C          -1.7804    1.1340   -2.2819 C.ar    1  LIG1        0.0000
     28 O          -3.9235    1.8078    1.1231 O.3     1  LIG1        0.0000
     29 C          -5.1398    2.2529    0.6071 C.3     1  LIG1        0.0000
     30 O          -4.9622    2.2358   -0.7836 O.3     1  LIG1        0.0000
     31 H          -3.6280    1.8327   -3.1963 H       1  LIG1        0.0000
     32 H          -1.4071    0.9159    1.1439 H       1  LIG1        0.0000
     33 H          -0.8589   -1.2617    0.5841 H       1  LIG1        0.0000
     34 H           3.1359    0.7761   -0.7863 H       1  LIG1        0.0000
     35 H           3.0215    1.6297    0.8013 H       1  LIG1        0.0000
     36 H           2.2997    2.3397   -0.6898 H       1  LIG1        0.0000
     37 H           3.1785   -1.4186    1.7496 H       1  LIG1        0.0000
     38 H          -0.1162    0.0784    2.6651 H       1  LIG1        0.0000
     39 H           0.9473   -1.3257    3.0570 H       1  LIG1        0.0000
     40 H           2.7849    0.1560    3.6898 H       1  LIG1        0.0000
     41 H           0.8539    2.3355    2.7470 H       1  LIG1        0.0000
     42 H           2.4428    2.5279    3.7185 H       1  LIG1        0.0000
     43 H           0.0105   -3.2452   -3.4457 H       1  LIG1        0.0000
     44 H          -1.5850   -3.2752   -2.6448 H       1  LIG1        0.0000
     45 H          -0.1546   -3.7043   -1.6714 H       1  LIG1        0.0000
     46 H          -1.2822    0.9806   -3.2311 H       1  LIG1        0.0000
     47 H          -5.3508    3.2829    0.9638 H       1  LIG1        0.0000
     48 H          -5.9545    1.5600    0.9065 H       1  LIG1        0.0000
@<TRIPOS>BOND
     1     1     2   ar
     2     2     3   ar
     3     3     4   ar
     4     4     5   ar
     5     6     8    1
     6     8     9    1
     7     9    10    1
     8    10    11    1
     9     6    11    1
    10    10    14    1
    11    14    15    2
    12    15    16    1
    13     8    16    1
    14    18    19    1
    15    20    21    1
    16    21    22    2
    17    23    24    1
    18    25    26    1
    19     5    27   ar
    20     1    27   ar
    21     3    28    1
    22    28    29    1
    23    29    30    1
    24     2    30    1
    25     5     6    1
    26     6     7    1
    27     8    25    1
    28     9    23    1
    29    10    20    1
    30    11    12    1
    31    11    13    1
    32    15    18    1
    33    16    17    2
    34     1    31    1
    35     4    32    1
    36     9    33    1
    37    13    34    1
    38    13    35    1
    39    13    36    1
    40    14    37    1
    41    20    38    1
    42    20    39    1
    43    21    40    1
    44    22    41    1
    45    22    42    1
    46    26    43    1
    47    26    44    1
    48    26    45    1
    49    27    46    1
    50    29    47    1
    51    29    48    1
