@<TRIPOS>MOLECULE
NuBBE_127
 55 58 0 0 0
SMALL
GASTEIGER

@<TRIPOS>ATOM
      1 O          -8.7316   -2.9312    2.0876 O.3     1  LIG1       -0.5068
      2 C          -7.4496   -2.8229    1.6393 C.ar    1  LIG1        0.1169
      3 C          -6.5784   -1.8752    2.1577 C.ar    1  LIG1       -0.0195
      4 C          -5.2715   -1.8073    1.6652 C.ar    1  LIG1       -0.0476
      5 C          -4.8223   -2.6821    0.6555 C.ar    1  LIG1        0.0176
      6 C          -3.4482   -2.5427    0.1219 C.ar    1  LIG1        0.1392
      7 O          -2.9959   -1.2375    0.1480 O.2     1  LIG1       -0.4544
      8 C          -1.7689   -0.9502   -0.3802 C.ar    1  LIG1        0.1465
      9 C          -0.8865   -1.9141   -0.8519 C.ar    1  LIG1        0.1091
     10 C           0.3780   -1.5245   -1.3221 C.ar    1  LIG1        0.1769
     11 O           1.2865   -2.4544   -1.7719 O.3     1  LIG1       -0.5027
     12 C           0.7465   -0.1627   -1.3320 C.ar    1  LIG1        0.2074
     13 O           2.0588    0.1192   -1.6703 O.3     1  LIG1       -0.4535
     14 C           2.6548    1.2927   -1.0810 C.3     1  LIG1        0.2311
     15 H           2.1616    2.1841   -1.4701 H       1  LIG1        0.1084
     16 O           4.0140    1.4497   -1.5837 O.3     1  LIG1       -0.3313
     17 C           4.7017    2.4430   -0.8137 C.3     1  LIG1        0.1140
     18 H           4.0404    3.3030   -0.6328 H       1  LIG1        0.0647
     19 C           5.1286    1.8127    0.5248 C.3     1  LIG1        0.1120
     20 H           6.0574    1.2434    0.3982 H       1  LIG1        0.0647
     21 C           4.0339    0.8580    1.0361 C.3     1  LIG1        0.1152
     22 H           4.0071    0.9070    2.1311 H       1  LIG1        0.0648
     23 O           4.3450   -0.4983    0.6998 O.3     1  LIG1       -0.3864
     24 O           5.3801    2.8357    1.4962 O.3     1  LIG1       -0.3865
     25 C           5.9087    3.0047   -1.5683 C.3     1  LIG1        0.0731
     26 O           6.5629    4.0082   -0.7885 O.3     1  LIG1       -0.3924
     27 C           2.6483    1.2441    0.4888 C.3     1  LIG1        0.1454
     28 H           1.9113    0.5271    0.8609 H       1  LIG1        0.0683
     29 O           2.2619    2.5340    1.0087 O.3     1  LIG1       -0.3829
     30 C          -0.2151    0.8025   -0.9613 C.ar    1  LIG1        0.1688
     31 O           0.0490    2.1225   -1.1966 O.3     1  LIG1       -0.4912
     32 C          -0.5267    3.0683   -0.3021 C.3     1  LIG1        0.0790
     33 C          -1.4490    0.3989   -0.4526 C.ar    1  LIG1        0.0270
     34 C          -2.7155   -3.5685   -0.3404 C.ar    1  LIG1        0.0288
     35 C          -1.3517   -3.3076   -0.8441 C.ar    1  LIG1        0.1967
     36 O          -0.6353   -4.2183   -1.2633 O.2     1  LIG1       -0.2869
     37 C          -5.7302   -3.6185    0.1422 C.ar    1  LIG1       -0.0476
     38 C          -7.0369   -3.6908    0.6362 C.ar    1  LIG1       -0.0195
     39 H          -8.8732   -2.2768    2.7914 H       1  LIG1        0.2921
     40 H          -6.8916   -1.1825    2.9326 H       1  LIG1        0.0654
     41 H          -4.6037   -1.0542    2.0803 H       1  LIG1        0.0626
     42 H           0.8641   -3.3420   -1.7638 H       1  LIG1        0.2923
     43 H           4.3361   -0.5826   -0.2744 H       1  LIG1        0.2100
     44 H           6.1931    3.2928    1.1967 H       1  LIG1        0.2100
     45 H           6.6312    2.2155   -1.7973 H       1  LIG1        0.0584
     46 H           5.6011    3.4454   -2.5231 H       1  LIG1        0.0584
     47 H           5.9367    4.7502   -0.6918 H       1  LIG1        0.2095
     48 H           2.4952    2.5530    1.9549 H       1  LIG1        0.2102
     49 H           0.0827    3.9758   -0.3482 H       1  LIG1        0.0660
     50 H          -0.5219    2.7143    0.7344 H       1  LIG1        0.0660
     51 H          -1.5399    3.3230   -0.6250 H       1  LIG1        0.0660
     52 H          -2.1955    1.1211   -0.1383 H       1  LIG1        0.0692
     53 H          -3.0571   -4.5952   -0.3672 H       1  LIG1        0.0693
     54 H          -5.4466   -4.2910   -0.6633 H       1  LIG1        0.0626
     55 H          -7.7340   -4.4187    0.2305 H       1  LIG1        0.0654
@<TRIPOS>BOND
     1     1     2    1
     2     2     3   ar
     3     3     4   ar
     4     4     5   ar
     5     5     6    1
     6     6     7   ar
     7     7     8   ar
     8     8     9   ar
     9     9    10   ar
    10    10    11    1
    11    10    12   ar
    12    12    13    1
    13    13    14    1
    14    14    15    1
    15    14    16    1
    16    16    17    1
    17    17    19    1
    18    19    20    1
    19    19    21    1
    20    19    24    1
    21    25    26    1
    22    14    27    1
    23    21    27    1
    24    12    30   ar
    25    30    31    1
    26    31    32    1
    27    30    33   ar
    28     8    33   ar
    29     6    34   ar
    30    34    35   ar
    31     9    35   ar
    32    35    36    2
    33     5    37   ar
    34    37    38   ar
    35     2    38   ar
    36    17    25    1
    37    17    18    1
    38    21    23    1
    39    21    22    1
    40    27    29    1
    41    27    28    1
    42     1    39    1
    43     3    40    1
    44     4    41    1
    45    11    42    1
    46    23    43    1
    47    24    44    1
    48    25    45    1
    49    25    46    1
    50    26    47    1
    51    29    48    1
    52    32    49    1
    53    32    50    1
    54    32    51    1
    55    33    52    1
    56    34    53    1
    57    37    54    1
    58    38    55    1
