REMARK  Name = NuBBE_1566
REMARK  17 active torsions:
REMARK  status: ('A' for Active; 'I' for Inactive)
REMARK    1  A    between atoms: C_4  and  C_5
REMARK    2  A    between atoms: C_5  and  C_6
REMARK    3  A    between atoms: C_6  and  C_7
REMARK    4  A    between atoms: C_7  and  C_8
REMARK    5  A    between atoms: C_8  and  C_9
REMARK    6  A    between atoms: C_9  and  C_10
REMARK    7  A    between atoms: C_10  and  C_11
REMARK    8  A    between atoms: C_11  and  C_12
REMARK    9  A    between atoms: C_12  and  C_13
REMARK   10  A    between atoms: C_13  and  C_14
REMARK   11  A    between atoms: C_14  and  C_15
REMARK   12  A    between atoms: C_15  and  C_16
REMARK   13  A    between atoms: C_16  and  C_17
REMARK   14  A    between atoms: C_17  and  C_18
REMARK   15  A    between atoms: C_18  and  C_19
REMARK   16  A    between atoms: C_19  and  C_20
REMARK   17  A    between atoms: C_21  and  C_22
REMARK                            x       y       z     vdW  Elec       q    Type
REMARK                         _______ _______ _______ _____ _____    ______ ____
ROOT
ATOM      1  O   LIG A   1      -5.929   3.733   1.474  0.00  0.00    -0.287 OA
ATOM      2  C   LIG A   1      -5.341   3.685   0.360  0.00  0.00    +0.200 A 
ATOM      3  C   LIG A   1      -4.164   2.844   0.157  0.00  0.00    +0.083 A 
ATOM      4  C   LIG A   1      -3.586   2.102   1.333  0.00  0.00    +0.211 C 
ATOM      5  C   LIG A   1      -3.780   2.633  -1.111  0.00  0.00    +0.149 A 
ATOM      6  C   LIG A   1      -2.911   1.480  -1.352  0.00  0.00    +0.059 A 
ATOM      7  C   LIG A   1      -2.405   1.146  -2.620  0.00  0.00    +0.015 A 
ATOM      8  C   LIG A   1      -1.792  -0.093  -2.843  0.00  0.00    +0.001 A 
ATOM      9  C   LIG A   1      -1.733  -1.026  -1.819  0.00  0.00    +0.004 A 
ATOM     10  C   LIG A   1      -2.267  -0.704  -0.574  0.00  0.00    +0.046 A 
ATOM     11  C   LIG A   1      -2.772   0.561  -0.316  0.00  0.00    +0.132 A 
ATOM     12  O   LIG A   1      -3.169   0.779   0.972  0.00  0.00    -0.483 OA
ATOM     13  O   LIG A   1      -4.292   3.264  -2.224  0.00  0.00    -0.454 OA
ATOM     14  C   LIG A   1      -5.306   4.159  -2.042  0.00  0.00    +0.139 A 
ATOM     15  C   LIG A   1      -5.827   4.797  -3.166  0.00  0.00    +0.047 A 
ATOM     16  C   LIG A   1      -6.904   5.677  -3.033  0.00  0.00    +0.004 A 
ATOM     17  C   LIG A   1      -7.453   5.929  -1.770  0.00  0.00    +0.001 A 
ATOM     18  C   LIG A   1      -6.933   5.301  -0.646  0.00  0.00    +0.015 A 
ATOM     19  C   LIG A   1      -5.870   4.412  -0.787  0.00  0.00    +0.064 A 
ENDROOT
BRANCH   4  20
ATOM     20  C   LIG A   1      -2.449   2.903   2.022  0.00  0.00    +0.050 C 
BRANCH  20  21
ATOM     21  C   LIG A   1      -1.807   2.232   3.255  0.00  0.00    +0.004 C 
BRANCH  21  22
ATOM     22  C   LIG A   1      -1.090   0.888   3.028  0.00  0.00    +0.000 C 
BRANCH  22  23
ATOM     23  C   LIG A   1       0.089   0.997   2.055  0.00  0.00    -0.000 C 
BRANCH  23  24
ATOM     24  C   LIG A   1       0.899  -0.295   1.859  0.00  0.00    -0.000 C 
BRANCH  24  25
ATOM     25  C   LIG A   1       0.131  -1.430   1.197  0.00  0.00    -0.000 C 
BRANCH  25  26
ATOM     26  C   LIG A   1       0.932  -2.672   0.866  0.00  0.00    -0.000 C 
BRANCH  26  27
ATOM     27  C   LIG A   1       1.562  -3.388   2.050  0.00  0.00    -0.000 C 
BRANCH  27  28
ATOM     28  C   LIG A   1       2.408  -4.628   1.706  0.00  0.00    -0.000 C 
BRANCH  28  29
ATOM     29  C   LIG A   1       3.695  -4.400   0.890  0.00  0.00    -0.000 C 
BRANCH  29  30
ATOM     30  C   LIG A   1       3.470  -3.879  -0.528  0.00  0.00    -0.000 C 
BRANCH  30  31
ATOM     31  C   LIG A   1       4.727  -3.649  -1.348  0.00  0.00    +0.000 C 
BRANCH  31  32
ATOM     32  C   LIG A   1       4.437  -2.899  -2.664  0.00  0.00    +0.000 C 
BRANCH  32  33
ATOM     33  C   LIG A   1       3.728  -1.527  -2.580  0.00  0.00    +0.004 C 
BRANCH  33  34
ATOM     34  C   LIG A   1       4.496  -0.425  -1.833  0.00  0.00    +0.027 C 
BRANCH  34  35
ATOM     35  C   LIG A   1       4.709  -0.688  -0.370  0.00  0.00    -0.031 C 
ATOM     36  C   LIG A   1       5.921  -0.840   0.188  0.00  0.00    -0.034 C 
ATOM     37  C   LIG A   1       6.144  -1.215   1.616  0.00  0.00    +0.035 C 
ENDBRANCH  34  35
ENDBRANCH  33  34
ENDBRANCH  32  33
ENDBRANCH  31  32
ENDBRANCH  30  31
ENDBRANCH  29  30
ENDBRANCH  28  29
ENDBRANCH  27  28
ENDBRANCH  26  27
ENDBRANCH  25  26
ENDBRANCH  24  25
ENDBRANCH  23  24
ENDBRANCH  22  23
ENDBRANCH  21  22
ENDBRANCH  20  21
ENDBRANCH   4  20
TORSDOF 16
