@<TRIPOS>MOLECULE
NuBBE_2236
 52 55 0 0 0
SMALL
GASTEIGER

@<TRIPOS>ATOM
      1 C          -1.7186    1.5071   -0.9476 C.3     1  LIG1       -0.0562
      2 C          -0.2370    1.1244   -0.6292 C.3     1  LIG1        0.0075
      3 C           0.2843    0.1154   -1.7429 C.3     1  LIG1       -0.0274
      4 C          -0.4334   -1.2430   -1.6276 C.3     1  LIG1       -0.0485
      5 C          -0.2755   -1.8989   -0.2662 C.3     1  LIG1       -0.0437
      6 C          -0.7294   -1.0040    0.8882 C.3     1  LIG1        0.0112
      7 C          -2.2904   -1.0765    1.0041 C.3     1  LIG1       -0.0230
      8 C          -2.5374   -1.2342    2.4755 C.2     1  LIG1       -0.0725
      9 C          -1.2521   -0.9693    3.2042 C.3     1  LIG1       -0.0128
     10 H          -1.2190   -1.4504    4.1851 H       1  LIG1        0.0350
     11 C          -0.2784   -1.6245    2.2340 C.3     1  LIG1       -0.0371
     12 C          -1.0550    0.5410    3.3211 C.3     1  LIG1        0.0153
     13 C          -3.6787   -1.6508    3.0284 C.2     1  LIG1       -0.0992
     14 C          -0.1565    0.4736    0.8174 C.3     1  LIG1        0.1349
     15 O           1.2222    0.4584    1.2118 O.3     1  LIG1       -0.3799
     16 C          -0.7588    1.2818    2.0050 C.2     1  LIG1        0.1662
     17 O          -0.8274    2.5080    1.9889 O.2     1  LIG1       -0.2943
     18 H          -0.0845    0.5502   -2.6873 H       1  LIG1        0.0312
     19 C           1.8499   -0.0155   -1.9794 C.3     1  LIG1       -0.0315
     20 C           2.6571   -0.9502   -1.0459 C.3     1  LIG1       -0.0595
     21 C           2.0809   -0.6539   -3.3857 C.3     1  LIG1       -0.0595
     22 C           2.5261    1.3740   -2.0236 C.3     1  LIG1       -0.0476
     23 C           2.0259    2.4426   -1.0681 C.3     1  LIG1       -0.0520
     24 C           0.5307    2.4723   -0.8024 C.3     1  LIG1       -0.0443
     25 H          -2.3724    0.6500   -1.0983 H       1  LIG1        0.0236
     26 H          -1.7970    2.0883   -1.8737 H       1  LIG1        0.0236
     27 H          -2.1522    2.1278   -0.1548 H       1  LIG1        0.0236
     28 H          -0.1020   -1.9344   -2.4073 H       1  LIG1        0.0268
     29 H          -1.5030   -1.1104   -1.8312 H       1  LIG1        0.0268
     30 H           0.7482   -2.2291   -0.0989 H       1  LIG1        0.0272
     31 H          -0.8518   -2.8347   -0.2742 H       1  LIG1        0.0272
     32 H          -2.7112   -1.9239    0.4550 H       1  LIG1        0.0316
     33 H          -2.7898   -0.1670    0.6755 H       1  LIG1        0.0316
     34 H          -0.4001   -2.7157    2.2255 H       1  LIG1        0.0278
     35 H           0.7672   -1.4309    2.4939 H       1  LIG1        0.0278
     36 H          -0.2255    0.7477    4.0051 H       1  LIG1        0.0348
     37 H          -1.9605    0.9959    3.7368 H       1  LIG1        0.0348
     38 H          -4.5545   -1.8639    2.4215 H       1  LIG1        0.0534
     39 H          -3.7680   -1.7923    4.1020 H       1  LIG1        0.0534
     40 H           1.5170    1.3846    1.2902 H       1  LIG1        0.2108
     41 H           2.4260   -2.0055   -1.2310 H       1  LIG1        0.0235
     42 H           2.5319   -0.7618    0.0137 H       1  LIG1        0.0235
     43 H           3.7340   -0.8611   -1.2363 H       1  LIG1        0.0235
     44 H           1.7474   -1.6964   -3.4238 H       1  LIG1        0.0235
     45 H           3.1479   -0.6573   -3.6403 H       1  LIG1        0.0235
     46 H           1.5518   -0.1050   -4.1707 H       1  LIG1        0.0235
     47 H           3.6070    1.2688   -1.8544 H       1  LIG1        0.0271
     48 H           2.4432    1.7777   -3.0406 H       1  LIG1        0.0271
     49 H           2.2931    3.4151   -1.5096 H       1  LIG1        0.0266
     50 H           2.5830    2.4051   -0.1290 H       1  LIG1        0.0266
     51 H           0.0935    3.0161   -1.6537 H       1  LIG1        0.0272
     52 H           0.3519    3.1344    0.0510 H       1  LIG1        0.0272
@<TRIPOS>BOND
     1     1     2    1
     2     2     3    1
     3     3     4    1
     4     4     5    1
     5     5     6    1
     6     6     7    1
     7     7     8    1
     8     8     9    1
     9     9    10    1
    10     9    11    1
    11     9    12    1
    12     8    13    2
    13    11     6    1
    14     6    14    1
    15    14    15    1
    16     2    14    1
    17    14    16    1
    18    12    16    1
    19    16    17    2
    20     3    18    1
    21     3    19    1
    22    19    20    1
    23    19    21    1
    24    19    22    1
    25    22    23    1
    26    23    24    1
    27     2    24    1
    28     1    25    1
    29     1    26    1
    30     1    27    1
    31     4    28    1
    32     4    29    1
    33     5    30    1
    34     5    31    1
    35     7    32    1
    36     7    33    1
    37    11    34    1
    38    11    35    1
    39    12    36    1
    40    12    37    1
    41    13    38    1
    42    13    39    1
    43    15    40    1
    44    20    41    1
    45    20    42    1
    46    20    43    1
    47    21    44    1
    48    21    45    1
    49    21    46    1
    50    22    47    1
    51    22    48    1
    52    23    49    1
    53    23    50    1
    54    24    51    1
    55    24    52    1
