@<TRIPOS>MOLECULE
NuBBE_2180
 55 56 0 0 0
SMALL
GASTEIGER

@<TRIPOS>ATOM
      1 C          -0.2133    0.0132    0.3190 C.3     1  LIG1        0.0000
      2 H           0.6224   -0.6601    0.0852 H       1  LIG1        0.0337
      3 C          -1.3581   -0.3133   -0.7064 C.3     1  LIG1       -0.0216
      4 C          -1.0305   -0.1881   -2.2021 C.ar    1  LIG1       -0.0433
      5 C          -1.2927    1.0109   -2.8781 C.ar    1  LIG1       -0.0131
      6 C          -1.0206    1.1968   -4.2539 C.ar    1  LIG1        0.1617
      7 O          -1.1809    2.4422   -4.8331 O.3     1  LIG1       -0.4914
      8 C          -1.0504    3.5394   -3.9106 C.3     1  LIG1        0.0790
      9 C          -0.5586    0.1037   -5.0204 C.ar    1  LIG1        0.1615
     10 C          -0.3117   -1.0980   -4.3435 C.ar    1  LIG1       -0.0160
     11 C          -0.5118   -1.2351   -2.9583 C.ar    1  LIG1       -0.0549
     12 O          -0.3907    0.2229   -6.3833 O.3     1  LIG1       -0.4915
     13 C           0.5019   -0.7004   -7.0287 C.3     1  LIG1        0.0790
     14 C           0.2927    1.4486    0.0348 C.3     1  LIG1       -0.0588
     15 C          -0.5665   -0.2080    1.8978 C.3     1  LIG1        0.1473
     16 O          -1.8173    0.4843    2.1913 O.3     1  LIG1       -0.3645
     17 C          -2.2486    0.5990    3.5567 C.3     1  LIG1        0.0382
     18 C          -0.6568   -1.7261    2.2560 C.2     1  LIG1        0.1367
     19 C           0.2088   -2.3075    3.1023 C.2     1  LIG1        0.0260
     20 C           1.3220   -1.5861    3.7398 C.2     1  LIG1        0.1855
     21 O           2.1807   -2.2402    4.3776 O.2     1  LIG1       -0.2875
     22 C           1.3658   -0.1443    3.6176 C.2     1  LIG1        0.0023
     23 C           0.5064    0.4722    2.7710 C.2     1  LIG1       -0.0379
     24 C           2.3028    0.5669    4.5487 C.3     1  LIG1       -0.0063
     25 C           3.6761    0.7097    3.9671 C.2     1  LIG1       -0.0867
     26 C           4.0610    1.8145    3.3163 C.2     1  LIG1       -0.1023
     27 O          -1.6240   -2.5083    1.6210 O.2     1  LIG1       -0.4960
     28 C          -1.6084   -3.8978    2.0088 C.3     1  LIG1        0.0785
     29 H          -2.2135    0.3474   -0.5128 H       1  LIG1        0.0317
     30 H          -1.7260   -1.3320   -0.5599 H       1  LIG1        0.0317
     31 H          -1.7018    1.8228   -2.2862 H       1  LIG1        0.0658
     32 H          -0.1547    3.4292   -3.2845 H       1  LIG1        0.0660
     33 H          -1.9428    3.6433   -3.2791 H       1  LIG1        0.0660
     34 H          -0.9478    4.4755   -4.4665 H       1  LIG1        0.0660
     35 H           0.0382   -1.9806   -4.8633 H       1  LIG1        0.0655
     36 H          -0.2761   -2.1925   -2.5044 H       1  LIG1        0.0621
     37 H           0.3071   -0.6969   -8.1075 H       1  LIG1        0.0660
     38 H           0.3872   -1.7481   -6.7328 H       1  LIG1        0.0660
     39 H           1.5374   -0.3844   -6.8676 H       1  LIG1        0.0660
     40 H           0.4927    1.6166   -1.0271 H       1  LIG1        0.0234
     41 H           1.2519    1.6352    0.5263 H       1  LIG1        0.0234
     42 H          -0.4301    2.2025    0.3630 H       1  LIG1        0.0234
     43 H          -3.2812    0.9718    3.5523 H       1  LIG1        0.0524
     44 H          -1.6703    1.3365    4.1326 H       1  LIG1        0.0524
     45 H          -2.2492   -0.3604    4.0809 H       1  LIG1        0.0524
     46 H           0.2049   -3.3257    3.4280 H       1  LIG1        0.0690
     47 H           0.5354    1.5550    2.7175 H       1  LIG1        0.0609
     48 H           2.3667    0.0241    5.5041 H       1  LIG1        0.0357
     49 H           1.8921    1.5440    4.8055 H       1  LIG1        0.0357
     50 H           4.3694   -0.1212    4.0935 H       1  LIG1        0.0570
     51 H           3.3745    2.6450    3.1839 H       1  LIG1        0.0532
     52 H           5.0540    1.9008    2.8915 H       1  LIG1        0.0532
     53 H          -1.9568   -3.9843    3.0464 H       1  LIG1        0.0660
     54 H          -0.6040   -4.3345    1.9025 H       1  LIG1        0.0660
     55 H          -2.2571   -4.5000    1.3713 H       1  LIG1        0.0660
@<TRIPOS>BOND
     1     1     2    1
     2     1     3    1
     3     3     4    1
     4     4     5   ar
     5     5     6   ar
     6     6     7    1
     7     7     8    1
     8     6     9   ar
     9     9    10   ar
    10    10    11   ar
    11     4    11   ar
    12     9    12    1
    13    12    13    1
    14     1    14    1
    15     1    15    1
    16    15    16    1
    17    16    17    1
    18    15    18    1
    19    18    19    2
    20    19    20    1
    21    20    21    2
    22    20    22    1
    23    22    23    2
    24    15    23    1
    25    22    24    1
    26    24    25    1
    27    25    26    2
    28    18    27    1
    29    27    28    1
    30     3    29    1
    31     3    30    1
    32     5    31    1
    33     8    32    1
    34     8    33    1
    35     8    34    1
    36    10    35    1
    37    11    36    1
    38    13    37    1
    39    13    38    1
    40    13    39    1
    41    14    40    1
    42    14    41    1
    43    14    42    1
    44    17    43    1
    45    17    44    1
    46    17    45    1
    47    19    46    1
    48    23    47    1
    49    24    48    1
    50    24    49    1
    51    25    50    1
    52    26    51    1
    53    26    52    1
    54    28    53    1
    55    28    54    1
    56    28    55    1
