REMARK  Name = NuBBE_16
REMARK  14 active torsions:
REMARK  status: ('A' for Active; 'I' for Inactive)
REMARK    1  A    between atoms: O_1  and  C_2
REMARK    2  A    between atoms: C_3  and  C_21
REMARK    3  A    between atoms: C_5  and  C_8
REMARK    4  A    between atoms: C_8  and  C_9
REMARK    5  A    between atoms: C_9  and  C_10
REMARK    6  A    between atoms: C_10  and  C_11
REMARK    7  A    between atoms: C_11  and  C_12
REMARK    8  A    between atoms: C_12  and  C_13
REMARK    9  A    between atoms: C_13  and  C_14
REMARK   10  A    between atoms: C_14  and  C_15
REMARK   11  A    between atoms: C_15  and  C_16
REMARK   12  A    between atoms: C_16  and  C_17
REMARK   13  A    between atoms: C_17  and  C_18
REMARK   14  A    between atoms: C_18  and  C_19
REMARK                            x       y       z     vdW  Elec       q    Type
REMARK                         _______ _______ _______ _____ _____    ______ ____
ROOT
ATOM      1  C   LIG A   1      -2.012  -1.411  -0.602  0.00  0.00    +0.006 C 
ENDROOT
BRANCH   1   2
ATOM      2  C   LIG A   1      -2.216  -1.965  -2.003  0.00  0.00    +0.055 C 
BRANCH   2   6
ATOM      3  C   LIG A   1      -0.418   0.822  -4.662  0.00  0.00    +0.138 A 
ATOM      4  C   LIG A   1      -0.794   1.157  -3.370  0.00  0.00    +0.080 A 
ATOM      5  N   LIG A   1      -1.342   0.244  -2.549  0.00  0.00    -0.253 NA
ATOM      6  C   LIG A   1      -1.541  -1.027  -2.981  0.00  0.00    +0.042 A 
ATOM      7  C   LIG A   1      -1.179  -1.433  -4.252  0.00  0.00    +0.027 A 
ATOM      8  C   LIG A   1      -0.608  -0.487  -5.102  0.00  0.00    +0.049 A 
ATOM      9  C   LIG A   1      -0.663   2.525  -2.778  0.00  0.00    +0.069 C 
BRANCH   3  10
ATOM     10  O   LIG A   1       0.122   1.706  -5.548  0.00  0.00    -0.505 OA
ATOM     11  H   LIG A   1       0.149   2.586  -5.138  0.00  0.00    +0.292 HD
ENDBRANCH   3  10
ENDBRANCH   2   6
ENDBRANCH   1   2
BRANCH   1  12
ATOM     12  C   LIG A   1      -2.548  -2.242   0.544  0.00  0.00    +0.000 C 
BRANCH  12  13
ATOM     13  C   LIG A   1      -2.296  -1.606   1.918  0.00  0.00    +0.000 C 
BRANCH  13  14
ATOM     14  C   LIG A   1      -0.838  -1.545   2.391  0.00  0.00    +0.007 C 
BRANCH  14  15
ATOM     15  C   LIG A   1       0.162  -0.788   1.520  0.00  0.00    +0.074 C 
BRANCH  15  16
ATOM     16  C   LIG A   1      -0.079   0.719   1.433  0.00  0.00    +0.133 C 
ATOM     17  O   LIG A   1      -1.115   1.281   1.908  0.00  0.00    -0.297 OA
BRANCH  16  18
ATOM     18  C   LIG A   1       0.953   1.554   0.685  0.00  0.00    +0.074 C 
BRANCH  18  19
ATOM     19  C   LIG A   1       2.007   2.288   1.525  0.00  0.00    +0.007 C 
BRANCH  19  20
ATOM     20  C   LIG A   1       3.058   1.442   2.269  0.00  0.00    +0.000 C 
BRANCH  20  21
ATOM     21  C   LIG A   1       2.519   0.614   3.432  0.00  0.00    -0.003 C 
ATOM     22  C   LIG A   1       3.519  -0.331   4.074  0.00  0.00    +0.004 C 
ENDBRANCH  20  21
ENDBRANCH  19  20
ENDBRANCH  18  19
ENDBRANCH  16  18
ENDBRANCH  15  16
ENDBRANCH  14  15
ENDBRANCH  13  14
ENDBRANCH  12  13
ENDBRANCH   1  12
TORSDOF 12
