@<TRIPOS>MOLECULE
NuBBE_1505
 59 59 0 0 0
SMALL
GASTEIGER

@<TRIPOS>ATOM
      1 C           1.8081    2.8467   -2.8620 C.3     1  LIG1       -0.0209
      2 C           1.2315    1.4716   -3.1880 C.3     1  LIG1        0.0099
      3 C           2.0628    0.3644   -2.5518 C.2     1  LIG1        0.1361
      4 O           3.2664    0.2615   -2.7650 O.2     1  LIG1       -0.2973
      5 C           1.3291   -0.6337   -1.6581 C.3     1  LIG1        0.0319
      6 C           1.3254   -0.2124   -0.1863 C.3     1  LIG1        0.0619
      7 H           2.3571   -0.1354    0.1758 H       1  LIG1        0.0597
      8 C           0.5416   -1.2250    0.6757 C.3     1  LIG1       -0.0265
      9 C           0.5514   -0.9112    2.1830 C.3     1  LIG1       -0.0507
     10 C          -0.2621   -1.9142    3.0200 C.3     1  LIG1       -0.0530
     11 C           0.2469   -3.3575    2.9295 C.3     1  LIG1       -0.0531
     12 C          -0.5760   -4.3534    3.7527 C.3     1  LIG1       -0.0531
     13 C          -2.0527   -4.4474    3.3478 C.3     1  LIG1       -0.0531
     14 C          -2.8384   -5.4642    4.1873 C.3     1  LIG1       -0.0533
     15 C          -2.8532   -5.1024    5.6746 C.3     1  LIG1       -0.0559
     16 C          -3.6398   -6.0986    6.5070 C.3     1  LIG1       -0.0653
     17 O           0.7172    1.0720   -0.0802 O.3     1  LIG1       -0.3914
     18 C           1.0139    3.9916   -3.4569 C.ar    1  LIG1       -0.0433
     19 C           1.6270    4.8730   -4.3675 C.ar    1  LIG1       -0.0131
     20 C           0.9226    5.9570   -4.8976 C.ar    1  LIG1        0.1615
     21 O           1.4097    6.8831   -5.7851 O.3     1  LIG1       -0.4915
     22 C           2.7587    6.7091   -6.2034 C.3     1  LIG1        0.0790
     23 C          -0.4049    6.1543   -4.5063 C.ar    1  LIG1        0.1585
     24 C          -1.0299    5.3006   -3.6076 C.ar    1  LIG1       -0.0163
     25 C          -0.3195    4.2202   -3.0810 C.ar    1  LIG1       -0.0549
     26 O          -1.1211    7.2096   -5.0044 O.3     1  LIG1       -0.5033
     27 H           2.8453    2.8975   -3.2185 H       1  LIG1        0.0317
     28 H           1.8639    2.9907   -1.7764 H       1  LIG1        0.0317
     29 H           1.2171    1.2984   -4.2714 H       1  LIG1        0.0345
     30 H           0.1977    1.3901   -2.8409 H       1  LIG1        0.0345
     31 H           1.8366   -1.6005   -1.7735 H       1  LIG1        0.0367
     32 H           0.3168   -0.7551   -2.0488 H       1  LIG1        0.0367
     33 H           0.9755   -2.2163    0.5122 H       1  LIG1        0.0290
     34 H          -0.5048   -1.2647    0.3445 H       1  LIG1        0.0290
     35 H           0.1267    0.0856    2.3560 H       1  LIG1        0.0266
     36 H           1.5835   -0.8853    2.5504 H       1  LIG1        0.0266
     37 H          -1.3086   -1.8569    2.7038 H       1  LIG1        0.0265
     38 H          -0.2359   -1.5987    4.0720 H       1  LIG1        0.0265
     39 H           1.2807   -3.3868    3.2977 H       1  LIG1        0.0265
     40 H           0.2687   -3.7012    1.8918 H       1  LIG1        0.0265
     41 H          -0.4876   -4.0682    4.8048 H       1  LIG1        0.0265
     42 H          -0.1198   -5.3469    3.6537 H       1  LIG1        0.0265
     43 H          -2.1247   -4.7274    2.2891 H       1  LIG1        0.0265
     44 H          -2.5408   -3.4727    3.4515 H       1  LIG1        0.0265
     45 H          -2.4179   -6.4666    4.0449 H       1  LIG1        0.0265
     46 H          -3.8708   -5.4984    3.8153 H       1  LIG1        0.0265
     47 H          -3.2832   -4.1023    5.8026 H       1  LIG1        0.0263
     48 H          -1.8345   -5.0712    6.0726 H       1  LIG1        0.0263
     49 H          -4.6557   -6.2248    6.1232 H       1  LIG1        0.0230
     50 H          -3.7049   -5.7466    7.5418 H       1  LIG1        0.0230
     51 H          -3.1444   -7.0747    6.5146 H       1  LIG1        0.0230
     52 H           1.0297    1.4704    0.7525 H       1  LIG1        0.2098
     53 H           2.6620    4.6937   -4.6402 H       1  LIG1        0.0658
     54 H           3.0011    7.5191   -6.8978 H       1  LIG1        0.0660
     55 H           2.8853    5.7620   -6.7384 H       1  LIG1        0.0660
     56 H           3.4475    6.7812   -5.3551 H       1  LIG1        0.0660
     57 H          -2.0600    5.4817   -3.3154 H       1  LIG1        0.0655
     58 H          -0.8141    3.5650   -2.3670 H       1  LIG1        0.0621
     59 H          -0.5022    7.6707   -5.6036 H       1  LIG1        0.2923
@<TRIPOS>BOND
     1     1     2    1
     2     2     3    1
     3     3     4    2
     4     3     5    1
     5     6     8    1
     6     8     9    1
     7     9    10    1
     8    10    11    1
     9    11    12    1
    10    12    13    1
    11    13    14    1
    12    14    15    1
    13    15    16    1
    14     6    17    1
    15     1    18    1
    16    18    19   ar
    17    19    20   ar
    18    20    21    1
    19    21    22    1
    20    20    23   ar
    21    23    24   ar
    22    24    25   ar
    23    18    25   ar
    24    23    26    1
    25     6     7    1
    26     6     5    1
    27     1    27    1
    28     1    28    1
    29     2    29    1
    30     2    30    1
    31     5    31    1
    32     5    32    1
    33     8    33    1
    34     8    34    1
    35     9    35    1
    36     9    36    1
    37    10    37    1
    38    10    38    1
    39    11    39    1
    40    11    40    1
    41    12    41    1
    42    12    42    1
    43    13    43    1
    44    13    44    1
    45    14    45    1
    46    14    46    1
    47    15    47    1
    48    15    48    1
    49    16    49    1
    50    16    50    1
    51    16    51    1
    52    17    52    1
    53    19    53    1
    54    22    54    1
    55    22    55    1
    56    22    56    1
    57    24    57    1
    58    25    58    1
    59    26    59    1
