@<TRIPOS>MOLECULE
NuBBE_1181
 60 65 0 0 0
SMALL
GASTEIGER

@<TRIPOS>ATOM
      1 C          -1.1513   -0.6882    0.9208 C.3     1  LIG1       -0.0563
      2 C          -1.3438   -0.5267   -0.5935 C.3     1  LIG1        0.0069
      3 C          -1.3256    0.9429   -0.9897 C.3     1  LIG1        0.1120
      4 C          -2.4482    1.1715   -1.9587 C.3     1  LIG1        0.0902
      5 H          -2.3777    1.8476   -2.7950 H       1  LIG1        0.0625
      6 C          -3.1749   -0.1129   -2.1933 C.3     1  LIG1       -0.0165
      7 C          -2.8272   -0.9859   -0.9617 C.3     1  LIG1       -0.0030
      8 H          -3.4832   -0.6287   -0.1514 H       1  LIG1        0.0355
      9 C          -3.1758   -2.4427   -1.1288 C.2     1  LIG1        0.0082
     10 C          -2.4805   -3.5340   -0.8090 C.2     1  LIG1        0.0279
     11 C          -3.2936   -4.6920   -1.1792 C.2     1  LIG1        0.3345
     12 O          -4.4834   -4.2699   -1.6727 O.3     1  LIG1       -0.4282
     13 C          -4.4848   -2.8526   -1.7029 C.3     1  LIG1        0.2262
     14 O          -5.5571   -2.3408   -0.9434 O.3     1  LIG1       -0.3543
     15 O          -2.9398   -5.8483   -1.0512 O.2     1  LIG1       -0.2455
     16 O          -2.4943    1.6978   -0.6317 O.3     1  LIG1       -0.3634
     17 C          -0.0476    1.7227   -1.1669 C.3     1  LIG1        0.0610
     18 H          -0.1421    2.2377   -2.1373 H       1  LIG1        0.0414
     19 C           1.2065    0.8544   -1.3132 C.3     1  LIG1       -0.0156
     20 C           2.2017    0.7175   -0.0668 C.3     1  LIG1        0.0156
     21 C           1.8666    1.6450    1.1422 C.2     1  LIG1       -0.0018
     22 C           2.5987    1.3368    2.5010 C.3     1  LIG1        0.0528
     23 C           4.1011    1.6843    2.4552 C.3     1  LIG1       -0.0488
     24 C           2.4665   -0.1731    2.7973 C.2     1  LIG1        0.1655
     25 C           2.4729   -1.1288    1.6698 C.2     1  LIG1       -0.0214
     26 C           2.3825   -0.7163    0.4014 C.2     1  LIG1       -0.0704
     27 O           2.4512   -0.6514    3.9318 O.2     1  LIG1       -0.2918
     28 C           2.0333    2.0544    3.7568 C.3     1  LIG1       -0.0488
     29 C           0.9654    2.6436    1.0180 C.2     1  LIG1        0.1606
     30 O           0.7461    3.5893    1.9994 O.2     1  LIG1       -0.5034
     31 C           0.1419    2.8490   -0.1988 C.2     1  LIG1        0.2033
     32 O          -0.4281    3.9373   -0.3168 O.2     1  LIG1       -0.2884
     33 C           3.5959    1.1169   -0.6438 C.3     1  LIG1       -0.0519
     34 H           1.7898    1.4184   -2.0605 H       1  LIG1        0.0320
     35 C           0.8200   -0.4303   -2.0695 C.3     1  LIG1       -0.0478
     36 C          -0.2615   -1.2912   -1.4032 C.3     1  LIG1       -0.0440
     37 H          -0.2276   -0.2273    1.2635 H       1  LIG1        0.0236
     38 H          -1.1356   -1.7412    1.2180 H       1  LIG1        0.0236
     39 H          -1.9570   -0.1975    1.4793 H       1  LIG1        0.0236
     40 H          -2.8203   -0.5747   -3.1219 H       1  LIG1        0.0297
     41 H          -4.2531    0.0569   -2.2779 H       1  LIG1        0.0297
     42 H          -1.5105   -3.6402   -0.3597 H       1  LIG1        0.0690
     43 H          -4.5980   -2.5281   -2.7421 H       1  LIG1        0.1108
     44 H          -5.3305   -2.4643   -0.0076 H       1  LIG1        0.2139
     45 H           4.5093    1.8326    3.4629 H       1  LIG1        0.0242
     46 H           4.2831    2.6083    1.8957 H       1  LIG1        0.0242
     47 H           4.7047    0.8806    2.0242 H       1  LIG1        0.0242
     48 H           2.6032   -2.1727    1.9332 H       1  LIG1        0.0650
     49 H           2.5109   -1.4875   -0.3546 H       1  LIG1        0.0582
     50 H           2.4998    1.6846    4.6792 H       1  LIG1        0.0242
     51 H           0.9559    1.8870    3.8685 H       1  LIG1        0.0242
     52 H           2.2392    3.1303    3.7390 H       1  LIG1        0.0242
     53 H           0.1070    4.2278    1.6114 H       1  LIG1        0.2923
     54 H           3.6597    2.1978   -0.8168 H       1  LIG1        0.0241
     55 H           3.7861    0.6154   -1.6024 H       1  LIG1        0.0241
     56 H           4.4333    0.8301   -0.0055 H       1  LIG1        0.0241
     57 H           1.7004   -1.0372   -2.3086 H       1  LIG1        0.0269
     58 H           0.4287   -0.1264   -3.0523 H       1  LIG1        0.0269
     59 H           0.2159   -2.0427   -0.7646 H       1  LIG1        0.0272
     60 H          -0.7242   -1.8650   -2.2156 H       1  LIG1        0.0272
@<TRIPOS>BOND
     1     1     2    1
     2     2     3    1
     3     3     4    1
     4     4     5    1
     5     4     6    1
     6     6     7    1
     7     2     7    1
     8     9    10    2
     9    10    11    1
    10    11    12    1
    11    12    13    1
    12     9    13    1
    13    13    14    1
    14    11    15    2
    15     4    16    1
    16     3    16    1
    17     3    17    1
    18    17    18    1
    19    17    19    1
    20    19    20    1
    21    20    21    1
    22    21    22    1
    23    22    23    1
    24    22    24    1
    25    24    25    1
    26    25    26    2
    27    24    27    2
    28    22    28    1
    29    21    29    2
    30    29    30    1
    31    29    31    1
    32    17    31    1
    33    31    32    2
    34    26    20    1
    35    20    33    1
    36    19    34    1
    37    19    35    1
    38    35    36    1
    39     2    36    1
    40     7     9    1
    41     7     8    1
    42     1    37    1
    43     1    38    1
    44     1    39    1
    45     6    40    1
    46     6    41    1
    47    10    42    1
    48    13    43    1
    49    14    44    1
    50    23    45    1
    51    23    46    1
    52    23    47    1
    53    25    48    1
    54    26    49    1
    55    28    50    1
    56    28    51    1
    57    28    52    1
    58    30    53    1
    59    33    54    1
    60    33    55    1
    61    33    56    1
    62    35    57    1
    63    35    58    1
    64    36    59    1
    65    36    60    1
