REMARK  Name = NuBBE_2277
REMARK  4 active torsions:
REMARK  status: ('A' for Active; 'I' for Inactive)
REMARK    1  A    between atoms: C_5  and  O_6
REMARK    2  A    between atoms: O_6  and  C_7
REMARK    3  A    between atoms: C_9  and  C_10
REMARK    4  A    between atoms: C_11  and  C_12
REMARK                            x       y       z     vdW  Elec       q    Type
REMARK                         _______ _______ _______ _____ _____    ______ ____
ROOT
ATOM      1  C   LIG A   1      -0.194   0.227   0.109  0.00  0.00    +0.047 C 
ATOM      2  C   LIG A   1      -0.048  -1.099   0.274  0.00  0.00    +0.012 C 
ENDROOT
BRANCH   2   3
ATOM      3  C   LIG A   1       1.220  -1.814   0.065  0.00  0.00    -0.021 A 
ATOM      4  C   LIG A   1       1.478  -2.979   0.824  0.00  0.00    +0.012 A 
ATOM      5  C   LIG A   1       2.662  -3.707   0.654  0.00  0.00    +0.050 A 
ATOM      6  C   LIG A   1       3.561  -3.254  -0.285  0.00  0.00    +0.166 A 
ATOM      7  O   LIG A   1       4.757  -3.825  -0.587  0.00  0.00    -0.453 OA
ATOM      8  C   LIG A   1       5.229  -2.938  -1.622  0.00  0.00    +0.466 C 
ATOM      9  O   LIG A   1       4.317  -1.859  -1.913  0.00  0.00    -0.453 OA
ATOM     10  C   LIG A   1       3.312  -2.134  -1.040  0.00  0.00    +0.167 A 
ATOM     11  C   LIG A   1       2.154  -1.401  -0.898  0.00  0.00    +0.057 A 
ENDBRANCH   2   3
BRANCH   1  18
ATOM     12  O   LIG A   1      -4.742   0.127   1.246  0.00  0.00    -0.245 OA
ATOM     13  C   LIG A   1      -3.753   0.768   0.906  0.00  0.00    +0.341 A 
ATOM     14  O   LIG A   1      -2.540   0.181   0.697  0.00  0.00    -0.423 OA
ATOM     15  C   LIG A   1      -3.853   2.223   0.712  0.00  0.00    +0.137 A 
ATOM     16  C   LIG A   1      -2.784   2.941   0.338  0.00  0.00    +0.130 A 
ATOM     17  C   LIG A   1      -1.526   2.280   0.124  0.00  0.00    +0.092 A 
ATOM     18  C   LIG A   1      -1.427   0.957   0.303  0.00  0.00    +0.135 A 
BRANCH  16  19
ATOM     19  O   LIG A   1      -2.721   4.295   0.122  0.00  0.00    -0.495 OA
ATOM     20  C   LIG A   1      -3.912   5.047   0.321  0.00  0.00    +0.277 C 
ENDBRANCH  16  19
ENDBRANCH   1  18
TORSDOF 3
