@<TRIPOS>MOLECULE
NuBBE_1990
 75 78 0 0 0
SMALL
GASTEIGER

@<TRIPOS>ATOM
      1 C          -1.6105   -0.0159    0.9086 C.3     1  LIG1       -0.0590
      2 C          -0.2199    0.0683    0.2046 C.3     1  LIG1       -0.0259
      3 C           0.7495   -1.0757    0.5809 C.3     1  LIG1       -0.0320
      4 H           1.6435   -0.9665   -0.0547 H       1  LIG1        0.0309
      5 C           1.3132   -1.0740    2.0084 C.3     1  LIG1       -0.0307
      6 H           2.1913   -1.7408    1.9484 H       1  LIG1        0.0309
      7 C           1.9127    0.3168    2.3734 C.3     1  LIG1       -0.0285
      8 H           2.9960    0.1070    2.3382 H       1  LIG1        0.0312
      9 C           1.7579    1.3639    1.2322 C.3     1  LIG1       -0.0486
     10 C           0.3526    1.4367    0.6292 C.3     1  LIG1       -0.0468
     11 C           1.6909    0.8589    3.8457 C.3     1  LIG1       -0.0078
     12 C           3.0453    1.5082    4.2618 C.3     1  LIG1       -0.0556
     13 C           1.3023   -0.2400    4.8353 C.2     1  LIG1       -0.0648
     14 C           0.7794   -1.4122    4.4647 C.2     1  LIG1       -0.0839
     15 C           0.4442   -1.7617    3.0553 C.3     1  LIG1       -0.0311
     16 C           1.2373    0.1753    6.2884 C.3     1  LIG1       -0.0051
     17 C           0.1720    1.2714    6.4363 C.3     1  LIG1        0.0590
     18 H          -0.8194    0.8231    6.2953 H       1  LIG1        0.0596
     19 C           0.3395    2.4108    5.4223 C.3     1  LIG1       -0.0258
     20 C           0.5637    1.9188    3.9794 C.3     1  LIG1       -0.0413
     21 O           0.1985    1.8061    7.7584 O.3     1  LIG1       -0.3915
     22 C           0.0535   -2.3251    0.0687 C.3     1  LIG1       -0.0492
     23 C          -0.5764   -1.8611   -1.2536 C.3     1  LIG1       -0.0492
     24 C          -0.4702   -0.2900   -1.3188 C.3     1  LIG1       -0.0328
     25 H          -1.4416    0.1207   -1.6207 H       1  LIG1        0.0309
     26 C           0.5556    0.1057   -2.4421 C.3     1  LIG1       -0.0403
     27 H           1.5020   -0.4061   -2.2217 H       1  LIG1        0.0301
     28 C           0.1243   -0.4056   -3.8636 C.3     1  LIG1       -0.0465
     29 C          -1.1017    0.2700   -4.5043 C.3     1  LIG1       -0.0315
     30 C          -1.4191   -0.2998   -5.8858 C.2     1  LIG1       -0.0740
     31 C          -0.8542    0.2344   -6.9848 C.2     1  LIG1       -0.0992
     32 C          -2.4270   -1.4478   -5.9473 C.3     1  LIG1       -0.0258
     33 C          -3.8525   -0.8926   -6.0472 C.3     1  LIG1       -0.0590
     34 C          -2.1934   -2.4509   -7.0879 C.3     1  LIG1       -0.0590
     35 C           0.8925    1.5975   -2.5264 C.3     1  LIG1       -0.0621
     36 H          -1.5313    0.1366    1.9886 H       1  LIG1        0.0235
     37 H          -2.1315   -0.9633    0.7495 H       1  LIG1        0.0235
     38 H          -2.2701    0.7733    0.5258 H       1  LIG1        0.0235
     39 H           2.4625    1.1087    0.4290 H       1  LIG1        0.0268
     40 H           2.0685    2.3581    1.5706 H       1  LIG1        0.0268
     41 H           0.3047    2.1718   -0.1719 H       1  LIG1        0.0271
     42 H          -0.2882    1.8899    1.3945 H       1  LIG1        0.0271
     43 H           3.8446    0.7581    4.3049 H       1  LIG1        0.0238
     44 H           3.0185    1.9924    5.2416 H       1  LIG1        0.0238
     45 H           3.3486    2.2791    3.5446 H       1  LIG1        0.0238
     46 H           0.4240   -2.1156    5.2192 H       1  LIG1        0.0572
     47 H          -0.6180   -1.5532    2.9101 H       1  LIG1        0.0310
     48 H           0.5505   -2.8481    2.9384 H       1  LIG1        0.0310
     49 H           2.2137    0.5119    6.6528 H       1  LIG1        0.0335
     50 H           0.9736   -0.6661    6.9424 H       1  LIG1        0.0335
     51 H           1.1625    3.0669    5.7295 H       1  LIG1        0.0290
     52 H          -0.5519    3.0504    5.4528 H       1  LIG1        0.0290
     53 H           0.7776    2.7978    3.3617 H       1  LIG1        0.0274
     54 H          -0.3820    1.4954    3.6195 H       1  LIG1        0.0274
     55 H           1.0716    2.2106    7.8984 H       1  LIG1        0.2098
     56 H          -0.7232   -2.6898    0.7482 H       1  LIG1        0.0268
     57 H           0.7589   -3.1480   -0.0875 H       1  LIG1        0.0268
     58 H          -1.6236   -2.1773   -1.3113 H       1  LIG1        0.0268
     59 H          -0.0469   -2.3663   -2.0639 H       1  LIG1        0.0268
     60 H          -0.0569   -1.4835   -3.8417 H       1  LIG1        0.0271
     61 H           0.9856   -0.2835   -4.5350 H       1  LIG1        0.0271
     62 H          -0.9270    1.3489   -4.5949 H       1  LIG1        0.0310
     63 H          -1.9801    0.1581   -3.8596 H       1  LIG1        0.0310
     64 H          -0.1612    1.0672   -6.9185 H       1  LIG1        0.0534
     65 H          -1.0704   -0.1295   -7.9840 H       1  LIG1        0.0534
     66 H          -2.3457   -2.0205   -5.0142 H       1  LIG1        0.0340
     67 H          -3.9866   -0.2987   -6.9592 H       1  LIG1        0.0235
     68 H          -4.0912   -0.2524   -5.1916 H       1  LIG1        0.0235
     69 H          -4.5881   -1.7044   -6.0696 H       1  LIG1        0.0235
     70 H          -2.3475   -2.0008   -8.0748 H       1  LIG1        0.0235
     71 H          -2.8928   -3.2915   -7.0078 H       1  LIG1        0.0235
     72 H          -1.1785   -2.8607   -7.0507 H       1  LIG1        0.0235
     73 H           1.4050    1.8381   -3.4646 H       1  LIG1        0.0233
     74 H           1.5923    1.8880   -1.7381 H       1  LIG1        0.0233
     75 H          -0.0022    2.2243   -2.4598 H       1  LIG1        0.0233
@<TRIPOS>BOND
     1     2     3    1
     2     3     5    1
     3     5     7    1
     4     7     9    1
     5     9    10    1
     6     2    10    1
     7     7    11    1
     8    11    13    1
     9    13    14    2
    10    14    15    1
    11     5    15    1
    12    13    16    1
    13    16    17    1
    14    17    19    1
    15    19    20    1
    16    11    20    1
    17     3    22    1
    18    22    23    1
    19    23    24    1
    20     2    24    1
    21    26    27    1
    22    26    28    1
    23    28    29    1
    24    29    30    1
    25    30    31    2
    26    30    32    1
    27    32    33    1
    28    32    34    1
    29    26    35    1
    30     1     2    1
    31     3     4    1
    32     5     6    1
    33     7     8    1
    34    11    12    1
    35    17    21    1
    36    17    18    1
    37    24    26    1
    38    24    25    1
    39     1    36    1
    40     1    37    1
    41     1    38    1
    42     9    39    1
    43     9    40    1
    44    10    41    1
    45    10    42    1
    46    12    43    1
    47    12    44    1
    48    12    45    1
    49    14    46    1
    50    15    47    1
    51    15    48    1
    52    16    49    1
    53    16    50    1
    54    19    51    1
    55    19    52    1
    56    20    53    1
    57    20    54    1
    58    21    55    1
    59    22    56    1
    60    22    57    1
    61    23    58    1
    62    23    59    1
    63    28    60    1
    64    28    61    1
    65    29    62    1
    66    29    63    1
    67    31    64    1
    68    31    65    1
    69    32    66    1
    70    33    67    1
    71    33    68    1
    72    33    69    1
    73    34    70    1
    74    34    71    1
    75    34    72    1
    76    35    73    1
    77    35    74    1
    78    35    75    1
