REMARK  Name = NuBBE_1510
REMARK  13 active torsions:
REMARK  status: ('A' for Active; 'I' for Inactive)
REMARK    1  A    between atoms: C_1  and  C_2
REMARK    2  A    between atoms: C_1  and  C_17
REMARK    3  A    between atoms: C_2  and  S_3
REMARK    4  A    between atoms: S_3  and  C_4
REMARK    5  A    between atoms: N_7  and  C_8
REMARK    6  A    between atoms: C_9  and  S_15
REMARK    7  A    between atoms: N_13  and  C_14
REMARK    8  A    between atoms: S_15  and  C_16
REMARK    9  A    between atoms: C_20  and  O_23
REMARK   10  A    between atoms: O_23  and  C_24
REMARK   11  A    between atoms: C_24  and  C_25
REMARK   12  A    between atoms: C_26  and  C_27
REMARK   13  A    between atoms: C_26  and  C_28
REMARK                            x       y       z     vdW  Elec       q    Type
REMARK                         _______ _______ _______ _____ _____    ______ ____
ROOT
ATOM      1  C   LIG A   1       2.037  -1.039  -2.257  0.00  0.00    +0.164 C 
ATOM      2  C   LIG A   1       2.659   0.061  -1.318  0.00  0.00    +0.251 C 
ATOM      3  O   LIG A   1       3.288  -0.240  -0.303  0.00  0.00    -0.272 OA
ATOM      4  N   LIG A   1       2.696   1.365  -1.811  0.00  0.00    -0.282 N 
ATOM      5  C   LIG A   1       3.377   2.379  -1.018  0.00  0.00    +0.134 C 
ATOM      6  C   LIG A   1       1.801   1.816  -2.877  0.00  0.00    +0.220 C 
ATOM      7  C   LIG A   1       1.170   0.708  -3.758  0.00  0.00    +0.248 C 
ATOM      8  O   LIG A   1       0.738   0.949  -4.872  0.00  0.00    -0.273 OA
ATOM      9  N   LIG A   1       0.933  -0.514  -3.104  0.00  0.00    -0.280 N 
ATOM     10  C   LIG A   1       0.128  -1.438  -3.892  0.00  0.00    +0.134 C 
ENDROOT
BRANCH   1  11
ATOM     11  S   LIG A   1       3.403  -1.514  -3.528  0.00  0.00    -0.129 S 
ATOM     12  C   LIG A   1       4.807  -2.003  -2.501  0.00  0.00    +0.087 C 
ENDBRANCH   1  11
BRANCH   6  13
ATOM     13  S   LIG A   1       0.447   2.864  -2.191  0.00  0.00    -0.133 S 
ATOM     14  C   LIG A   1      -0.414   3.314  -3.727  0.00  0.00    +0.086 C 
ENDBRANCH   6  13
BRANCH   1  15
ATOM     15  C   LIG A   1       1.633  -2.288  -1.387  0.00  0.00    +0.082 C 
BRANCH  15  16
ATOM     16  C   LIG A   1       0.509  -2.066  -0.373  0.00  0.00    -0.044 A 
ATOM     17  C   LIG A   1      -0.840  -2.296  -0.678  0.00  0.00    +0.007 A 
ATOM     18  C   LIG A   1      -1.861  -1.983   0.234  0.00  0.00    +0.046 A 
ATOM     19  C   LIG A   1      -1.558  -1.472   1.494  0.00  0.00    +0.121 A 
ATOM     20  C   LIG A   1      -0.218  -1.324   1.842  0.00  0.00    +0.046 A 
ATOM     21  C   LIG A   1       0.800  -1.618   0.921  0.00  0.00    +0.007 A 
BRANCH  19  22
ATOM     22  O   LIG A   1      -2.621  -1.218   2.323  0.00  0.00    -0.488 OA
BRANCH  22  23
ATOM     23  C   LIG A   1      -2.419  -0.179   3.299  0.00  0.00    +0.256 C 
BRANCH  23  24
ATOM     24  C   LIG A   1      -3.667  -0.041   4.131  0.00  0.00    +0.012 C 
ATOM     25  C   LIG A   1      -3.881   0.798   5.169  0.00  0.00    -0.076 C 
ATOM     26  C   LIG A   1      -2.894   1.786   5.731  0.00  0.00    +0.038 C 
ATOM     27  C   LIG A   1      -5.216   0.820   5.869  0.00  0.00    +0.038 C 
ENDBRANCH  23  24
ENDBRANCH  22  23
ENDBRANCH  19  22
ENDBRANCH  15  16
ENDBRANCH   1  15
TORSDOF 7
