@<TRIPOS>MOLECULE
NuBBE_2015
 60 63 0 0 0
SMALL
GASTEIGER

@<TRIPOS>ATOM
      1 O          -2.7652    0.9302    0.5704 O.2     1  LIG1       -0.2914
      2 C          -1.7000    0.3554    0.6103 C.2     1  LIG1        0.1975
      3 C          -1.6208   -1.1857    0.7416 C.3     1  LIG1        0.1197
      4 H          -1.9371   -1.3931    1.7732 H       1  LIG1        0.0676
      5 O          -2.4782   -1.9145   -0.1305 O.3     1  LIG1       -0.3722
      6 C          -3.8704   -1.6741    0.0661 C.3     1  LIG1        0.0374
      7 C          -0.1931   -1.7650    0.6036 C.3     1  LIG1       -0.0099
      8 C           1.0197   -0.8377    0.9535 C.3     1  LIG1        0.0202
      9 C           2.1356   -1.6897    1.6382 C.3     1  LIG1       -0.0255
     10 C           2.5972   -2.9292    0.8834 C.2     1  LIG1       -0.0905
     11 C           3.7605   -3.0736    0.2310 C.2     1  LIG1       -0.1026
     12 C           1.5735   -0.0269   -0.2718 C.3     1  LIG1       -0.0244
     13 H           2.3524    0.6260    0.1582 H       1  LIG1        0.0312
     14 C           2.3321   -0.6709   -1.4240 C.3     1  LIG1       -0.0611
     15 C           0.4321    0.9396   -0.6677 C.3     1  LIG1        0.0271
     16 H           0.9486    1.8891   -0.8818 H       1  LIG1        0.0385
     17 C          -0.3775    0.6771   -1.9539 C.ar    1  LIG1       -0.0370
     18 C          -0.9480    1.7828   -2.6339 C.ar    1  LIG1       -0.0545
     19 C          -1.6327    1.6369   -3.8569 C.ar    1  LIG1       -0.0159
     20 C          -1.7562    0.3740   -4.3894 C.ar    1  LIG1        0.1662
     21 O          -2.3623    0.0334   -5.5582 O.3     1  LIG1       -0.4526
     22 C          -2.1564   -1.3970   -5.5668 C.3     1  LIG1        0.2332
     23 O          -1.4334   -1.8751   -4.4158 O.3     1  LIG1       -0.4526
     24 C          -1.2310   -0.7090   -3.7440 C.ar    1  LIG1        0.1665
     25 C          -0.5510   -0.5864   -2.5469 C.ar    1  LIG1       -0.0126
     26 C          -0.3676    1.1262    0.6824 C.3     1  LIG1        0.1730
     27 C           0.4710    0.3869    1.8143 C.3     1  LIG1        0.1422
     28 H          -0.1474    0.0081    2.6373 H       1  LIG1        0.0772
     29 O           1.5524    1.1705    2.3633 O.2     1  LIG1       -0.4900
     30 C           1.4219    1.9756    3.4784 C.2     1  LIG1        0.0882
     31 C           2.6579    2.7591    3.8408 C.3     1  LIG1       -0.0075
     32 C           0.3523    2.1380    4.2798 C.2     1  LIG1       -0.0613
     33 O          -0.4950    2.5338    0.8813 O.3     1  LIG1       -0.3646
     34 C          -1.4256    2.9538    1.8667 C.3     1  LIG1        0.0379
     35 H          -4.4298   -2.3179   -0.6179 H       1  LIG1        0.0524
     36 H          -4.1529   -0.6496   -0.1809 H       1  LIG1        0.0524
     37 H          -4.1654   -1.9120    1.0926 H       1  LIG1        0.0524
     38 H          -0.0446   -2.2339   -0.3694 H       1  LIG1        0.0301
     39 H          -0.1828   -2.6362    1.2746 H       1  LIG1        0.0301
     40 H           3.0019   -1.0649    1.8814 H       1  LIG1        0.0314
     41 H           1.7483   -2.0537    2.5998 H       1  LIG1        0.0314
     42 H           1.9381   -3.7971    0.9098 H       1  LIG1        0.0566
     43 H           4.4870   -2.2707    0.1529 H       1  LIG1        0.0532
     44 H           4.0034   -3.9986   -0.2878 H       1  LIG1        0.0532
     45 H           1.8735   -1.5786   -1.8138 H       1  LIG1        0.0233
     46 H           3.3479   -0.9211   -1.1166 H       1  LIG1        0.0233
     47 H           2.4633    0.0450   -2.2442 H       1  LIG1        0.0233
     48 H          -0.8419    2.7847   -2.2187 H       1  LIG1        0.0622
     49 H          -2.0439    2.4964   -4.3741 H       1  LIG1        0.0655
     50 H          -1.5949   -1.6703   -6.4685 H       1  LIG1        0.1166
     51 H          -3.1318   -1.8972   -5.6007 H       1  LIG1        0.1166
     52 H          -0.1585   -1.5024   -2.1413 H       1  LIG1        0.0658
     53 H           3.1434    2.2873    4.7034 H       1  LIG1        0.0307
     54 H           2.4147    3.7923    4.1210 H       1  LIG1        0.0307
     55 H           3.3765    2.7990    3.0189 H       1  LIG1        0.0307
     56 H          -0.5802    1.6070    4.1866 H       1  LIG1        0.0567
     57 H           0.3881    2.8707    5.0865 H       1  LIG1        0.0567
     58 H          -1.6767    2.1589    2.5706 H       1  LIG1        0.0524
     59 H          -2.3496    3.2955    1.3961 H       1  LIG1        0.0524
     60 H          -0.9915    3.7989    2.4073 H       1  LIG1        0.0524
@<TRIPOS>BOND
     1     2     3    1
     2     5     6    1
     3     3     7    1
     4     7     8    1
     5     9    10    1
     6    10    11    2
     7     8    12    1
     8    12    15    1
     9    17    18   ar
    10    18    19   ar
    11    19    20   ar
    12    20    21    1
    13    21    22    1
    14    22    23    1
    15    20    24   ar
    16    23    24    1
    17    24    25   ar
    18    17    25   ar
    19    15    26    1
    20    26    27    1
    21     8    27    1
    22    29    30    1
    23    30    31    1
    24    30    32    2
    25     2    26    1
    26    33    34    1
    27     1     2    2
    28     3     4    1
    29     3     5    1
    30     8     9    1
    31    15    16    1
    32    15    17    1
    33    26    33    1
    34    27    28    1
    35    27    29    1
    36    12    14    1
    37    12    13    1
    38     6    35    1
    39     6    36    1
    40     6    37    1
    41     7    38    1
    42     7    39    1
    43     9    40    1
    44     9    41    1
    45    10    42    1
    46    11    43    1
    47    11    44    1
    48    14    45    1
    49    14    46    1
    50    14    47    1
    51    18    48    1
    52    19    49    1
    53    22    50    1
    54    22    51    1
    55    25    52    1
    56    31    53    1
    57    31    54    1
    58    31    55    1
    59    32    56    1
    60    32    57    1
    61    34    58    1
    62    34    59    1
    63    34    60    1
