@<TRIPOS>MOLECULE
NuBBE_1343
 39 39 0 0 0
SMALL
GASTEIGER

@<TRIPOS>ATOM
      1 C          -4.5742    1.7100    1.8234 C.3     1  LIG1       -0.0396
      2 C          -3.1242    1.6313    1.4483 C.ar    1  LIG1       -0.0470
      3 C          -2.7086    1.8604    0.1325 C.ar    1  LIG1       -0.0170
      4 C          -1.3526    1.7966   -0.1977 C.ar    1  LIG1        0.1205
      5 O          -0.9620    2.0272   -1.4881 O.3     1  LIG1       -0.5065
      6 C          -0.3800    1.5006    0.7658 C.ar    1  LIG1       -0.0031
      7 C           1.1013    1.4933    0.4158 C.3     1  LIG1       -0.0149
      8 C           1.8538    2.5133    1.2817 C.3     1  LIG1       -0.0583
      9 C           1.7411    0.0955    0.5344 C.3     1  LIG1       -0.0397
     10 C           1.1193   -0.9209   -0.4265 C.3     1  LIG1        0.0066
     11 C           1.7785   -2.2890   -0.3106 C.2     1  LIG1        0.1359
     12 C           1.7864   -3.1902   -1.5438 C.3     1  LIG1        0.0119
     13 C           0.3709   -3.4811   -2.0260 C.3     1  LIG1       -0.0560
     14 C           2.6465   -2.5896   -2.6495 C.3     1  LIG1       -0.0560
     15 O           2.2554   -2.6877    0.7509 O.2     1  LIG1       -0.2971
     16 C          -0.8129    1.2333    2.0751 C.ar    1  LIG1       -0.0546
     17 C          -2.1677    1.3002    2.4127 C.ar    1  LIG1       -0.0583
     18 H          -5.1665    2.1779    1.0299 H       1  LIG1        0.0278
     19 H          -4.7007    2.3170    2.7261 H       1  LIG1        0.0278
     20 H          -4.9725    0.7071    2.0047 H       1  LIG1        0.0278
     21 H          -3.4480    2.0967   -0.6270 H       1  LIG1        0.0657
     22 H          -1.7411    2.2860   -2.0062 H       1  LIG1        0.2921
     23 H           1.2341    1.8250   -0.6215 H       1  LIG1        0.0347
     24 H           1.9102    2.1994    2.3297 H       1  LIG1        0.0236
     25 H           1.3595    3.4914    1.2521 H       1  LIG1        0.0236
     26 H           2.8786    2.6463    0.9198 H       1  LIG1        0.0236
     27 H           1.6741   -0.2735    1.5650 H       1  LIG1        0.0275
     28 H           2.8136    0.1741    0.3085 H       1  LIG1        0.0275
     29 H           1.2278   -0.5484   -1.4489 H       1  LIG1        0.0342
     30 H           0.0521   -1.0592   -0.2282 H       1  LIG1        0.0342
     31 H           2.2447   -4.1409   -1.2400 H       1  LIG1        0.0372
     32 H          -0.1606   -2.5642   -2.3011 H       1  LIG1        0.0236
     33 H          -0.2110   -3.9773   -1.2418 H       1  LIG1        0.0236
     34 H           0.3858   -4.1366   -2.9031 H       1  LIG1        0.0236
     35 H           2.2147   -1.6660   -3.0473 H       1  LIG1        0.0236
     36 H           2.7486   -3.2905   -3.4841 H       1  LIG1        0.0236
     37 H           3.6490   -2.3527   -2.2773 H       1  LIG1        0.0236
     38 H          -0.0944    0.9827    2.8529 H       1  LIG1        0.0622
     39 H          -2.4689    1.1026    3.4395 H       1  LIG1        0.0620
@<TRIPOS>BOND
     1     1     2    1
     2     2     3   ar
     3     3     4   ar
     4     4     5    1
     5     4     6   ar
     6     6     7    1
     7     7     8    1
     8     7     9    1
     9     9    10    1
    10    10    11    1
    11    11    12    1
    12    12    13    1
    13    12    14    1
    14    11    15    2
    15     6    16   ar
    16    16    17   ar
    17     2    17   ar
    18     1    18    1
    19     1    19    1
    20     1    20    1
    21     3    21    1
    22     5    22    1
    23     7    23    1
    24     8    24    1
    25     8    25    1
    26     8    26    1
    27     9    27    1
    28     9    28    1
    29    10    29    1
    30    10    30    1
    31    12    31    1
    32    13    32    1
    33    13    33    1
    34    13    34    1
    35    14    35    1
    36    14    36    1
    37    14    37    1
    38    16    38    1
    39    17    39    1
