REMARK  Name = NuBBE_2235
REMARK  7 active torsions:
REMARK  status: ('A' for Active; 'I' for Inactive)
REMARK    1  A    between atoms: C_1  and  C_2
REMARK    2  A    between atoms: C_8  and  O_9
REMARK    3  A    between atoms: C_10  and  O_12
REMARK    4  A    between atoms: O_12  and  C_13
REMARK    5  A    between atoms: C_13  and  C_14
REMARK    6  A    between atoms: C_23  and  C_24
REMARK    7  A    between atoms: C_23  and  C_25
REMARK                            x       y       z     vdW  Elec       q    Type
REMARK                         _______ _______ _______ _____ _____    ______ ____
ROOT
ATOM      1  C   LIG A   1      -1.337   0.531  -1.532  0.00  0.00    +0.014 C 
ATOM      2  C   LIG A   1       0.033   0.648  -0.800  0.00  0.00    +0.004 C 
ATOM      3  C   LIG A   1       0.976  -0.234  -1.725  0.00  0.00    +0.003 C 
ATOM      4  C   LIG A   1       0.804  -1.739  -1.429  0.00  0.00    +0.005 C 
ATOM      5  C   LIG A   1       0.965  -2.114   0.032  0.00  0.00    +0.010 C 
ATOM      6  C   LIG A   1      -0.036  -1.405   0.950  0.00  0.00    +0.008 C 
ATOM      7  C   LIG A   1      -1.449  -2.056   0.889  0.00  0.00    +0.040 C 
ATOM      8  C   LIG A   1      -0.015   0.164   0.743  0.00  0.00    +0.114 C 
ATOM      9  C   LIG A   1      -1.086   0.859   1.698  0.00  0.00    +0.209 C 
ATOM     10  C   LIG A   1      -1.092   0.221   3.121  0.00  0.00    +0.055 C 
ATOM     11  C   LIG A   1      -0.908  -1.306   3.165  0.00  0.00    +0.019 C 
ATOM     12  C   LIG A   1       0.352  -1.720   2.424  0.00  0.00    +0.018 C 
ATOM     13  C   LIG A   1      -1.922  -2.031   2.327  0.00  0.00    -0.073 C 
ATOM     14  C   LIG A   1      -2.962  -2.719   2.813  0.00  0.00    +0.008 C 
ATOM     15  C   LIG A   1       2.443   0.239  -2.030  0.00  0.00    -0.032 C 
ATOM     16  C   LIG A   1       3.493  -0.281  -1.037  0.00  0.00    +0.011 C 
ATOM     17  C   LIG A   1       2.853  -0.296  -3.432  0.00  0.00    +0.011 C 
ATOM     18  C   LIG A   1       2.529   1.776  -2.128  0.00  0.00    +0.007 C 
ATOM     19  C   LIG A   1       1.912   2.476  -0.940  0.00  0.00    +0.001 C 
ATOM     20  C   LIG A   1       0.424   2.164  -0.864  0.00  0.00    +0.010 C 
ENDROOT
BRANCH   8  21
ATOM     21  O   LIG A   1       1.279   0.554   1.291  0.00  0.00    -0.384 OA
ATOM     22  H   LIG A   1       1.249   1.496   1.529  0.00  0.00    +0.210 HD
ENDBRANCH   8  21
BRANCH   9  23
ATOM     23  O   LIG A   1      -2.442   0.858   1.187  0.00  0.00    -0.459 OA
BRANCH  23  24
ATOM     24  C   LIG A   1      -2.940   2.037   0.716  0.00  0.00    +0.304 C 
ATOM     25  C   LIG A   1      -4.293   1.855   0.092  0.00  0.00    +0.136 C 
ATOM     26  O   LIG A   1      -2.319   3.104   0.666  0.00  0.00    -0.251 OA
ENDBRANCH  23  24
ENDBRANCH   9  23
TORSDOF 3
