@<TRIPOS>MOLECULE
NuBBE_53
 63 64 0 0 0
SMALL
GASTEIGER

@<TRIPOS>ATOM
      1 C          -1.2192   -1.6043    2.1676 C.3     1  LIG1       -0.0618
      2 C           0.0362   -2.2167    1.5265 C.3     1  LIG1       -0.0355
      3 H          -0.1783   -3.2884    1.4096 H       1  LIG1        0.0304
      4 C           1.2078   -2.1186    2.5247 C.3     1  LIG1       -0.0225
      5 C           1.8029   -0.7134    2.6913 C.3     1  LIG1        0.0719
      6 H           2.6420   -0.8186    3.3861 H       1  LIG1        0.0606
      7 O           0.8521    0.1499    3.3183 O.3     1  LIG1       -0.3905
      8 C           2.2587   -0.1043    1.3419 C.3     1  LIG1        0.0828
      9 C           3.5287   -0.8466    0.9016 C.2     1  LIG1        0.1336
     10 O           4.1626   -0.6113   -0.1252 O.2     1  LIG1       -0.3000
     11 C           2.7529    1.3470    1.4670 C.2     1  LIG1        0.0071
     12 C           3.5886    1.7884    2.6162 C.2     1  LIG1        0.1471
     13 O           3.9808    1.0322    3.4958 O.2     1  LIG1       -0.2960
     14 C           2.5149    2.2911    0.5456 C.2     1  LIG1       -0.0367
     15 C           1.7523    2.0624   -0.7254 C.3     1  LIG1        0.1222
     16 H           2.3370    2.4248   -1.5807 H       1  LIG1        0.0779
     17 O           0.5150    2.8003   -0.6278 O.3     1  LIG1       -0.4571
     18 C           0.5761    4.1029   -1.0133 C.2     1  LIG1        0.3076
     19 C          -0.8000    4.7247   -1.0346 C.3     1  LIG1        0.0447
     20 C          -1.1270    5.1980   -2.4493 C.3     1  LIG1       -0.0458
     21 C          -1.1217    4.0499   -3.4539 C.3     1  LIG1       -0.0648
     22 O           1.5894    4.6928   -1.3662 O.2     1  LIG1       -0.2508
     23 C           1.4162    0.5782   -0.9943 C.3     1  LIG1       -0.0073
     24 C           1.0570   -0.1866    0.3044 C.3     1  LIG1       -0.0128
     25 H           0.2475    0.4139    0.7490 H       1  LIG1        0.0321
     26 C           0.3892   -1.6322    0.1053 C.3     1  LIG1       -0.0217
     27 C           1.3604   -2.6065   -0.6152 C.3     1  LIG1       -0.0587
     28 C          -0.9255   -1.5279   -0.7965 C.3     1  LIG1       -0.0283
     29 C          -1.6896   -2.8154   -1.1025 C.2     1  LIG1       -0.0806
     30 C          -2.9572   -3.1847   -0.8493 C.2     1  LIG1       -0.0549
     31 C          -3.9645   -2.3964   -0.1570 C.2     1  LIG1       -0.0662
     32 C          -4.4136   -1.2043   -0.5626 C.2     1  LIG1       -0.0985
     33 C          -3.4666   -4.5490   -1.2650 C.3     1  LIG1       -0.0400
     34 H          -1.1991   -0.5126    2.1854 H       1  LIG1        0.0233
     35 H          -1.3487   -1.9614    3.1946 H       1  LIG1        0.0233
     36 H          -2.1179   -1.8999    1.6329 H       1  LIG1        0.0233
     37 H           1.9989   -2.8127    2.2188 H       1  LIG1        0.0293
     38 H           0.8695   -2.4740    3.5067 H       1  LIG1        0.0293
     39 H           0.7381   -0.1558    4.2356 H       1  LIG1        0.2098
     40 H           3.8950   -1.6330    1.5844 H       1  LIG1        0.1037
     41 H           3.8700    2.8557    2.6253 H       1  LIG1        0.1078
     42 H           2.8987    3.3069    0.6678 H       1  LIG1        0.0612
     43 H          -0.8053    5.5632   -0.3292 H       1  LIG1        0.0377
     44 H          -1.5502    4.0057   -0.6879 H       1  LIG1        0.0377
     45 H          -0.3958    5.9510   -2.7670 H       1  LIG1        0.0268
     46 H          -2.1088    5.6821   -2.4568 H       1  LIG1        0.0268
     47 H          -0.1628    3.5218   -3.4562 H       1  LIG1        0.0230
     48 H          -1.2906    4.4265   -4.4626 H       1  LIG1        0.0230
     49 H          -1.9060    3.3246   -3.2158 H       1  LIG1        0.0230
     50 H           2.2692    0.1025   -1.4891 H       1  LIG1        0.0307
     51 H           0.5853    0.5482   -1.7036 H       1  LIG1        0.0307
     52 H           2.2616   -2.8213   -0.0399 H       1  LIG1        0.0235
     53 H           1.6655   -2.2204   -1.5932 H       1  LIG1        0.0235
     54 H           0.8948   -3.5837   -0.7877 H       1  LIG1        0.0235
     55 H          -1.5946   -0.7701   -0.3779 H       1  LIG1        0.0313
     56 H          -0.6359   -1.1465   -1.7841 H       1  LIG1        0.0313
     57 H          -1.0935   -3.5348   -1.6671 H       1  LIG1        0.0575
     58 H          -4.4123   -2.8592    0.7199 H       1  LIG1        0.0614
     59 H          -4.0365   -0.7226   -1.4574 H       1  LIG1        0.0535
     60 H          -5.1916   -0.6925   -0.0032 H       1  LIG1        0.0535
     61 H          -2.7681   -5.0587   -1.9387 H       1  LIG1        0.0277
     62 H          -4.4217   -4.4699   -1.7965 H       1  LIG1        0.0277
     63 H          -3.6121   -5.1907   -0.3895 H       1  LIG1        0.0277
@<TRIPOS>BOND
     1     2     4    1
     2     4     5    1
     3     5     8    1
     4     9    10    2
     5     8    11    1
     6    12    13    2
     7    11    14    2
     8    14    15    1
     9    17    18    1
    10    18    19    1
    11    19    20    1
    12    20    21    1
    13    18    22    2
    14    15    23    1
    15    23    24    1
    16     8    24    1
    17    24    26    1
    18     2    26    1
    19    28    29    1
    20    29    30    2
    21    30    31    1
    22    31    32    2
    23    30    33    1
    24     5     6    1
    25     5     7    1
    26     8     9    1
    27    11    12    1
    28    15    16    1
    29    15    17    1
    30    24    25    1
    31     2     3    1
    32     2     1    1
    33    26    28    1
    34    26    27    1
    35     1    34    1
    36     1    35    1
    37     1    36    1
    38     4    37    1
    39     4    38    1
    40     7    39    1
    41     9    40    1
    42    12    41    1
    43    14    42    1
    44    19    43    1
    45    19    44    1
    46    20    45    1
    47    20    46    1
    48    21    47    1
    49    21    48    1
    50    21    49    1
    51    23    50    1
    52    23    51    1
    53    27    52    1
    54    27    53    1
    55    27    54    1
    56    28    55    1
    57    28    56    1
    58    29    57    1
    59    31    58    1
    60    32    59    1
    61    32    60    1
    62    33    61    1
    63    33    62    1
    64    33    63    1
