REMARK  Name = NuBBE_2159
REMARK  10 active torsions:
REMARK  status: ('A' for Active; 'I' for Inactive)
REMARK    1  A    between atoms: O_1  and  C_2
REMARK    2  A    between atoms: C_7  and  C_8
REMARK    3  A    between atoms: C_18  and  C_19
REMARK    4  A    between atoms: C_24  and  C_26
REMARK    5  A    between atoms: C_26  and  C_28
REMARK    6  A    between atoms: C_26  and  C_29
REMARK    7  A    between atoms: C_30  and  C_31
REMARK    8  A    between atoms: C_31  and  C_32
REMARK    9  A    between atoms: C_32  and  C_33
REMARK   10  A    between atoms: C_32  and  C_34
REMARK                            x       y       z     vdW  Elec       q    Type
REMARK                         _______ _______ _______ _____ _____    ______ ____
ROOT
ATOM      1  C   LIG A   1       0.960   4.955   4.912  0.00  0.00    +0.119 C 
ATOM      2  C   LIG A   1      -0.021   3.808   5.214  0.00  0.00    +0.062 C 
ATOM      3  C   LIG A   1       0.987   5.384   3.439  0.00  0.00    +0.032 C 
ATOM      4  C   LIG A   1       0.995   4.202   2.451  0.00  0.00    +0.013 C 
ATOM      5  C   LIG A   1      -0.119   3.148   2.727  0.00  0.00    -0.008 C 
ATOM      6  C   LIG A   1      -1.502   3.830   2.564  0.00  0.00    +0.016 C 
ATOM      7  C   LIG A   1       0.107   2.714   4.172  0.00  0.00    -0.065 C 
ATOM      8  C   LIG A   1       0.537   1.487   4.512  0.00  0.00    -0.027 C 
ATOM      9  C   LIG A   1       0.884   0.414   3.530  0.00  0.00    +0.031 C 
ATOM     10  C   LIG A   1       1.097   0.930   2.094  0.00  0.00    +0.000 C 
ATOM     11  C   LIG A   1       0.007   1.956   1.690  0.00  0.00    +0.003 C 
ATOM     12  C   LIG A   1      -1.309   1.210   1.389  0.00  0.00    +0.005 C 
ATOM     13  C   LIG A   1      -1.133   0.187   0.266  0.00  0.00    +0.007 C 
ATOM     14  C   LIG A   1      -0.076  -0.893   0.562  0.00  0.00    -0.026 C 
ATOM     15  C   LIG A   1      -0.620  -1.919   1.579  0.00  0.00    +0.012 C 
ATOM     16  C   LIG A   1       1.240  -0.243   1.085  0.00  0.00    -0.001 C 
ATOM     17  C   LIG A   1       1.960   0.206  -0.192  0.00  0.00    +0.004 C 
ATOM     18  C   LIG A   1       1.573  -0.788  -1.276  0.00  0.00    +0.005 C 
ATOM     19  C   LIG A   1       0.401  -1.637  -0.736  0.00  0.00    +0.002 C 
ENDROOT
BRANCH   1  20
ATOM     20  O   LIG A   1       2.282   4.574   5.307  0.00  0.00    -0.392 OA
ATOM     21  H   LIG A   1       2.479   3.725   4.874  0.00  0.00    +0.210 HD
ENDBRANCH   1  20
BRANCH  19  22
ATOM     22  C   LIG A   1      -0.641  -1.936  -1.860  0.00  0.00    +0.012 C 
ATOM     23  C   LIG A   1      -1.820  -2.805  -1.416  0.00  0.00    +0.012 C 
BRANCH  22  24
ATOM     24  C   LIG A   1       0.016  -2.655  -3.024  0.00  0.00    -0.028 C 
ATOM     25  C   LIG A   1      -0.231  -2.380  -4.319  0.00  0.00    -0.031 C 
BRANCH  25  26
ATOM     26  C   LIG A   1       0.360  -3.167  -5.455  0.00  0.00    +0.030 C 
BRANCH  26  27
ATOM     27  C   LIG A   1      -0.711  -3.849  -6.332  0.00  0.00    -0.013 C 
ATOM     28  C   LIG A   1      -0.048  -4.630  -7.471  0.00  0.00    +0.007 C 
ATOM     29  C   LIG A   1      -1.615  -4.787  -5.527  0.00  0.00    +0.007 C 
ENDBRANCH  26  27
ENDBRANCH  25  26
ENDBRANCH  22  24
ENDBRANCH  19  22
TORSDOF 5
