REMARK  Name = NuBBE_86
REMARK  13 active torsions:
REMARK  status: ('A' for Active; 'I' for Inactive)
REMARK    1  A    between atoms: C_1  and  C_2
REMARK    2  A    between atoms: C_4  and  C_6
REMARK    3  A    between atoms: C_8  and  O_9
REMARK    4  A    between atoms: O_9  and  C_10
REMARK    5  A    between atoms: C_18  and  C_20
REMARK    6  A    between atoms: C_22  and  O_23
REMARK    7  A    between atoms: O_23  and  C_24
REMARK    8  A    between atoms: C_25  and  O_26
REMARK    9  A    between atoms: O_26  and  C_27
REMARK   10  A    between atoms: C_28  and  O_29
REMARK   11  A    between atoms: O_29  and  C_30
REMARK   12  A    between atoms: C_32  and  C_34
REMARK   13  A    between atoms: C_34  and  O_35
REMARK                            x       y       z     vdW  Elec       q    Type
REMARK                         _______ _______ _______ _____ _____    ______ ____
ROOT
ATOM      1  C   LIG A   1       1.234   1.438  -4.364  0.00  0.00    +0.011 C 
ATOM      2  C   LIG A   1       0.505   0.840  -3.160  0.00  0.00    +0.027 C 
ATOM      3  C   LIG A   1       0.476   1.827  -1.999  0.00  0.00    +0.152 C 
ATOM      4  O   LIG A   1       1.448   1.393  -1.033  0.00  0.00    -0.363 OA
ATOM      5  C   LIG A   1       1.946   0.082  -1.359  0.00  0.00    +0.155 C 
ATOM      6  C   LIG A   1       1.206  -0.408  -2.613  0.00  0.00    +0.053 C 
ENDROOT
BRANCH   3   7
ATOM      7  C   LIG A   1      -0.852   2.058  -1.275  0.00  0.00    -0.011 A 
ATOM      8  C   LIG A   1      -0.896   2.965  -0.189  0.00  0.00    +0.056 A 
ATOM      9  C   LIG A   1      -2.086   3.272   0.492  0.00  0.00    +0.166 A 
ATOM     10  C   LIG A   1      -3.234   2.647   0.045  0.00  0.00    +0.207 A 
ATOM     11  O   LIG A   1      -4.503   2.793   0.533  0.00  0.00    -0.449 OA
ATOM     12  C   LIG A   1      -5.242   1.909  -0.322  0.00  0.00    +0.467 C 
ATOM     13  O   LIG A   1      -4.418   1.251  -1.321  0.00  0.00    -0.453 OA
ATOM     14  C   LIG A   1      -3.206   1.760  -1.007  0.00  0.00    +0.170 A 
ATOM     15  C   LIG A   1      -2.047   1.438  -1.672  0.00  0.00    +0.056 A 
BRANCH   9  16
ATOM     16  O   LIG A   1      -2.198   4.125   1.536  0.00  0.00    -0.491 OA
ATOM     17  C   LIG A   1      -0.988   4.728   2.006  0.00  0.00    +0.277 C 
ENDBRANCH   9  16
ENDBRANCH   3   7
BRANCH   5  18
ATOM     18  C   LIG A   1       1.899  -0.794  -0.119  0.00  0.00    -0.011 A 
ATOM     19  C   LIG A   1       2.798  -1.855   0.074  0.00  0.00    +0.056 A 
ATOM     20  C   LIG A   1       2.744  -2.665   1.229  0.00  0.00    +0.166 A 
ATOM     21  C   LIG A   1       1.728  -2.450   2.184  0.00  0.00    +0.203 A 
ATOM     22  C   LIG A   1       0.858  -1.362   2.018  0.00  0.00    +0.166 A 
ATOM     23  C   LIG A   1       0.959  -0.547   0.888  0.00  0.00    +0.056 A 
BRANCH  20  24
ATOM     24  O   LIG A   1       3.739  -3.617   1.276  0.00  0.00    -0.491 OA
ATOM     25  C   LIG A   1       3.818  -4.420   2.450  0.00  0.00    +0.277 C 
ENDBRANCH  20  24
BRANCH  21  26
ATOM     26  O   LIG A   1       1.663  -3.275   3.278  0.00  0.00    -0.488 OA
ATOM     27  C   LIG A   1       0.368  -3.647   3.739  0.00  0.00    +0.277 C 
ENDBRANCH  21  26
BRANCH  22  28
ATOM     28  O   LIG A   1      -0.016  -1.078   3.037  0.00  0.00    -0.491 OA
ATOM     29  C   LIG A   1      -1.256  -0.514   2.632  0.00  0.00    +0.277 C 
ENDBRANCH  22  28
ENDBRANCH   5  18
BRANCH   6  30
ATOM     30  C   LIG A   1       0.232  -1.573  -2.404  0.00  0.00    +0.162 C 
BRANCH  30  31
ATOM     31  O   LIG A   1      -0.379  -1.901  -3.651  0.00  0.00    -0.395 OA
ATOM     32  H   LIG A   1      -0.960  -2.666  -3.495  0.00  0.00    +0.209 HD
ENDBRANCH  30  31
ENDBRANCH   6  30
TORSDOF 8
