REMARK  Name = NuBBE_2195
REMARK  9 active torsions:
REMARK  status: ('A' for Active; 'I' for Inactive)
REMARK    1  A    between atoms: C_1  and  C_2
REMARK    2  A    between atoms: C_2  and  C_3
REMARK    3  A    between atoms: C_7  and  C_8
REMARK    4  A    between atoms: C_7  and  C_10
REMARK    5  A    between atoms: C_14  and  C_15
REMARK    6  A    between atoms: C_15  and  C_16
REMARK    7  A    between atoms: C_16  and  O_17
REMARK    8  A    between atoms: C_20  and  C_21
REMARK    9  A    between atoms: C_20  and  C_22
REMARK                            x       y       z     vdW  Elec       q    Type
REMARK                         _______ _______ _______ _____ _____    ______ ____
ROOT
ATOM      1  C   LIG A   1       0.263   1.030   2.235  0.00  0.00    +0.012 C 
ATOM      2  C   LIG A   1      -0.250   0.420   0.897  0.00  0.00    -0.019 C 
ATOM      3  C   LIG A   1      -0.850  -1.070   1.149  0.00  0.00    +0.012 C 
ATOM      4  C   LIG A   1      -2.353  -1.142   1.694  0.00  0.00    -0.031 C 
ATOM      5  C   LIG A   1      -2.491  -1.031   3.227  0.00  0.00    +0.011 C 
ATOM      6  C   LIG A   1      -3.018  -2.486   1.277  0.00  0.00    +0.011 C 
ATOM      7  C   LIG A   1      -3.242  -0.055   1.046  0.00  0.00    +0.007 C 
ATOM      8  C   LIG A   1      -2.646   1.332   1.119  0.00  0.00    +0.001 C 
ATOM      9  C   LIG A   1      -1.357   1.352   0.325  0.00  0.00    +0.007 C 
ENDROOT
BRANCH   2  10
ATOM     10  C   LIG A   1       0.990   0.411  -0.129  0.00  0.00    +0.061 C 
ATOM     11  C   LIG A   1       1.579   1.810  -0.431  0.00  0.00    +0.138 C 
ATOM     12  C   LIG A   1       2.688   1.875  -1.451  0.00  0.00    +0.085 C 
ATOM     13  C   LIG A   1       2.234   1.295  -2.795  0.00  0.00    -0.008 C 
ATOM     14  C   LIG A   1       1.075   2.136  -3.377  0.00  0.00    +0.016 C 
ATOM     15  C   LIG A   1       1.787  -0.162  -2.543  0.00  0.00    +0.012 C 
ATOM     16  C   LIG A   1       0.695  -0.304  -1.470  0.00  0.00    +0.012 C 
ATOM     17  O   LIG A   1       1.264   2.838   0.165  0.00  0.00    -0.297 OA
BRANCH  13  18
ATOM     18  C   LIG A   1       3.348   1.296  -3.841  0.00  0.00    -0.028 C 
ATOM     19  C   LIG A   1       4.600   1.756  -3.699  0.00  0.00    +0.004 C 
ENDBRANCH  13  18
ENDBRANCH   2  10
BRANCH   3  20
ATOM     20  C   LIG A   1       0.167  -1.959   1.921  0.00  0.00    +0.125 C 
BRANCH  20  21
ATOM     21  C   LIG A   1      -0.224  -3.392   2.200  0.00  0.00    +0.305 C 
ATOM     22  O   LIG A   1      -0.578  -3.846   3.269  0.00  0.00    -0.251 OA
BRANCH  21  23
ATOM     23  O   LIG A   1      -0.132  -4.191   1.119  0.00  0.00    -0.481 OA
ATOM     24  H   LIG A   1      -0.414  -5.065   1.469  0.00  0.00    +0.295 HD
ENDBRANCH  21  23
ENDBRANCH  20  21
ENDBRANCH   3  20
TORSDOF 5
