@<TRIPOS>MOLECULE
NuBBE_1168
 38 39 0 0 0
SMALL
GASTEIGER

@<TRIPOS>ATOM
      1 O           3.7363   -6.0039    1.0548 O.3     1  LIG1       -0.5068
      2 C           2.6368   -5.1981    1.0352 C.ar    1  LIG1        0.1169
      3 C           1.9123   -4.9877   -0.1343 C.ar    1  LIG1       -0.0196
      4 C           0.7922   -4.1523   -0.1073 C.ar    1  LIG1       -0.0511
      5 C           0.4007   -3.5358    1.0870 C.ar    1  LIG1       -0.0247
      6 C           1.1410   -3.7556    2.2539 C.ar    1  LIG1       -0.0511
      7 C           2.2604   -4.5890    2.2267 C.ar    1  LIG1       -0.0196
      8 C          -0.7593   -2.6480    1.1137 C.2     1  LIG1       -0.0497
      9 C          -0.6276   -1.3334    0.8866 C.2     1  LIG1        0.0007
     10 C          -1.8152   -0.4474    0.9401 C.2     1  LIG1        0.2369
     11 N          -1.5067    0.8610    0.6785 N.am    1  LIG1       -0.3115
     12 C          -2.4978    1.9229    0.6739 C.3     1  LIG1        0.0159
     13 C          -2.6004    2.6201   -0.6866 C.3     1  LIG1       -0.0120
     14 C          -1.3035    3.2665   -1.1203 C.ar    1  LIG1       -0.0457
     15 C          -1.0086    4.5909   -0.7677 C.ar    1  LIG1       -0.0551
     16 C           0.1983    5.1756   -1.1604 C.ar    1  LIG1       -0.0199
     17 C           1.1139    4.4301   -1.8964 C.ar    1  LIG1        0.1169
     18 C           0.8446    3.1127   -2.2432 C.ar    1  LIG1       -0.0199
     19 C          -0.3640    2.5325   -1.8605 C.ar    1  LIG1       -0.0551
     20 O           2.3011    4.9622   -2.3038 O.3     1  LIG1       -0.5068
     21 O          -2.9410   -0.8602    1.1922 O.2     1  LIG1       -0.2708
     22 H           3.8722   -6.3656    0.1639 H       1  LIG1        0.2921
     23 H           2.2000   -5.4599   -1.0681 H       1  LIG1        0.0654
     24 H           0.2265   -3.9869   -1.0214 H       1  LIG1        0.0625
     25 H           0.8513   -3.2822    3.1890 H       1  LIG1        0.0625
     26 H           2.8353   -4.7627    3.1318 H       1  LIG1        0.0654
     27 H          -1.7215   -3.1022    1.3368 H       1  LIG1        0.0625
     28 H           0.3373   -0.8925    0.6687 H       1  LIG1        0.0669
     29 H          -0.5474    1.1270    0.4976 H       1  LIG1        0.1490
     30 H          -2.2015    2.6345    1.4520 H       1  LIG1        0.0465
     31 H          -3.4783    1.5185    0.9466 H       1  LIG1        0.0465
     32 H          -3.3854    3.3856   -0.6423 H       1  LIG1        0.0328
     33 H          -2.9192    1.9033   -1.4539 H       1  LIG1        0.0328
     34 H          -1.7193    5.1781   -0.1901 H       1  LIG1        0.0621
     35 H           0.4038    6.2053   -0.8853 H       1  LIG1        0.0654
     36 H           1.5698    2.5413   -2.8154 H       1  LIG1        0.0654
     37 H          -0.5696    1.5013   -2.1405 H       1  LIG1        0.0621
     38 H           2.3324    5.8937   -2.0314 H       1  LIG1        0.2921
@<TRIPOS>BOND
     1     1     2    1
     2     2     3   ar
     3     3     4   ar
     4     4     5   ar
     5     5     6   ar
     6     6     7   ar
     7     2     7   ar
     8     5     8    1
     9     8     9    2
    10     9    10    1
    11    10    11   am
    12    11    12    1
    13    12    13    1
    14    13    14    1
    15    14    15   ar
    16    15    16   ar
    17    16    17   ar
    18    17    18   ar
    19    18    19   ar
    20    14    19   ar
    21    17    20    1
    22    10    21    2
    23     1    22    1
    24     3    23    1
    25     4    24    1
    26     6    25    1
    27     7    26    1
    28     8    27    1
    29     9    28    1
    30    11    29    1
    31    12    30    1
    32    12    31    1
    33    13    32    1
    34    13    33    1
    35    15    34    1
    36    16    35    1
    37    18    36    1
    38    19    37    1
    39    20    38    1
