@<TRIPOS>MOLECULE
NuBBE_2006
 41 43 0 0 0
SMALL
GASTEIGER

@<TRIPOS>ATOM
      1 O          -2.4856    1.4619   -2.0839 O.3     1  LIG1       -0.5056
      2 C          -1.1275    1.3905   -1.8952 C.ar    1  LIG1        0.1372
      3 C          -0.4581    0.1634   -1.8447 C.ar    1  LIG1        0.1009
      4 C          -1.1530   -1.1175   -2.0709 C.2     1  LIG1        0.1740
      5 C          -0.3062   -2.3615   -2.0301 C.3     1  LIG1        0.0520
      6 C           0.8182   -2.1593   -1.0179 C.3     1  LIG1        0.1322
      7 H           1.4766   -3.0343   -1.1014 H       1  LIG1        0.0789
      8 C           0.4274   -2.0796    0.4591 C.ar    1  LIG1       -0.0067
      9 C           1.4165   -1.8632    1.4323 C.ar    1  LIG1       -0.0516
     10 C           1.0831   -1.7965    2.7915 C.ar    1  LIG1       -0.0196
     11 C          -0.2397   -1.9437    3.2112 C.ar    1  LIG1        0.1201
     12 O          -0.4399   -1.8635    4.5616 O.3     1  LIG1       -0.4951
     13 C          -1.7814   -2.0095    5.0163 C.3     1  LIG1        0.0788
     14 C          -1.2274   -2.1616    2.2568 C.ar    1  LIG1       -0.0196
     15 C          -0.8957   -2.2378    0.9004 C.ar    1  LIG1       -0.0516
     16 O           1.6242   -1.0316   -1.4177 O.3     1  LIG1       -0.4828
     17 O          -2.3537   -1.1374   -2.3172 O.2     1  LIG1       -0.2917
     18 C           0.9093    0.1267   -1.5923 C.ar    1  LIG1        0.1389
     19 C           1.6308    1.3130   -1.4898 C.ar    1  LIG1        0.0230
     20 C           0.9769    2.5496   -1.5516 C.ar    1  LIG1        0.1300
     21 O           1.6159    3.7564   -1.4218 O.3     1  LIG1       -0.4946
     22 C           3.0255    3.7301   -1.2286 C.3     1  LIG1        0.0788
     23 C          -0.4207    2.5960   -1.7409 C.ar    1  LIG1        0.0335
     24 C          -1.1758    3.9003   -1.7152 C.3     1  LIG1       -0.0327
     25 H          -2.8312    0.5503   -2.2124 H       1  LIG1        0.2922
     26 H           0.0970   -2.5146   -3.0376 H       1  LIG1        0.0385
     27 H          -0.9277   -3.2240   -1.7694 H       1  LIG1        0.0385
     28 H           2.4589   -1.7424    1.1421 H       1  LIG1        0.0623
     29 H           1.8628   -1.6285    3.5309 H       1  LIG1        0.0654
     30 H          -1.7760   -1.9439    6.1083 H       1  LIG1        0.0660
     31 H          -2.1880   -2.9901    4.7458 H       1  LIG1        0.0660
     32 H          -2.4160   -1.2015    4.6364 H       1  LIG1        0.0660
     33 H          -2.2716   -2.2809    2.5262 H       1  LIG1        0.0654
     34 H          -1.7136   -2.4212    0.2084 H       1  LIG1        0.0623
     35 H           2.7015    1.2378   -1.3335 H       1  LIG1        0.0691
     36 H           3.3704    4.7617   -1.1150 H       1  LIG1        0.0660
     37 H           3.5331    3.3019   -2.0999 H       1  LIG1        0.0660
     38 H           3.2887    3.1908   -0.3125 H       1  LIG1        0.0660
     39 H          -0.5255    4.7650   -1.8758 H       1  LIG1        0.0280
     40 H          -1.6702    4.0196   -0.7452 H       1  LIG1        0.0280
     41 H          -1.9320    3.9293   -2.5067 H       1  LIG1        0.0280
@<TRIPOS>BOND
     1     1     2    1
     2     2     3   ar
     3     3     4    1
     4     4     5    1
     5     5     6    1
     6     8     9   ar
     7     9    10   ar
     8    10    11   ar
     9    11    12    1
    10    12    13    1
    11    11    14   ar
    12    14    15   ar
    13     8    15   ar
    14     6    16    1
    15     4    17    2
    16     3    18   ar
    17    16    18    1
    18    18    19   ar
    19    19    20   ar
    20    20    21    1
    21    21    22    1
    22    20    23   ar
    23     2    23   ar
    24    23    24    1
    25     6     8    1
    26     6     7    1
    27     1    25    1
    28     5    26    1
    29     5    27    1
    30     9    28    1
    31    10    29    1
    32    13    30    1
    33    13    31    1
    34    13    32    1
    35    14    33    1
    36    15    34    1
    37    19    35    1
    38    22    36    1
    39    22    37    1
    40    22    38    1
    41    24    39    1
    42    24    40    1
    43    24    41    1
