@<TRIPOS>MOLECULE
NuBBE_2099
 44 47 0 0 0
SMALL
GASTEIGER

@<TRIPOS>ATOM
      1 C          -1.5251   -0.3093   -1.5020 C.3     1  LIG1       -0.0234
      2 C          -2.8349   -0.4289   -0.7608 C.2     1  LIG1       -0.0904
      3 C          -3.3330    0.5201    0.0427 C.2     1  LIG1       -0.1026
      4 C          -0.4440   -1.4065   -1.2138 C.3     1  LIG1        0.0443
      5 C           0.8330   -1.1594   -2.0532 C.3     1  LIG1        0.2390
      6 O           0.5366   -0.6975   -3.3594 O.3     1  LIG1       -0.3582
      7 O           1.5438   -0.1220   -1.3724 O.3     1  LIG1       -0.3337
      8 C           1.3063   -0.2480    0.0461 C.3     1  LIG1        0.0907
      9 H           2.2387   -0.6475    0.4679 H       1  LIG1        0.0650
     10 C           0.2007   -1.3231    0.1978 C.3     1  LIG1       -0.0017
     11 H           0.7420   -2.2692    0.3487 H       1  LIG1        0.0334
     12 C          -0.6964   -1.2290    1.4205 C.3     1  LIG1       -0.0590
     13 C           1.1030    1.1281    0.6574 C.ar    1  LIG1       -0.0148
     14 C           1.3684    1.3311    2.0261 C.ar    1  LIG1       -0.0105
     15 C           1.1932    2.5964    2.5548 C.ar    1  LIG1        0.1666
     16 C           0.7672    3.6519    1.7862 C.ar    1  LIG1        0.1662
     17 C           0.5154    3.5079    0.4427 C.ar    1  LIG1       -0.0158
     18 C           0.7019    2.2410   -0.1218 C.ar    1  LIG1       -0.0524
     19 O           0.6517    4.8046    2.4972 O.3     1  LIG1       -0.4526
     20 C           1.0969    4.3651    3.7961 C.3     1  LIG1        0.2332
     21 O           1.4159    2.9576    3.8480 O.3     1  LIG1       -0.4526
     22 C           1.7654   -2.4013   -2.1898 C.2     1  LIG1        0.2150
     23 O           2.9633   -2.3107   -2.4583 O.2     1  LIG1       -0.2869
     24 C           1.1751   -3.7560   -2.0430 C.2     1  LIG1       -0.0176
     25 C          -0.1153   -3.9090   -1.7560 C.2     1  LIG1       -0.0798
     26 C          -1.0727   -2.7810   -1.5459 C.3     1  LIG1       -0.0227
     27 H          -1.1115    0.6877   -1.3471 H       1  LIG1        0.0315
     28 H          -1.7878   -0.3431   -2.5689 H       1  LIG1        0.0315
     29 H          -3.4263   -1.3272   -0.9240 H       1  LIG1        0.0566
     30 H          -2.7996    1.4477    0.2310 H       1  LIG1        0.0532
     31 H          -4.2858    0.3819    0.5449 H       1  LIG1        0.0532
     32 H           1.4154   -0.5294   -3.7499 H       1  LIG1        0.2132
     33 H          -0.1080   -1.3916    2.3305 H       1  LIG1        0.0234
     34 H          -1.4699   -2.0035    1.3994 H       1  LIG1        0.0234
     35 H          -1.1791   -0.2562    1.5202 H       1  LIG1        0.0234
     36 H           1.7189    0.5252    2.6627 H       1  LIG1        0.0659
     37 H           0.2001    4.3503   -0.1621 H       1  LIG1        0.0655
     38 H           0.5474    2.1306   -1.1939 H       1  LIG1        0.0622
     39 H           0.3078    4.5731    4.5279 H       1  LIG1        0.1166
     40 H           1.9891    4.9404    4.0707 H       1  LIG1        0.1166
     41 H           1.8496   -4.5937   -2.1962 H       1  LIG1        0.0651
     42 H          -0.5212   -4.9158   -1.6942 H       1  LIG1        0.0573
     43 H          -1.7614   -3.0728   -0.7441 H       1  LIG1        0.0315
     44 H          -1.6747   -2.7090   -2.4626 H       1  LIG1        0.0315
@<TRIPOS>BOND
     1     1     2    1
     2     2     3    2
     3     4     5    1
     4     5     7    1
     5     7     8    1
     6     8    10    1
     7     4    10    1
     8    13    14   ar
     9    14    15   ar
    10    15    16   ar
    11    16    17   ar
    12    17    18   ar
    13    13    18   ar
    14    16    19    1
    15    19    20    1
    16    20    21    1
    17    15    21    1
    18     5    22    1
    19    22    24    1
    20    24    25    2
    21    25    26    1
    22     4    26    1
    23     1     4    1
    24     5     6    1
    25    22    23    2
    26    10    12    1
    27    10    11    1
    28     8    13    1
    29     8     9    1
    30     1    27    1
    31     1    28    1
    32     2    29    1
    33     3    30    1
    34     3    31    1
    35     6    32    1
    36    12    33    1
    37    12    34    1
    38    12    35    1
    39    14    36    1
    40    17    37    1
    41    18    38    1
    42    20    39    1
    43    20    40    1
    44    24    41    1
    45    25    42    1
    46    26    43    1
    47    26    44    1
