@<TRIPOS>MOLECULE
NuBBE_2168
 46 50 0 0 0
SMALL
GASTEIGER

@<TRIPOS>ATOM
      1 O           1.2074    0.3371   -1.7425 O.3     1  LIG1       -0.3789
      2 C           0.5996   -0.2183   -0.5569 C.3     1  LIG1        0.1227
      3 C           1.1254    0.6606    0.5750 C.ar    1  LIG1        0.0396
      4 C           0.9190    2.0417    0.5667 C.ar    1  LIG1        0.1728
      5 O           0.2766    2.7412   -0.4160 O.3     1  LIG1       -0.4522
      6 C           0.3155    4.0799    0.1178 C.3     1  LIG1        0.2332
      7 O           1.0352    4.1757    1.3608 O.3     1  LIG1       -0.4526
      8 C           1.3607    2.8729    1.5716 C.ar    1  LIG1        0.1666
      9 C           2.0598    2.3927    2.6517 C.ar    1  LIG1       -0.0158
     10 C           2.3102    1.0214    2.6960 C.ar    1  LIG1       -0.0521
     11 C           1.8456    0.1493    1.6757 C.ar    1  LIG1       -0.0089
     12 C           2.2003   -1.3150    1.7839 C.3     1  LIG1        0.0835
     13 O           3.5411   -1.5091    1.3391 O.3     1  LIG1       -0.3869
     14 C           1.2557   -2.2314    0.9939 C.3     1  LIG1       -0.0078
     15 H           1.7243   -3.2237    0.9286 H       1  LIG1        0.0330
     16 C          -0.0557   -2.4426    1.7605 C.3     1  LIG1       -0.0594
     17 C           1.0260   -1.7301   -0.4578 C.3     1  LIG1       -0.0012
     18 H           0.2197   -2.3524   -0.8734 H       1  LIG1        0.0336
     19 C           2.2384   -2.0707   -1.3489 C.3     1  LIG1       -0.0588
     20 C          -0.9278   -0.1332   -0.7866 C.ar    1  LIG1       -0.0076
     21 C          -1.4443   -0.3999   -2.0751 C.ar    1  LIG1       -0.0099
     22 C          -2.8027   -0.2959   -2.2868 C.ar    1  LIG1        0.1666
     23 C          -3.6667    0.0412   -1.2750 C.ar    1  LIG1        0.1662
     24 O          -4.9592    0.0970   -1.6934 O.3     1  LIG1       -0.4526
     25 C          -4.8048   -0.2239   -3.0918 C.3     1  LIG1        0.2332
     26 O          -3.4398   -0.4951   -3.4709 O.3     1  LIG1       -0.4526
     27 C          -3.2199    0.2891    0.0017 C.ar    1  LIG1       -0.0158
     28 C          -1.8427    0.2014    0.2440 C.ar    1  LIG1       -0.0518
     29 H           0.8192    1.2258   -1.8495 H       1  LIG1        0.2111
     30 H          -0.7134    4.4229    0.2786 H       1  LIG1        0.1166
     31 H           0.7939    4.7361   -0.6177 H       1  LIG1        0.1166
     32 H           2.4121    3.0571    3.4325 H       1  LIG1        0.0655
     33 H           2.8816    0.6185    3.5322 H       1  LIG1        0.0622
     34 H           2.1798   -1.6156    2.8387 H       1  LIG1        0.0646
     35 H           3.8442   -0.6889    0.9118 H       1  LIG1        0.2102
     36 H          -0.5293   -1.5027    2.0483 H       1  LIG1        0.0233
     37 H           0.1373   -2.9972    2.6861 H       1  LIG1        0.0233
     38 H          -0.7688   -3.0279    1.1715 H       1  LIG1        0.0233
     39 H           3.0932   -1.4169   -1.1569 H       1  LIG1        0.0234
     40 H           1.9740   -1.9733   -2.4081 H       1  LIG1        0.0234
     41 H           2.5584   -3.1074   -1.1984 H       1  LIG1        0.0234
     42 H          -0.7893   -0.6711   -2.8989 H       1  LIG1        0.0659
     43 H          -5.1724    0.6201   -3.6874 H       1  LIG1        0.1166
     44 H          -5.4139   -1.1060   -3.3193 H       1  LIG1        0.1166
     45 H          -3.9126    0.5527    0.7934 H       1  LIG1        0.0655
     46 H          -1.4912    0.4142    1.2511 H       1  LIG1        0.0622
@<TRIPOS>BOND
     1     2     3    1
     2     3     4   ar
     3     4     5    1
     4     5     6    1
     5     6     7    1
     6     4     8   ar
     7     7     8    1
     8     8     9   ar
     9     9    10   ar
    10     3    11   ar
    11    10    11   ar
    12    11    12    1
    13    12    13    1
    14    12    14    1
    15    14    17    1
    16     2    17    1
    17    20    21   ar
    18    21    22   ar
    19    22    23   ar
    20    23    24    1
    21    24    25    1
    22    25    26    1
    23    22    26    1
    24    23    27   ar
    25    27    28   ar
    26    20    28   ar
    27     2    20    1
    28     2     1    1
    29    14    16    1
    30    14    15    1
    31    17    19    1
    32    17    18    1
    33     1    29    1
    34     6    30    1
    35     6    31    1
    36     9    32    1
    37    10    33    1
    38    12    34    1
    39    13    35    1
    40    16    36    1
    41    16    37    1
    42    16    38    1
    43    19    39    1
    44    19    40    1
    45    19    41    1
    46    21    42    1
    47    25    43    1
    48    25    44    1
    49    27    45    1
    50    28    46    1
