@<TRIPOS>MOLECULE
NuBBE_380
 76 80 0 0 0
SMALL
GASTEIGER

@<TRIPOS>ATOM
      1 O          -3.0009   -0.6597    5.9310 O.3     1  LIG1       -0.5033
      2 C          -1.7745   -0.3495    5.4135 C.ar    1  LIG1        0.1590
      3 C          -1.5600   -0.5979    4.0611 C.ar    1  LIG1       -0.0118
      4 C          -0.3691   -0.2072    3.4213 C.ar    1  LIG1       -0.0224
      5 C           0.6085    0.4633    4.1855 C.ar    1  LIG1        0.0323
      6 C           1.7487    1.1146    3.4703 C.2     1  LIG1        0.1870
      7 C           1.7915    1.0318    1.9987 C.2     1  LIG1       -0.0100
      8 C           0.9752    0.2334    1.2952 C.2     1  LIG1       -0.0298
      9 C          -0.1136   -0.6083    1.9534 C.3     1  LIG1        0.0191
     10 C           0.3773   -2.0776    1.9889 C.3     1  LIG1       -0.0515
     11 C          -1.4339   -0.5121    1.1362 C.3     1  LIG1       -0.0388
     12 C          -1.2485   -0.5890   -0.3780 C.3     1  LIG1       -0.0422
     13 C          -0.2185    0.4394   -0.9271 C.3     1  LIG1       -0.0030
     14 C          -0.7327    1.8723   -0.6299 C.3     1  LIG1       -0.0552
     15 C           1.0956    0.1673   -0.1731 C.2     1  LIG1       -0.0380
     16 C           2.2480   -0.1738   -0.8000 C.2     1  LIG1       -0.0677
     17 C           3.5248   -0.5977   -0.1086 C.3     1  LIG1       -0.0432
     18 C           2.3741   -0.2052   -2.3104 C.3     1  LIG1       -0.0189
     19 C           1.2888    0.5940   -3.0674 C.3     1  LIG1        0.0361
     20 C           1.6212    2.0934   -2.9799 C.3     1  LIG1       -0.0522
     21 C          -0.0818    0.1781   -2.4794 C.3     1  LIG1       -0.0181
     22 H          -0.1261   -0.9156   -2.5903 H       1  LIG1        0.0319
     23 C          -1.2579    0.7249   -3.3185 C.3     1  LIG1       -0.0301
     24 C          -1.2155    0.2888   -4.7988 C.3     1  LIG1        0.0978
     25 C          -2.3325    1.0551   -5.5487 C.3     1  LIG1       -0.0466
     26 C          -1.5511   -1.2096   -4.9175 C.2     1  LIG1        0.3157
     27 O          -0.4277   -1.9702   -4.8102 O.3     1  LIG1       -0.4675
     28 C          -0.6076   -3.3796   -4.9631 C.3     1  LIG1        0.0817
     29 O          -2.6777   -1.6600   -5.0392 O.2     1  LIG1       -0.2501
     30 C           0.1533    0.5705   -5.4556 C.3     1  LIG1        0.1289
     31 H           0.2460   -0.0477   -6.3583 H       1  LIG1        0.0684
     32 O           0.2736    1.9172   -5.9111 O.3     1  LIG1       -0.3832
     33 C           1.3468    0.1998   -4.5539 C.2     1  LIG1        0.1690
     34 O           2.3574   -0.3140   -5.0425 O.2     1  LIG1       -0.2940
     35 O           2.6157    1.7764    4.0280 O.2     1  LIG1       -0.2873
     36 C           0.4630    0.5721    5.5953 C.ar    1  LIG1        0.0059
     37 C           1.5922    1.0685    6.4691 C.3     1  LIG1       -0.0354
     38 C          -0.7579    0.1915    6.2028 C.ar    1  LIG1        0.1648
     39 O          -0.8611    0.4534    7.5473 O.3     1  LIG1       -0.4912
     40 C          -1.7299   -0.3809    8.3051 C.3     1  LIG1        0.0790
     41 H          -3.6382   -0.7678    5.2063 H       1  LIG1        0.2923
     42 H          -2.3380   -1.1113    3.5053 H       1  LIG1        0.0658
     43 H           2.5595    1.6392    1.5303 H       1  LIG1        0.0659
     44 H           1.2962   -2.1768    2.5817 H       1  LIG1        0.0241
     45 H           0.5916   -2.4688    0.9889 H       1  LIG1        0.0241
     46 H          -0.3693   -2.7393    2.4445 H       1  LIG1        0.0241
     47 H          -1.9627    0.4192    1.3793 H       1  LIG1        0.0277
     48 H          -2.1182   -1.3247    1.4119 H       1  LIG1        0.0277
     49 H          -2.2289   -0.4464   -0.8469 H       1  LIG1        0.0274
     50 H          -0.9368   -1.6104   -0.6373 H       1  LIG1        0.0274
     51 H          -0.7501    2.1049    0.4401 H       1  LIG1        0.0238
     52 H          -1.7601    2.0069   -0.9863 H       1  LIG1        0.0238
     53 H          -0.1165    2.6428   -1.0951 H       1  LIG1        0.0238
     54 H           3.3788   -0.8954    0.9327 H       1  LIG1        0.0275
     55 H           4.2563    0.2164   -0.1407 H       1  LIG1        0.0275
     56 H           3.9579   -1.4675   -0.6148 H       1  LIG1        0.0275
     57 H           2.3593   -1.2597   -2.6204 H       1  LIG1        0.0320
     58 H           3.3625    0.1824   -2.5946 H       1  LIG1        0.0320
     59 H           1.9254    2.3945   -1.9729 H       1  LIG1        0.0239
     60 H           0.7786    2.7257   -3.2681 H       1  LIG1        0.0239
     61 H           2.4517    2.3480   -3.6494 H       1  LIG1        0.0239
     62 H          -1.2665    1.8203   -3.2715 H       1  LIG1        0.0280
     63 H          -2.2076    0.3945   -2.8808 H       1  LIG1        0.0280
     64 H          -2.2008    2.1409   -5.4799 H       1  LIG1        0.0241
     65 H          -3.3224    0.8309   -5.1326 H       1  LIG1        0.0241
     66 H          -2.3542    0.7816   -6.6095 H       1  LIG1        0.0241
     67 H           0.2701   -3.8752   -4.5382 H       1  LIG1        0.0661
     68 H          -0.6632   -3.6206   -6.0281 H       1  LIG1        0.0661
     69 H          -1.4949   -3.7391   -4.4349 H       1  LIG1        0.0661
     70 H           0.0836    2.5321   -5.1860 H       1  LIG1        0.2104
     71 H           2.5563    0.6919    6.1111 H       1  LIG1        0.0279
     72 H           1.5163    0.6792    7.4901 H       1  LIG1        0.0279
     73 H           1.6035    2.1607    6.5089 H       1  LIG1        0.0279
     74 H          -1.4855   -0.2405    9.3624 H       1  LIG1        0.0660
     75 H          -1.5831   -1.4408    8.0699 H       1  LIG1        0.0660
     76 H          -2.7740   -0.0784    8.1836 H       1  LIG1        0.0660
@<TRIPOS>BOND
     1     2     3   ar
     2     3     4   ar
     3     4     5   ar
     4     5     6    1
     5     6     7    1
     6     7     8    2
     7     8     9    1
     8     4     9    1
     9     9    11    1
    10    11    12    1
    11    12    13    1
    12    13    15    1
    13     8    15    1
    14    15    16    2
    15    16    18    1
    16    18    19    1
    17    19    21    1
    18    13    21    1
    19    21    23    1
    20    23    24    1
    21    26    27    1
    22    27    28    1
    23    26    29    2
    24    24    30    1
    25    30    33    1
    26    19    33    1
    27     5    36   ar
    28    36    38   ar
    29     2    38   ar
    30    39    40    1
    31     1     2    1
    32     6    35    2
    33     9    10    1
    34    13    14    1
    35    16    17    1
    36    19    20    1
    37    21    22    1
    38    30    31    1
    39    30    32    1
    40    33    34    2
    41    36    37    1
    42    38    39    1
    43    24    26    1
    44    24    25    1
    45     1    41    1
    46     3    42    1
    47     7    43    1
    48    10    44    1
    49    10    45    1
    50    10    46    1
    51    11    47    1
    52    11    48    1
    53    12    49    1
    54    12    50    1
    55    14    51    1
    56    14    52    1
    57    14    53    1
    58    17    54    1
    59    17    55    1
    60    17    56    1
    61    18    57    1
    62    18    58    1
    63    20    59    1
    64    20    60    1
    65    20    61    1
    66    23    62    1
    67    23    63    1
    68    25    64    1
    69    25    65    1
    70    25    66    1
    71    28    67    1
    72    28    68    1
    73    28    69    1
    74    32    70    1
    75    37    71    1
    76    37    72    1
    77    37    73    1
    78    40    74    1
    79    40    75    1
    80    40    76    1
