REMARK  Name = NuBBE_1225
REMARK  8 active torsions:
REMARK  status: ('A' for Active; 'I' for Inactive)
REMARK    1  A    between atoms: C_3  and  O_4
REMARK    2  A    between atoms: O_4  and  C_5
REMARK    3  A    between atoms: C_6  and  C_17
REMARK    4  A    between atoms: C_10  and  O_11
REMARK    5  A    between atoms: C_13  and  O_14
REMARK    6  A    between atoms: O_14  and  C_15
REMARK    7  A    between atoms: C_21  and  O_24
REMARK    8  A    between atoms: O_24  and  C_25
REMARK                            x       y       z     vdW  Elec       q    Type
REMARK                         _______ _______ _______ _____ _____    ______ ____
ROOT
ATOM      1  O   LIG A   1      -3.732   0.996   0.454  0.00  0.00    -0.283 OA
ATOM      2  C   LIG A   1      -2.517   0.867   0.364  0.00  0.00    +0.238 A 
ATOM      3  C   LIG A   1      -1.827  -0.448   0.171  0.00  0.00    +0.211 A 
ATOM      4  C   LIG A   1      -0.481  -0.447   0.242  0.00  0.00    +0.181 A 
ATOM      5  O   LIG A   1       0.310   0.668   0.450  0.00  0.00    -0.451 OA
ATOM      6  C   LIG A   1      -0.291   1.898   0.476  0.00  0.00    +0.146 A 
ATOM      7  C   LIG A   1      -1.668   2.065   0.433  0.00  0.00    +0.109 A 
ATOM      8  C   LIG A   1      -2.208   3.355   0.447  0.00  0.00    +0.135 A 
ATOM      9  C   LIG A   1      -1.367   4.465   0.496  0.00  0.00    +0.092 A 
ATOM     10  C   LIG A   1       0.020   4.298   0.550  0.00  0.00    +0.127 A 
ATOM     11  C   LIG A   1       0.555   3.008   0.544  0.00  0.00    +0.092 A 
ENDROOT
BRANCH   4  12
ATOM     12  C   LIG A   1       0.315  -1.677   0.095  0.00  0.00    +0.021 A 
ATOM     13  C   LIG A   1       0.669  -2.432   1.218  0.00  0.00    +0.015 A 
ATOM     14  C   LIG A   1       1.452  -3.582   1.076  0.00  0.00    +0.046 A 
ATOM     15  C   LIG A   1       1.906  -3.981  -0.183  0.00  0.00    +0.120 A 
ATOM     16  C   LIG A   1       1.535  -3.247  -1.309  0.00  0.00    +0.046 A 
ATOM     17  C   LIG A   1       0.746  -2.097  -1.170  0.00  0.00    +0.015 A 
BRANCH  15  18
ATOM     18  O   LIG A   1       2.664  -5.119  -0.201  0.00  0.00    -0.495 OA
ATOM     19  C   LIG A   1       3.636  -5.191  -1.239  0.00  0.00    +0.277 C 
ENDBRANCH  15  18
ENDBRANCH   4  12
BRANCH   3  20
ATOM     20  O   LIG A   1      -2.522  -1.629  -0.041  0.00  0.00    -0.488 OA
ATOM     21  C   LIG A   1      -3.760  -1.509  -0.735  0.00  0.00    +0.277 C 
ENDBRANCH   3  20
BRANCH   8  22
ATOM     22  O   LIG A   1      -3.554   3.602   0.405  0.00  0.00    -0.506 OA
ATOM     23  H   LIG A   1      -4.025   2.738   0.439  0.00  0.00    +0.292 HD
ENDBRANCH   8  22
BRANCH  10  24
ATOM     24  O   LIG A   1       0.743   5.458   0.601  0.00  0.00    -0.495 OA
ATOM     25  C   LIG A   1       2.158   5.323   0.684  0.00  0.00    +0.277 C 
ENDBRANCH  10  24
TORSDOF 5
