@<TRIPOS>MOLECULE
NuBBE_73
 79 83 0 0 0
SMALL
GASTEIGER

@<TRIPOS>ATOM
      1 C          -1.8367    0.9598   -0.0661 C.3     1  LIG1       -0.0588
      2 C          -0.4488    1.0884    0.6362 C.3     1  LIG1       -0.0233
      3 C           0.6230    1.7344   -0.3170 C.3     1  LIG1       -0.0313
      4 H           1.5641    1.7369    0.2471 H       1  LIG1        0.0309
      5 C           0.4524    3.2381   -0.6710 C.3     1  LIG1       -0.0258
      6 H           1.4466    3.5657   -0.9981 H       1  LIG1        0.0315
      7 C           0.0932    4.1207    0.5496 C.3     1  LIG1       -0.0284
      8 C          -0.9877    3.4879    1.4495 C.3     1  LIG1       -0.0468
      9 C          -0.6676    2.0417    1.8493 C.3     1  LIG1       -0.0464
     10 C           1.3398    4.4479    1.3939 C.3     1  LIG1       -0.0593
     11 C          -0.4211    5.4037   -0.1205 C.3     1  LIG1       -0.0468
     12 C          -1.2202    4.9291   -1.3276 C.3     1  LIG1       -0.0457
     13 C          -0.5588    3.6163   -1.7946 C.3     1  LIG1       -0.0168
     14 H          -1.3358    2.8515   -1.8396 H       1  LIG1        0.0348
     15 C          -0.0510    3.7432   -3.2300 C.2     1  LIG1       -0.0763
     16 C           1.2158    4.0002   -3.5973 C.2     1  LIG1       -0.0994
     17 C          -1.1124    3.5598   -4.2888 C.3     1  LIG1       -0.0438
     18 C           0.8943    0.8627   -1.5495 C.3     1  LIG1       -0.0491
     19 C           1.3248   -0.5586   -1.1785 C.3     1  LIG1       -0.0489
     20 C           0.3482   -1.2611   -0.2055 C.3     1  LIG1       -0.0294
     21 H          -0.6109   -1.2761   -0.7394 H       1  LIG1        0.0312
     22 C           0.0972   -0.3875    1.0929 C.3     1  LIG1       -0.0231
     23 C           1.3992   -0.2408    1.9388 C.3     1  LIG1       -0.0588
     24 C          -0.9310   -1.1202    2.0006 C.3     1  LIG1       -0.0466
     25 C          -0.6263   -2.6006    2.2538 C.3     1  LIG1       -0.0483
     26 C          -0.5126   -3.3838    0.9304 C.3     1  LIG1       -0.0235
     27 H          -1.4383   -3.1474    0.3779 H       1  LIG1        0.0315
     28 C           0.6459   -2.8133    0.0280 C.3     1  LIG1       -0.0246
     29 C           2.0615   -3.0538    0.6030 C.3     1  LIG1       -0.0590
     30 C           0.5548   -3.5525   -1.3433 C.3     1  LIG1       -0.0404
     31 C           0.5708   -5.0726   -1.2477 C.3     1  LIG1        0.0069
     32 C          -0.4708   -5.5951   -0.2894 C.2     1  LIG1        0.1392
     33 O          -1.1315   -6.5907   -0.5945 O.2     1  LIG1       -0.2968
     34 C          -0.5629   -4.9420    1.0997 C.3     1  LIG1        0.0267
     35 C           0.5385   -5.5377    1.9876 C.3     1  LIG1       -0.0528
     36 C          -1.9223   -5.3568    1.7197 C.3     1  LIG1       -0.0528
     37 H          -2.2601    1.9243   -0.3448 H       1  LIG1        0.0235
     38 H          -2.5905    0.5240    0.5946 H       1  LIG1        0.0235
     39 H          -1.8104    0.3622   -0.9788 H       1  LIG1        0.0235
     40 H          -1.9714    3.5298    0.9717 H       1  LIG1        0.0271
     41 H          -1.0980    4.0853    2.3645 H       1  LIG1        0.0271
     42 H          -1.4844    1.6677    2.4785 H       1  LIG1        0.0271
     43 H           0.2146    2.0744    2.4913 H       1  LIG1        0.0271
     44 H           1.7952    3.5493    1.8208 H       1  LIG1        0.0235
     45 H           1.0870    5.1221    2.2199 H       1  LIG1        0.0235
     46 H           2.1101    4.9440    0.7923 H       1  LIG1        0.0235
     47 H          -1.0272    6.0211    0.5509 H       1  LIG1        0.0271
     48 H           0.4153    6.0221   -0.4709 H       1  LIG1        0.0271
     49 H          -1.2552    5.7069   -2.0984 H       1  LIG1        0.0271
     50 H          -2.2573    4.7294   -1.0316 H       1  LIG1        0.0271
     51 H           1.4935    4.0740   -4.6454 H       1  LIG1        0.0534
     52 H           2.0186    4.1618   -2.8885 H       1  LIG1        0.0534
     53 H          -0.7129    3.6765   -5.3019 H       1  LIG1        0.0274
     54 H          -1.9111    4.2976   -4.1620 H       1  LIG1        0.0274
     55 H          -1.5486    2.5579   -4.2187 H       1  LIG1        0.0274
     56 H           1.6945    1.3122   -2.1501 H       1  LIG1        0.0268
     57 H           0.0132    0.8152   -2.1982 H       1  LIG1        0.0268
     58 H           2.3336   -0.5128   -0.7577 H       1  LIG1        0.0268
     59 H           1.4096   -1.1217   -2.1129 H       1  LIG1        0.0268
     60 H           2.2406    0.1664    1.3754 H       1  LIG1        0.0235
     61 H           1.7411   -1.1856    2.3564 H       1  LIG1        0.0235
     62 H           1.2488    0.3935    2.8157 H       1  LIG1        0.0235
     63 H          -1.9292   -1.0932    1.5565 H       1  LIG1        0.0271
     64 H          -1.0142   -0.6096    2.9678 H       1  LIG1        0.0271
     65 H          -1.4505   -2.9884    2.8604 H       1  LIG1        0.0269
     66 H           0.2698   -2.7145    2.8689 H       1  LIG1        0.0269
     67 H           2.0779   -3.0876    1.6932 H       1  LIG1        0.0235
     68 H           2.7758   -2.2911    0.2854 H       1  LIG1        0.0235
     69 H           2.4979   -3.9986    0.2709 H       1  LIG1        0.0235
     70 H           1.3824   -3.2540   -1.9965 H       1  LIG1        0.0275
     71 H          -0.3706   -3.2537   -1.8542 H       1  LIG1        0.0275
     72 H           1.5465   -5.4597   -0.9427 H       1  LIG1        0.0342
     73 H           0.3624   -5.4882   -2.2409 H       1  LIG1        0.0342
     74 H           1.5302   -5.4738    1.5373 H       1  LIG1        0.0239
     75 H           0.3619   -6.6074    2.1566 H       1  LIG1        0.0239
     76 H           0.5735   -5.0564    2.9699 H       1  LIG1        0.0239
     77 H          -2.7614   -4.9431    1.1490 H       1  LIG1        0.0239
     78 H          -2.0184   -5.0291    2.7593 H       1  LIG1        0.0239
     79 H          -2.0459   -6.4466    1.7274 H       1  LIG1        0.0239
@<TRIPOS>BOND
     1     2     3    1
     2     3     5    1
     3     5     7    1
     4     7     8    1
     5     8     9    1
     6     2     9    1
     7     7    11    1
     8    11    12    1
     9    12    13    1
    10     5    13    1
    11    15    16    2
    12    15    17    1
    13     3    18    1
    14    18    19    1
    15    19    20    1
    16    20    22    1
    17     2    22    1
    18    22    24    1
    19    24    25    1
    20    25    26    1
    21    26    28    1
    22    20    28    1
    23    28    30    1
    24    30    31    1
    25    31    32    1
    26    32    34    1
    27    26    34    1
    28     1     2    1
    29     3     4    1
    30     5     6    1
    31     7    10    1
    32    20    21    1
    33    22    23    1
    34    26    27    1
    35    28    29    1
    36    32    33    2
    37    34    35    1
    38    34    36    1
    39    13    15    1
    40    13    14    1
    41     1    37    1
    42     1    38    1
    43     1    39    1
    44     8    40    1
    45     8    41    1
    46     9    42    1
    47     9    43    1
    48    10    44    1
    49    10    45    1
    50    10    46    1
    51    11    47    1
    52    11    48    1
    53    12    49    1
    54    12    50    1
    55    16    51    1
    56    16    52    1
    57    17    53    1
    58    17    54    1
    59    17    55    1
    60    18    56    1
    61    18    57    1
    62    19    58    1
    63    19    59    1
    64    23    60    1
    65    23    61    1
    66    23    62    1
    67    24    63    1
    68    24    64    1
    69    25    65    1
    70    25    66    1
    71    29    67    1
    72    29    68    1
    73    29    69    1
    74    30    70    1
    75    30    71    1
    76    31    72    1
    77    31    73    1
    78    35    74    1
    79    35    75    1
    80    35    76    1
    81    36    77    1
    82    36    78    1
    83    36    79    1
