@<TRIPOS>MOLECULE
NuBBE_1043
 81 84 0 0 0
SMALL
GASTEIGER

@<TRIPOS>ATOM
      1 C          -2.4186   -0.2400   -0.0931 C.3     1  LIG1       -0.0553
      2 C          -0.9521    0.1980   -0.3236 C.3     1  LIG1       -0.0051
      3 C          -0.2950   -0.9106   -1.1820 C.2     1  LIG1       -0.0634
      4 C          -0.2080   -0.8772   -2.5234 C.2     1  LIG1       -0.0836
      5 C           0.2219   -2.0360   -3.3588 C.3     1  LIG1       -0.0303
      6 C          -0.0148   -3.4090   -2.6945 C.3     1  LIG1       -0.0213
      7 H           0.6050   -4.1010   -3.2877 H       1  LIG1        0.0318
      8 C           0.5795   -3.4139   -1.2377 C.3     1  LIG1       -0.0213
      9 C           0.1477   -2.1389   -0.4035 C.3     1  LIG1       -0.0137
     10 H          -0.7303   -2.4363    0.1806 H       1  LIG1        0.0351
     11 C           1.1986   -1.6696    0.6092 C.3     1  LIG1       -0.0455
     12 C           0.5859   -0.6993    1.6131 C.3     1  LIG1       -0.0460
     13 C          -0.1381    0.5334    1.0026 C.3     1  LIG1       -0.0199
     14 C          -1.1190    1.0466    2.0973 C.3     1  LIG1       -0.0585
     15 C           0.9219    1.6426    0.5410 C.3     1  LIG1       -0.0322
     16 H           1.8940    1.1593    0.3692 H       1  LIG1        0.0309
     17 C           0.4210    2.1177   -0.8449 C.3     1  LIG1       -0.0486
     18 C          -0.9902    1.5872   -0.9905 C.3     1  LIG1       -0.0431
     19 C           1.1804    2.8320    1.5311 C.3     1  LIG1       -0.0402
     20 H           0.2093    3.2983    1.7306 H       1  LIG1        0.0301
     21 C           2.1150    3.9373    0.9583 C.3     1  LIG1       -0.0467
     22 C           2.2714    5.1761    1.8699 C.3     1  LIG1       -0.0338
     23 C           0.9790    5.9054    2.1557 C.2     1  LIG1       -0.0743
     24 C           0.5867    6.6065    3.2438 C.2     1  LIG1        0.0294
     25 C           1.3728    6.9168    4.4792 C.2     1  LIG1        0.3322
     26 O           0.8505    7.2094    5.5361 O.2     1  LIG1       -0.2455
     27 O           2.7075    6.9419    4.3074 O.3     1  LIG1       -0.4774
     28 C          -0.8103    7.1787    3.3293 C.3     1  LIG1       -0.0332
     29 C           1.7889    2.3629    2.8642 C.3     1  LIG1       -0.0621
     30 C           2.1269   -3.5115   -1.3846 C.3     1  LIG1       -0.0587
     31 C           0.1112   -4.6823   -0.4555 C.3     1  LIG1       -0.0416
     32 C          -0.2833   -5.8345   -1.3661 C.3     1  LIG1       -0.0101
     33 C          -1.4933   -5.4115   -2.1835 C.2     1  LIG1        0.0633
     34 N          -2.5478   -6.1540   -2.3683 N.2     1  LIG1       -0.0960
     35 O          -2.4432   -7.3973   -1.7436 O.2     1  LIG1       -0.4092
     36 C          -1.4657   -4.0043   -2.8300 C.3     1  LIG1        0.0101
     37 C          -1.8274   -4.1707   -4.3254 C.3     1  LIG1       -0.0543
     38 C          -2.5755   -3.1715   -2.1753 C.3     1  LIG1       -0.0543
     39 H          -2.4887   -1.1328    0.5365 H       1  LIG1        0.0238
     40 H          -2.9183   -0.4566   -1.0437 H       1  LIG1        0.0238
     41 H          -3.0190    0.5437    0.3817 H       1  LIG1        0.0238
     42 H          -0.5288   -0.0100   -3.0907 H       1  LIG1        0.0572
     43 H           1.2864   -1.9076   -3.5908 H       1  LIG1        0.0311
     44 H          -0.2860   -1.9810   -4.3253 H       1  LIG1        0.0311
     45 H           2.0481   -1.1930    0.1035 H       1  LIG1        0.0271
     46 H           1.5949   -2.5219    1.1734 H       1  LIG1        0.0271
     47 H           1.3822   -0.3822    2.2940 H       1  LIG1        0.0271
     48 H          -0.1187   -1.2731    2.2293 H       1  LIG1        0.0271
     49 H          -1.8344    0.2631    2.3756 H       1  LIG1        0.0235
     50 H          -1.6913    1.9180    1.7686 H       1  LIG1        0.0235
     51 H          -0.6313    1.3120    3.0343 H       1  LIG1        0.0235
     52 H           1.0648    1.6992   -1.6288 H       1  LIG1        0.0268
     53 H           0.4111    3.1986   -0.9883 H       1  LIG1        0.0268
     54 H          -1.3297    1.5886   -2.0295 H       1  LIG1        0.0274
     55 H          -1.6741    2.2604   -0.4576 H       1  LIG1        0.0274
     56 H           3.1122    3.5098    0.7843 H       1  LIG1        0.0271
     57 H           1.7735    4.2926   -0.0180 H       1  LIG1        0.0271
     58 H           2.9450    5.8764    1.3608 H       1  LIG1        0.0308
     59 H           2.7692    4.8705    2.7945 H       1  LIG1        0.0308
     60 H           0.2483    5.8130    1.3493 H       1  LIG1        0.0577
     61 H           2.9812    6.8745    3.3780 H       1  LIG1        0.2954
     62 H          -1.3571    7.0948    2.3845 H       1  LIG1        0.0280
     63 H          -0.7757    8.2428    3.5895 H       1  LIG1        0.0280
     64 H          -1.3906    6.6551    4.0975 H       1  LIG1        0.0280
     65 H           2.8535    2.1329    2.7546 H       1  LIG1        0.0233
     66 H           1.3190    1.4767    3.2816 H       1  LIG1        0.0233
     67 H           1.6809    3.1403    3.6273 H       1  LIG1        0.0233
     68 H           2.5534   -2.6070   -1.8285 H       1  LIG1        0.0235
     69 H           2.4108   -4.3596   -2.0189 H       1  LIG1        0.0235
     70 H           2.6247   -3.6743   -0.4229 H       1  LIG1        0.0235
     71 H          -0.7624   -4.4561    0.1696 H       1  LIG1        0.0274
     72 H           0.8887   -5.0139    0.2434 H       1  LIG1        0.0274
     73 H          -0.5072   -6.7048   -0.7437 H       1  LIG1        0.0326
     74 H           0.5279   -6.1136   -2.0450 H       1  LIG1        0.0326
     75 H          -3.3012   -7.8093   -1.9572 H       1  LIG1        0.3278
     76 H          -1.0686   -4.7599   -4.8519 H       1  LIG1        0.0239
     77 H          -1.9282   -3.2063   -4.8325 H       1  LIG1        0.0239
     78 H          -2.7851   -4.6873   -4.4581 H       1  LIG1        0.0239
     79 H          -2.4419   -3.0859   -1.0951 H       1  LIG1        0.0239
     80 H          -3.5589   -3.6357   -2.3192 H       1  LIG1        0.0239
     81 H          -2.6409   -2.1718   -2.6126 H       1  LIG1        0.0239
@<TRIPOS>BOND
     1     2     3    1
     2     3     4    2
     3     4     5    1
     4     5     6    1
     5     6     8    1
     6     8     9    1
     7     3     9    1
     8     9    11    1
     9    11    12    1
    10    12    13    1
    11     2    13    1
    12    13    15    1
    13    15    17    1
    14    17    18    1
    15     2    18    1
    16    21    22    1
    17    22    23    1
    18    23    24    2
    19    24    25    1
    20    25    26    2
    21    25    27    1
    22    24    28    1
    23    19    29    1
    24     8    31    1
    25    31    32    1
    26    32    33    1
    27    34    35    1
    28    33    36    1
    29     6    36    1
    30     1     2    1
    31     6     7    1
    32     8    30    1
    33     9    10    1
    34    13    14    1
    35    15    16    1
    36    15    19    1
    37    33    34    2
    38    36    37    1
    39    36    38    1
    40    19    21    1
    41    19    20    1
    42     1    39    1
    43     1    40    1
    44     1    41    1
    45     4    42    1
    46     5    43    1
    47     5    44    1
    48    11    45    1
    49    11    46    1
    50    12    47    1
    51    12    48    1
    52    14    49    1
    53    14    50    1
    54    14    51    1
    55    17    52    1
    56    17    53    1
    57    18    54    1
    58    18    55    1
    59    21    56    1
    60    21    57    1
    61    22    58    1
    62    22    59    1
    63    23    60    1
    64    27    61    1
    65    28    62    1
    66    28    63    1
    67    28    64    1
    68    29    65    1
    69    29    66    1
    70    29    67    1
    71    30    68    1
    72    30    69    1
    73    30    70    1
    74    31    71    1
    75    31    72    1
    76    32    73    1
    77    32    74    1
    78    35    75    1
    79    37    76    1
    80    37    77    1
    81    37    78    1
    82    38    79    1
    83    38    80    1
    84    38    81    1
