@<TRIPOS>MOLECULE
NuBBE_1374
 54 57 0 0 0
SMALL
GASTEIGER

@<TRIPOS>ATOM
      1 O          -1.0446    0.4080   -0.5048 O.3     1  LIG1       -0.3335
      2 C          -1.9805   -0.6607   -0.5525 C.3     1  LIG1        0.1888
      3 H          -1.7271   -1.4179    0.1956 H       1  LIG1        0.0938
      4 C          -3.4050   -0.1780   -0.2154 C.3     1  LIG1        0.1341
      5 H          -3.4295    0.3371    0.7510 H       1  LIG1        0.0671
      6 O          -4.3147   -1.2961   -0.1169 O.3     1  LIG1       -0.3841
      7 C          -3.9197    0.7587   -1.3076 C.3     1  LIG1        0.1140
      8 H          -3.3774    1.7114   -1.2882 H       1  LIG1        0.0648
      9 O          -5.3066    1.0697   -1.0841 O.3     1  LIG1       -0.3864
     10 C          -3.7942    0.1128   -2.6914 C.3     1  LIG1        0.1095
     11 H          -4.5387   -0.6895   -2.7827 H       1  LIG1        0.0646
     12 C          -2.3825   -0.4534   -2.9004 C.3     1  LIG1        0.0873
     13 H          -1.6572    0.3653   -2.9917 H       1  LIG1        0.0621
     14 O          -1.9884   -1.3185   -1.8210 O.3     1  LIG1       -0.3431
     15 C          -2.3033   -1.2783   -4.1805 C.3     1  LIG1       -0.0361
     16 O          -4.1102    1.0803   -3.6962 O.3     1  LIG1       -0.3866
     17 C           0.3243    0.0237   -0.6917 C.3     1  LIG1        0.1650
     18 H           0.4290   -0.4060   -1.6972 H       1  LIG1        0.0722
     19 C           0.8768   -0.9636    0.3551 C.3     1  LIG1        0.1586
     20 H           0.3022   -1.8925    0.2602 H       1  LIG1        0.0815
     21 O           2.2241   -1.3522    0.0109 O.3     1  LIG1       -0.4802
     22 C           3.0855   -0.2986   -0.1394 C.ar    1  LIG1        0.1391
     23 C           2.6740    1.0027   -0.4280 C.ar    1  LIG1        0.1033
     24 C           1.2394    1.2493   -0.6923 C.2     1  LIG1        0.2027
     25 O           0.8630    2.3951   -0.9265 O.2     1  LIG1       -0.2889
     26 C           3.6229    2.0317   -0.4716 C.ar    1  LIG1        0.1344
     27 O           3.2948    3.3391   -0.7113 O.3     1  LIG1       -0.5058
     28 C           4.9737    1.7578   -0.2625 C.ar    1  LIG1        0.0222
     29 C           5.3724    0.4450   -0.0283 C.ar    1  LIG1        0.1238
     30 C           4.4404   -0.5859    0.0246 C.ar    1  LIG1        0.0225
     31 O           6.6820    0.1230    0.1711 O.3     1  LIG1       -0.5065
     32 C           0.7726   -0.5889    1.8369 C.ar    1  LIG1       -0.0007
     33 C           1.2996   -1.4762    2.7966 C.ar    1  LIG1       -0.0098
     34 C           1.1958   -1.1799    4.1528 C.ar    1  LIG1        0.1586
     35 O           1.7052   -2.0070    5.1150 O.3     1  LIG1       -0.5033
     36 C           0.5601   -0.0174    4.5736 C.ar    1  LIG1        0.1582
     37 C           0.0330    0.8704    3.6536 C.ar    1  LIG1       -0.0162
     38 C           0.1417    0.5870    2.2910 C.ar    1  LIG1       -0.0513
     39 O           0.4495    0.2624    5.9044 O.3     1  LIG1       -0.5033
     40 H          -3.9840   -1.9945   -0.7168 H       1  LIG1        0.2101
     41 H          -5.6952    0.2693   -0.6710 H       1  LIG1        0.2100
     42 H          -2.5183   -0.6713   -5.0646 H       1  LIG1        0.0255
     43 H          -3.0101   -2.1153   -4.1481 H       1  LIG1        0.0255
     44 H          -1.3052   -1.7161   -4.2904 H       1  LIG1        0.0255
     45 H          -4.8926    1.5629   -3.3610 H       1  LIG1        0.2100
     46 H           2.3207    3.3956   -0.8369 H       1  LIG1        0.2922
     47 H           5.6920    2.5708   -0.2896 H       1  LIG1        0.0691
     48 H           4.7689   -1.6031    0.2180 H       1  LIG1        0.0691
     49 H           7.2125    0.9379    0.1565 H       1  LIG1        0.2921
     50 H           1.7868   -2.3920    2.4716 H       1  LIG1        0.0659
     51 H           2.2011   -2.7177    4.6737 H       1  LIG1        0.2923
     52 H          -0.4600    1.7775    3.9903 H       1  LIG1        0.0655
     53 H          -0.2864    1.3164    1.6074 H       1  LIG1        0.0623
     54 H           0.8871   -0.4902    6.3507 H       1  LIG1        0.2923
@<TRIPOS>BOND
     1     1     2    1
     2     2     3    1
     3     2     4    1
     4     4     7    1
     5     7     8    1
     6     7     9    1
     7     7    10    1
     8    10    12    1
     9    12    13    1
    10    12    14    1
    11     2    14    1
    12    12    15    1
    13     1    17    1
    14    17    18    1
    15    17    19    1
    16    19    21    1
    17    21    22    1
    18    22    23   ar
    19    23    24    1
    20    17    24    1
    21    24    25    2
    22    23    26   ar
    23    26    27    1
    24    26    28   ar
    25    28    29   ar
    26    29    30   ar
    27    22    30   ar
    28    29    31    1
    29    32    33   ar
    30    33    34   ar
    31    34    35    1
    32    34    36   ar
    33    36    37   ar
    34    37    38   ar
    35    32    38   ar
    36    36    39    1
    37    10    16    1
    38    10    11    1
    39     4     6    1
    40     4     5    1
    41    19    32    1
    42    19    20    1
    43     6    40    1
    44     9    41    1
    45    15    42    1
    46    15    43    1
    47    15    44    1
    48    16    45    1
    49    27    46    1
    50    28    47    1
    51    30    48    1
    52    31    49    1
    53    33    50    1
    54    35    51    1
    55    37    52    1
    56    38    53    1
    57    39    54    1
