@<TRIPOS>MOLECULE
NuBBE_2464
 66 68 0 0 0
SMALL
GASTEIGER

@<TRIPOS>ATOM
      1 C          -2.0345   -0.2517   -5.6624 C.3     1  LIG1        0.0790
      2 O          -1.1693   -1.2827   -5.1982 O.3     1  LIG1       -0.4914
      3 C          -0.6174   -1.0775   -3.9623 C.ar    1  LIG1        0.1618
      4 C          -0.3638   -2.1644   -3.1162 C.ar    1  LIG1        0.1618
      5 O          -0.6320   -3.4912   -3.3444 O.3     1  LIG1       -0.4914
      6 C          -1.2515   -3.8327   -4.5783 C.3     1  LIG1        0.0790
      7 C           0.2158   -1.9205   -1.8617 C.ar    1  LIG1       -0.0123
      8 C           0.5236   -0.6138   -1.4246 C.ar    1  LIG1       -0.0327
      9 C           1.0461   -0.3928   -0.0114 C.3     1  LIG1        0.0160
     10 H           1.9235   -1.0589    0.0354 H       1  LIG1        0.0401
     11 C           0.1290   -0.9587    1.0901 C.ar    1  LIG1       -0.0359
     12 C           0.7540   -1.4683    2.2277 C.ar    1  LIG1       -0.0543
     13 C           0.0399   -2.2086    3.1654 C.ar    1  LIG1       -0.0160
     14 C          -1.3399   -2.4313    3.0515 C.ar    1  LIG1        0.1615
     15 O          -2.0404   -3.0908    4.0322 O.3     1  LIG1       -0.4915
     16 C          -1.2717   -3.5498    5.1455 C.3     1  LIG1        0.0790
     17 C          -2.0037   -1.9221    1.9247 C.ar    1  LIG1        0.1618
     18 O          -3.3481   -2.0158    1.6474 O.3     1  LIG1       -0.4914
     19 C          -4.0198   -3.2400    1.9452 C.3     1  LIG1        0.0790
     20 C          -1.2652   -1.1685    0.9729 C.ar    1  LIG1       -0.0125
     21 C           1.6126    1.0470    0.2408 C.3     1  LIG1        0.0103
     22 H           1.5914    1.2905    1.3115 H       1  LIG1        0.0346
     23 C           3.1222    1.0823   -0.1763 C.3     1  LIG1        0.0965
     24 O           3.6224    2.4161    0.0331 O.3     1  LIG1       -0.4645
     25 C           4.4051    2.6222    1.1120 C.2     1  LIG1        0.3040
     26 C           4.3734    4.0656    1.4946 C.3     1  LIG1        0.0332
     27 O           4.9727    1.7387    1.7680 O.2     1  LIG1       -0.2512
     28 C           0.8368    2.1648   -0.5225 C.3     1  LIG1        0.0041
     29 H           1.3825    3.1104   -0.4004 H       1  LIG1        0.0341
     30 C          -0.5863    2.4570   -0.0097 C.3     1  LIG1        0.0959
     31 O          -0.5706    2.8259    1.3851 O.3     1  LIG1       -0.4645
     32 C          -0.4428    4.1612    1.6450 C.2     1  LIG1        0.3040
     33 C          -0.4335    4.4215    3.1401 C.3     1  LIG1        0.0332
     34 O          -0.3341    5.0291    0.8193 O.2     1  LIG1       -0.2512
     35 C           0.8242    1.8428   -2.0181 C.3     1  LIG1       -0.0210
     36 C           0.3377    0.4504   -2.3125 C.ar    1  LIG1       -0.0395
     37 C          -0.2249    0.2051   -3.5675 C.ar    1  LIG1       -0.0128
     38 H          -2.6359   -0.6658   -6.4761 H       1  LIG1        0.0660
     39 H          -1.4518    0.5794   -6.0701 H       1  LIG1        0.0660
     40 H          -2.7189    0.0926   -4.8784 H       1  LIG1        0.0660
     41 H          -1.4523   -4.9078   -4.5800 H       1  LIG1        0.0660
     42 H          -0.5813   -3.6267   -5.4200 H       1  LIG1        0.0660
     43 H          -2.2201   -3.3334   -4.6888 H       1  LIG1        0.0660
     44 H           0.4102   -2.7690   -1.2033 H       1  LIG1        0.0658
     45 H           1.8238   -1.3492    2.3837 H       1  LIG1        0.0622
     46 H           0.6214   -2.6186    3.9828 H       1  LIG1        0.0655
     47 H          -1.9311   -4.0357    5.8691 H       1  LIG1        0.0660
     48 H          -0.7854   -2.7104    5.6580 H       1  LIG1        0.0660
     49 H          -0.5356   -4.2946    4.8197 H       1  LIG1        0.0660
     50 H          -3.9632   -3.5338    2.9935 H       1  LIG1        0.0660
     51 H          -3.6774   -4.0503    1.2925 H       1  LIG1        0.0660
     52 H          -5.0876   -3.0902    1.7404 H       1  LIG1        0.0660
     53 H          -1.7996   -0.7972    0.0990 H       1  LIG1        0.0658
     54 H           3.7057    0.3388    0.3802 H       1  LIG1        0.0700
     55 H           3.2621    0.8425   -1.2347 H       1  LIG1        0.0700
     56 H           4.3774    4.7062    0.6081 H       1  LIG1        0.0342
     57 H           5.2426    4.3185    2.1061 H       1  LIG1        0.0342
     58 H           3.4579    4.2403    2.0720 H       1  LIG1        0.0342
     59 H          -1.0554    3.2429   -0.6131 H       1  LIG1        0.0700
     60 H          -1.2363    1.5826   -0.1076 H       1  LIG1        0.0700
     61 H          -1.3428    4.0443    3.6074 H       1  LIG1        0.0342
     62 H          -0.3839    5.4973    3.3053 H       1  LIG1        0.0342
     63 H           0.4526    3.9609    3.5765 H       1  LIG1        0.0342
     64 H           1.8396    1.9175   -2.4295 H       1  LIG1        0.0317
     65 H           0.2317    2.5867   -2.5629 H       1  LIG1        0.0317
     66 H          -0.3299    1.0415   -4.2507 H       1  LIG1        0.0658
@<TRIPOS>BOND
     1     1     2    1
     2     2     3    1
     3     3     4   ar
     4     4     5    1
     5     5     6    1
     6     4     7   ar
     7     7     8   ar
     8     8     9    1
     9     9    10    1
    10     9    11    1
    11    11    12   ar
    12    12    13   ar
    13    13    14   ar
    14    14    15    1
    15    15    16    1
    16    14    17   ar
    17    17    18    1
    18    18    19    1
    19    17    20   ar
    20    11    20   ar
    21     9    21    1
    22    23    24    1
    23    24    25    1
    24    25    26    1
    25    25    27    2
    26    21    28    1
    27    30    31    1
    28    31    32    1
    29    32    33    1
    30    32    34    2
    31    28    35    1
    32     8    36   ar
    33    35    36    1
    34    36    37   ar
    35     3    37   ar
    36    21    23    1
    37    21    22    1
    38    28    30    1
    39    28    29    1
    40     1    38    1
    41     1    39    1
    42     1    40    1
    43     6    41    1
    44     6    42    1
    45     6    43    1
    46     7    44    1
    47    12    45    1
    48    13    46    1
    49    16    47    1
    50    16    48    1
    51    16    49    1
    52    19    50    1
    53    19    51    1
    54    19    52    1
    55    20    53    1
    56    23    54    1
    57    23    55    1
    58    26    56    1
    59    26    57    1
    60    26    58    1
    61    30    59    1
    62    30    60    1
    63    33    61    1
    64    33    62    1
    65    33    63    1
    66    35    64    1
    67    35    65    1
    68    37    66    1
