REMARK  Name = NuBBE_70
REMARK  14 active torsions:
REMARK  status: ('A' for Active; 'I' for Inactive)
REMARK    1  A    between atoms: C_1  and  C_2
REMARK    2  A    between atoms: C_2  and  C_3
REMARK    3  A    between atoms: C_4  and  C_5
REMARK    4  A    between atoms: C_5  and  C_6
REMARK    5  A    between atoms: C_6  and  C_7
REMARK    6  A    between atoms: C_7  and  C_8
REMARK    7  A    between atoms: C_9  and  C_10
REMARK    8  A    between atoms: C_10  and  C_11
REMARK    9  A    between atoms: C_11  and  C_12
REMARK   10  A    between atoms: C_12  and  C_13
REMARK   11  A    between atoms: C_12  and  C_14
REMARK   12  A    between atoms: C_12  and  C_22
REMARK   13  A    between atoms: C_16  and  O_17
REMARK   14  A    between atoms: C_18  and  O_19
REMARK                            x       y       z     vdW  Elec       q    Type
REMARK                         _______ _______ _______ _____ _____    ______ ____
ROOT
ATOM      1  C   LIG A   1       1.322  -3.276   0.625  0.00  0.00    +0.011 C 
ATOM      2  C   LIG A   1       1.306  -4.337  -0.509  0.00  0.00    +0.020 C 
ENDROOT
BRANCH   1   3
ATOM      3  C   LIG A   1       2.652  -2.470   0.617  0.00  0.00    -0.034 A 
ATOM      4  C   LIG A   1       3.201  -1.953   1.811  0.00  0.00    +0.053 A 
ATOM      5  C   LIG A   1       4.386  -1.216   1.788  0.00  0.00    +0.159 A 
ATOM      6  C   LIG A   1       5.046  -0.974   0.590  0.00  0.00    +0.158 A 
ATOM      7  C   LIG A   1       4.535  -1.458  -0.599  0.00  0.00    +0.049 A 
ATOM      8  C   LIG A   1       3.347  -2.197  -0.584  0.00  0.00    +0.008 A 
BRANCH   5   9
ATOM      9  O   LIG A   1       4.936  -0.695   2.928  0.00  0.00    -0.503 OA
ATOM     10  H   LIG A   1       4.317  -0.858   3.660  0.00  0.00    +0.292 HD
ENDBRANCH   5   9
BRANCH   6  11
ATOM     11  O   LIG A   1       6.200  -0.246   0.575  0.00  0.00    -0.503 OA
ATOM     12  H   LIG A   1       6.356  -0.018   1.512  0.00  0.00    +0.292 HD
ENDBRANCH   6  11
ENDBRANCH   1   3
BRANCH   1  13
ATOM     13  C   LIG A   1       1.213  -4.086   1.937  0.00  0.00    -0.023 C 
ATOM     14  C   LIG A   1       0.261  -4.001   2.896  0.00  0.00    +0.005 C 
ENDBRANCH   1  13
BRANCH   1  15
ATOM     15  C   LIG A   1       0.090  -2.319   0.454  0.00  0.00    +0.019 C 
BRANCH  15  16
ATOM     16  C   LIG A   1       0.063  -1.476  -0.827  0.00  0.00    +0.028 C 
BRANCH  16  19
ATOM     17  C   LIG A   1      -1.277   0.690  -0.555  0.00  0.00    -0.076 C 
ATOM     18  C   LIG A   1      -0.220   1.440   0.214  0.00  0.00    +0.038 C 
ATOM     19  C   LIG A   1      -1.157  -0.596  -0.951  0.00  0.00    -0.028 C 
BRANCH  17  20
ATOM     20  C   LIG A   1      -2.542   1.484  -0.851  0.00  0.00    +0.034 C 
BRANCH  20  21
ATOM     21  C   LIG A   1      -2.265   2.732  -1.704  0.00  0.00    +0.031 C 
BRANCH  21  25
ATOM     22  C   LIG A   1      -5.271   5.245  -1.775  0.00  0.00    +0.038 C 
ATOM     23  C   LIG A   1      -4.023   4.537  -1.317  0.00  0.00    -0.080 C 
ATOM     24  C   LIG A   1      -3.444   5.080  -0.038  0.00  0.00    +0.038 C 
ATOM     25  C   LIG A   1      -3.513   3.509  -2.022  0.00  0.00    -0.028 C 
ENDBRANCH  21  25
ENDBRANCH  20  21
ENDBRANCH  17  20
ENDBRANCH  16  19
ENDBRANCH  15  16
ENDBRANCH   1  15
TORSDOF 10
