@<TRIPOS>MOLECULE
NuBBE_2396
 51 52 0 0 0
SMALL
GASTEIGER

@<TRIPOS>ATOM
      1 C          -4.2269    0.4027    0.7979 C.3     1  LIG1       -0.0023
      2 C          -4.8537    0.0805   -0.5386 C.2     1  LIG1       -0.0807
      3 C          -5.2864   -1.1124   -0.9973 C.2     1  LIG1       -0.0793
      4 C          -5.1909   -2.4193   -0.2615 C.3     1  LIG1       -0.0440
      5 C          -5.9131   -1.2356   -2.3605 C.3     1  LIG1       -0.0440
      6 C          -2.7139    0.5178    0.7232 C.ar    1  LIG1        0.0396
      7 C          -2.0979    1.7536    0.4313 C.ar    1  LIG1        0.1276
      8 O          -2.9278    2.8418    0.3252 O.3     1  LIG1       -0.4947
      9 C          -2.3858    4.0168   -0.2663 C.3     1  LIG1        0.0788
     10 C          -0.7068    1.8232    0.3018 C.ar    1  LIG1       -0.0123
     11 C           0.0789    0.6731    0.4147 C.ar    1  LIG1       -0.0181
     12 C          -0.5274   -0.5434    0.7347 C.ar    1  LIG1       -0.0123
     13 C          -1.9083   -0.6278    0.9014 C.ar    1  LIG1        0.1276
     14 O          -2.5546   -1.7781    1.2598 O.3     1  LIG1       -0.4947
     15 C          -1.7904   -2.9549    1.4755 C.3     1  LIG1        0.0788
     16 C           1.5373    0.7815    0.2843 C.2     1  LIG1       -0.0538
     17 C           2.3114   -0.1767   -0.2328 C.2     1  LIG1       -0.0540
     18 C           3.7747   -0.0796   -0.2865 C.ar    1  LIG1       -0.0248
     19 C           4.4802   -0.6680   -1.3406 C.ar    1  LIG1       -0.0511
     20 C           5.8771   -0.6029   -1.3769 C.ar    1  LIG1       -0.0194
     21 C           6.5820    0.0384   -0.3551 C.ar    1  LIG1        0.1201
     22 C           5.8784    0.6065    0.7051 C.ar    1  LIG1       -0.0194
     23 C           4.4883    0.5397    0.7440 C.ar    1  LIG1       -0.0511
     24 O           7.9446    0.0498   -0.4852 O.3     1  LIG1       -0.4951
     25 C           8.6543    0.6847    0.5749 C.3     1  LIG1        0.0788
     26 H          -4.5198   -0.3186    1.5680 H       1  LIG1        0.0358
     27 H          -4.6572    1.3465    1.1577 H       1  LIG1        0.0358
     28 H          -4.9710    0.9541   -1.1800 H       1  LIG1        0.0575
     29 H          -4.7300   -2.3357    0.7197 H       1  LIG1        0.0274
     30 H          -4.6051   -3.1375   -0.8465 H       1  LIG1        0.0274
     31 H          -6.1881   -2.8374   -0.0967 H       1  LIG1        0.0274
     32 H          -6.0825   -0.2625   -2.8317 H       1  LIG1        0.0274
     33 H          -6.8828   -1.7390   -2.2845 H       1  LIG1        0.0274
     34 H          -5.2682   -1.8252   -3.0205 H       1  LIG1        0.0274
     35 H          -3.1997    4.7390   -0.3803 H       1  LIG1        0.0660
     36 H          -1.9832    3.8060   -1.2627 H       1  LIG1        0.0660
     37 H          -1.6284    4.4748    0.3785 H       1  LIG1        0.0660
     38 H          -0.2098    2.7684    0.1090 H       1  LIG1        0.0660
     39 H           0.0979   -1.4187    0.8691 H       1  LIG1        0.0660
     40 H          -1.1129   -2.8290    2.3256 H       1  LIG1        0.0660
     41 H          -1.2496   -3.2523    0.5713 H       1  LIG1        0.0660
     42 H          -2.4887   -3.7608    1.7218 H       1  LIG1        0.0660
     43 H           1.9640    1.7174    0.6451 H       1  LIG1        0.0624
     44 H           1.8884   -1.0936   -0.6417 H       1  LIG1        0.0624
     45 H           3.9510   -1.1740   -2.1451 H       1  LIG1        0.0625
     46 H           6.4147   -1.0555   -2.2063 H       1  LIG1        0.0654
     47 H           6.3752    1.1087    1.5271 H       1  LIG1        0.0654
     48 H           3.9759    0.9720    1.5996 H       1  LIG1        0.0625
     49 H           9.7235    0.6317    0.3557 H       1  LIG1        0.0660
     50 H           8.4812    0.1664    1.5251 H       1  LIG1        0.0660
     51 H           8.3819    1.7437    0.6501 H       1  LIG1        0.0660
@<TRIPOS>BOND
     1     1     2    1
     2     2     3    2
     3     3     4    1
     4     3     5    1
     5     1     6    1
     6     6     7   ar
     7     7     8    1
     8     8     9    1
     9     7    10   ar
    10    10    11   ar
    11    11    12   ar
    12    12    13   ar
    13     6    13   ar
    14    13    14    1
    15    14    15    1
    16    11    16    1
    17    16    17    2
    18    17    18    1
    19    18    19   ar
    20    19    20   ar
    21    20    21   ar
    22    21    22   ar
    23    22    23   ar
    24    18    23   ar
    25    21    24    1
    26    24    25    1
    27     1    26    1
    28     1    27    1
    29     2    28    1
    30     4    29    1
    31     4    30    1
    32     4    31    1
    33     5    32    1
    34     5    33    1
    35     5    34    1
    36     9    35    1
    37     9    36    1
    38     9    37    1
    39    10    38    1
    40    12    39    1
    41    15    40    1
    42    15    41    1
    43    15    42    1
    44    16    43    1
    45    17    44    1
    46    19    45    1
    47    20    46    1
    48    22    47    1
    49    23    48    1
    50    25    49    1
    51    25    50    1
    52    25    51    1
