REMARK  Name = NuBBE_298
REMARK  6 active torsions:
REMARK  status: ('A' for Active; 'I' for Inactive)
REMARK    1  A    between atoms: C_1  and  O_2
REMARK    2  A    between atoms: O_2  and  C_3
REMARK    3  A    between atoms: C_4  and  C_5
REMARK    4  A    between atoms: C_6  and  O_7
REMARK    5  A    between atoms: C_11  and  C_12
REMARK    6  A    between atoms: C_12  and  O_13
REMARK                            x       y       z     vdW  Elec       q    Type
REMARK                         _______ _______ _______ _____ _____    ______ ____
ROOT
ATOM      1  C   LIG A   1      -0.514  -1.581  -0.917  0.00  0.00    +0.130 A 
ATOM      2  C   LIG A   1       0.384  -2.133   0.018  0.00  0.00    +0.034 A 
ATOM      3  C   LIG A   1       0.558  -3.628   0.103  0.00  0.00    +0.051 C 
ATOM      4  C   LIG A   1       1.118  -1.263   0.848  0.00  0.00    +0.138 A 
ATOM      5  C   LIG A   1       0.929   0.127   0.786  0.00  0.00    +0.106 A 
ATOM      6  C   LIG A   1       1.665   1.084   1.644  0.00  0.00    +0.196 A 
ATOM      7  C   LIG A   1       1.308   2.505   1.496  0.00  0.00    +0.095 A 
ATOM      8  C   LIG A   1       0.414   2.881   0.572  0.00  0.00    +0.135 A 
ATOM      9  O   LIG A   1      -0.227   1.996  -0.280  0.00  0.00    -0.457 OA
ATOM     10  C   LIG A   1       0.024   0.650  -0.138  0.00  0.00    +0.146 A 
ATOM     11  C   LIG A   1      -0.682  -0.195  -0.998  0.00  0.00    +0.093 A 
ATOM     12  O   LIG A   1       2.545   0.781   2.440  0.00  0.00    -0.287 OA
ENDROOT
BRANCH   1  14
ATOM     13  C   LIG A   1      -2.446  -2.076  -2.200  0.00  0.00    +0.277 C 
ATOM     14  O   LIG A   1      -1.153  -2.465  -1.747  0.00  0.00    -0.495 OA
ENDBRANCH   1  14
BRANCH   4  15
ATOM     15  O   LIG A   1       2.015  -1.774   1.746  0.00  0.00    -0.505 OA
ATOM     16  H   LIG A   1       2.388  -2.604   1.411  0.00  0.00    +0.292 HD
ENDBRANCH   4  15
BRANCH   8  17
ATOM     17  C   LIG A   1       0.052   4.322   0.356  0.00  0.00    +0.230 C 
BRANCH  17  18
ATOM     18  O   LIG A   1      -1.334   4.523   0.599  0.00  0.00    -0.387 OA
ATOM     19  H   LIG A   1      -1.813   3.847   0.088  0.00  0.00    +0.210 HD
ENDBRANCH  17  18
ENDBRANCH   8  17
TORSDOF 4
