REMARK  Name = NuBBE_859
REMARK  18 active torsions:
REMARK  status: ('A' for Active; 'I' for Inactive)
REMARK    1  A    between atoms: C_1  and  C_2
REMARK    2  A    between atoms: C_4  and  O_5
REMARK    3  A    between atoms: O_5  and  C_6
REMARK    4  A    between atoms: C_6  and  C_7
REMARK    5  A    between atoms: C_13  and  C_14
REMARK    6  A    between atoms: C_13  and  C_30
REMARK    7  A    between atoms: C_14  and  C_15
REMARK    8  A    between atoms: C_15  and  C_16
REMARK    9  A    between atoms: C_17  and  C_18
REMARK   10  A    between atoms: C_17  and  C_19
REMARK   11  A    between atoms: C_19  and  C_20
REMARK   12  A    between atoms: C_20  and  C_21
REMARK   13  A    between atoms: C_22  and  C_23
REMARK   14  A    between atoms: C_22  and  C_24
REMARK   15  A    between atoms: C_24  and  C_25
REMARK   16  A    between atoms: C_25  and  C_26
REMARK   17  A    between atoms: C_27  and  C_28
REMARK   18  A    between atoms: C_27  and  C_29
REMARK                            x       y       z     vdW  Elec       q    Type
REMARK                         _______ _______ _______ _____ _____    ______ ____
ROOT
ATOM      1  C   LIG A   1       1.190  -4.344  -4.817  0.00  0.00    +0.048 C 
ATOM      2  C   LIG A   1       1.496  -4.242  -3.352  0.00  0.00    -0.005 A 
ATOM      3  C   LIG A   1       0.872  -5.086  -2.442  0.00  0.00    +0.053 A 
ATOM      4  C   LIG A   1       1.116  -4.965  -1.077  0.00  0.00    +0.132 A 
ATOM      5  C   LIG A   1       2.070  -4.055  -0.600  0.00  0.00    +0.053 A 
ATOM      6  C   LIG A   1       2.723  -3.210  -1.505  0.00  0.00    -0.002 A 
ATOM      7  C   LIG A   1       2.377  -3.276  -2.865  0.00  0.00    +0.128 A 
ATOM      8  O   LIG A   1       2.866  -2.412  -3.804  0.00  0.00    -0.485 OA
ATOM      9  C   LIG A   1       3.453  -1.197  -3.296  0.00  0.00    +0.108 C 
ATOM     10  C   LIG A   1       4.205  -0.648  -4.511  0.00  0.00    +0.056 C 
ATOM     11  C   LIG A   1       4.457  -1.562  -2.203  0.00  0.00    +0.052 C 
ATOM     12  C   LIG A   1       3.750  -2.220  -1.024  0.00  0.00    +0.043 C 
ENDROOT
BRANCH   4  13
ATOM     13  O   LIG A   1       0.469  -5.778  -0.128  0.00  0.00    -0.426 OA
BRANCH  13  14
ATOM     14  C   LIG A   1      -0.827  -6.262  -0.423  0.00  0.00    +0.309 C 
ATOM     15  C   LIG A   1      -1.238  -7.187   0.680  0.00  0.00    +0.136 C 
ATOM     16  O   LIG A   1      -1.512  -6.026  -1.369  0.00  0.00    -0.251 OA
ENDBRANCH  13  14
ENDBRANCH   4  13
BRANCH   9  17
ATOM     17  C   LIG A   1       2.295  -0.269  -2.852  0.00  0.00    +0.051 C 
BRANCH  17  18
ATOM     18  C   LIG A   1       2.612   1.089  -2.227  0.00  0.00    +0.031 C 
BRANCH  18  19
ATOM     19  C   LIG A   1       1.451   1.929  -1.692  0.00  0.00    -0.028 C 
ATOM     20  C   LIG A   1       0.115   1.717  -1.654  0.00  0.00    -0.076 C 
ATOM     21  C   LIG A   1      -0.600   0.523  -2.233  0.00  0.00    +0.038 C 
BRANCH  20  22
ATOM     22  C   LIG A   1      -0.844   2.740  -1.037  0.00  0.00    +0.034 C 
BRANCH  22  23
ATOM     23  C   LIG A   1      -0.659   3.036   0.455  0.00  0.00    +0.031 C 
BRANCH  23  24
ATOM     24  C   LIG A   1      -1.644   4.091   0.927  0.00  0.00    -0.027 C 
ATOM     25  C   LIG A   1      -2.052   4.244   2.197  0.00  0.00    -0.076 C 
ATOM     26  C   LIG A   1      -1.526   3.345   3.247  0.00  0.00    +0.038 C 
BRANCH  25  27
ATOM     27  C   LIG A   1      -3.125   5.262   2.618  0.00  0.00    +0.034 C 
BRANCH  27  28
ATOM     28  C   LIG A   1      -4.189   4.874   3.706  0.00  0.00    +0.031 C 
BRANCH  28  29
ATOM     29  C   LIG A   1      -3.651   4.518   5.089  0.00  0.00    -0.028 C 
ATOM     30  C   LIG A   1      -3.441   3.265   5.570  0.00  0.00    -0.080 C 
ATOM     31  C   LIG A   1      -3.759   1.966   4.837  0.00  0.00    +0.038 C 
ATOM     32  C   LIG A   1      -2.673   2.973   6.834  0.00  0.00    +0.038 C 
ENDBRANCH  28  29
ENDBRANCH  27  28
ENDBRANCH  25  27
ENDBRANCH  23  24
ENDBRANCH  22  23
ENDBRANCH  20  22
ENDBRANCH  18  19
ENDBRANCH  17  18
ENDBRANCH   9  17
TORSDOF 11
