@<TRIPOS>MOLECULE
NuBBE_2073
 44 48 0 0 0
SMALL
GASTEIGER

@<TRIPOS>ATOM
      1 O          -4.2216   -1.4479    0.6326 O.2     1  LIG1       -0.2500
      2 C          -3.0428   -1.2907    0.6969 C.2     1  LIG1        0.3189
      3 C          -2.2636   -0.0132    0.9702 C.3     1  LIG1        0.1249
      4 C          -2.3555   -0.0955    2.5473 C.3     1  LIG1       -0.0440
      5 C          -2.4133    1.4653    0.5482 C.3     1  LIG1        0.1832
      6 O          -3.7782    1.8026    0.5022 O.3     1  LIG1       -0.3636
      7 C          -1.7948    2.1621   -0.7012 C.3     1  LIG1        0.0029
      8 C          -0.3816    1.6770   -0.9738 C.3     1  LIG1       -0.0397
      9 C           0.0246    0.6780    0.1475 C.3     1  LIG1        0.0052
     10 C          -0.1636    1.5615    1.4404 C.3     1  LIG1        0.0573
     11 O          -1.5412    2.1301    1.5264 O.3     1  LIG1       -0.3471
     12 C           1.4499    0.0589   -0.0589 C.3     1  LIG1       -0.0232
     13 C           1.4185   -1.4510   -0.4041 C.3     1  LIG1        0.0243
     14 C           0.4928   -2.2677    0.5320 C.3     1  LIG1       -0.0056
     15 C          -0.9163   -1.8672    0.1388 C.3     1  LIG1        0.1083
     16 H          -1.0359   -2.2725   -0.8767 H       1  LIG1        0.0737
     17 O          -2.0893   -2.3338    0.7852 O.3     1  LIG1       -0.4605
     18 C          -1.0899   -0.3840    0.0986 C.3     1  LIG1        0.0247
     19 C           2.2246    0.7922   -1.1796 C.3     1  LIG1       -0.0486
     20 C           3.5520    0.2103   -1.6381 C.3     1  LIG1       -0.0461
     21 C           3.6944   -1.3019   -1.5744 C.3     1  LIG1        0.0061
     22 C           2.8498   -1.9485   -0.4941 C.2     1  LIG1        0.1368
     23 O           3.2708   -2.8861    0.1772 O.2     1  LIG1       -0.2971
     24 H          -3.4123    0.0263    2.8357 H       1  LIG1        0.0242
     25 H          -1.8475    0.6775    3.1283 H       1  LIG1        0.0242
     26 H          -2.0158   -1.0495    2.9628 H       1  LIG1        0.0242
     27 H          -4.0926    1.4374   -0.3533 H       1  LIG1        0.2128
     28 H          -1.6966    3.2378   -0.4567 H       1  LIG1        0.0317
     29 H          -2.4077    2.1556   -1.6047 H       1  LIG1        0.0317
     30 H           0.3007    2.5356   -1.0163 H       1  LIG1        0.0273
     31 H          -0.3784    1.2031   -1.9614 H       1  LIG1        0.0273
     32 H           0.5222    2.4135    1.4663 H       1  LIG1        0.0566
     33 H           0.0296    0.9738    2.3451 H       1  LIG1        0.0566
     34 H           2.0151    0.1695    0.8774 H       1  LIG1        0.0314
     35 H           1.0291   -1.5734   -1.4282 H       1  LIG1        0.0381
     36 H           0.7073   -2.0898    1.5903 H       1  LIG1        0.0308
     37 H           0.6223   -3.3454    0.3660 H       1  LIG1        0.0308
     38 H          -1.4802   -0.3142   -0.9373 H       1  LIG1        0.0355
     39 H           2.3909    1.8334   -0.8777 H       1  LIG1        0.0268
     40 H           1.6091    0.8137   -2.0848 H       1  LIG1        0.0268
     41 H           3.7041    0.5265   -2.6816 H       1  LIG1        0.0269
     42 H           4.3598    0.6851   -1.0732 H       1  LIG1        0.0269
     43 H           4.7480   -1.5464   -1.4059 H       1  LIG1        0.0342
     44 H           3.4032   -1.7482   -2.5331 H       1  LIG1        0.0342
@<TRIPOS>BOND
     1     1     2    2
     2     2     3    1
     3     3     4    1
     4     3     5    1
     5     5     6    1
     6     5     7    1
     7     7     8    1
     8     8     9    1
     9     9    10    1
    10    10    11    1
    11     5    11    1
    12     9    12    1
    13    12    13    1
    14    13    14    1
    15    14    15    1
    16    15    16    1
    17    15    17    1
    18     2    17    1
    19    15    18    1
    20     9    18    1
    21     3    18    1
    22    12    19    1
    23    19    20    1
    24    20    21    1
    25    21    22    1
    26    13    22    1
    27    22    23    2
    28     4    24    1
    29     4    25    1
    30     4    26    1
    31     6    27    1
    32     7    28    1
    33     7    29    1
    34     8    30    1
    35     8    31    1
    36    10    32    1
    37    10    33    1
    38    12    34    1
    39    13    35    1
    40    14    36    1
    41    14    37    1
    42    18    38    1
    43    19    39    1
    44    19    40    1
    45    20    41    1
    46    20    42    1
    47    21    43    1
    48    21    44    1
