REMARK  Name = NuBBE_281
REMARK  16 active torsions:
REMARK  status: ('A' for Active; 'I' for Inactive)
REMARK    1  A    between atoms: O_1  and  C_2
REMARK    2  A    between atoms: C_5  and  O_6
REMARK    3  A    between atoms: O_6  and  C_7
REMARK    4  A    between atoms: C_10  and  C_18
REMARK    5  A    between atoms: C_12  and  O_17
REMARK    6  A    between atoms: C_14  and  O_16
REMARK    7  A    between atoms: C_18  and  O_19
REMARK    8  A    between atoms: O_19  and  C_20
REMARK    9  A    between atoms: C_23  and  C_31
REMARK   10  A    between atoms: C_25  and  O_30
REMARK   11  A    between atoms: C_27  and  O_29
REMARK   12  A    between atoms: C_32  and  O_34
REMARK   13  A    between atoms: C_35  and  O_37
REMARK   14  A    between atoms: C_38  and  C_45
REMARK   15  A    between atoms: C_42  and  O_43
REMARK   16  A    between atoms: C_48  and  O_51
REMARK                            x       y       z     vdW  Elec       q    Type
REMARK                         _______ _______ _______ _____ _____    ______ ____
ROOT
ATOM      1  C   LIG A   1      -0.088   2.347   0.005  0.00  0.00    +0.340 C 
ATOM      2  O   LIG A   1      -0.429   2.768  -1.337  0.00  0.00    -0.331 OA
ATOM      3  C   LIG A   1      -0.038   1.898  -2.405  0.00  0.00    +0.179 C 
ATOM      4  C   LIG A   1       1.464   1.537  -2.329  0.00  0.00    +0.177 C 
ATOM      5  C   LIG A   1       1.878   1.044  -0.941  0.00  0.00    +0.180 C 
ATOM      6  C   LIG A   1       1.423   2.037   0.122  0.00  0.00    +0.214 C 
ENDROOT
BRANCH   5   7
ATOM      7  O   LIG A   1       1.336  -0.250  -0.676  0.00  0.00    -0.386 OA
ATOM      8  H   LIG A   1       2.030  -0.766  -0.227  0.00  0.00    +0.210 HD
ENDBRANCH   5   7
BRANCH   4   9
ATOM      9  O   LIG A   1       1.898   0.605  -3.318  0.00  0.00    -0.387 OA
ATOM     10  H   LIG A   1       1.143   0.001  -3.455  0.00  0.00    +0.210 HD
ENDBRANCH   4   9
BRANCH   6  11
ATOM     11  O   LIG A   1       2.193   3.247  -0.014  0.00  0.00    -0.383 OA
ATOM     12  H   LIG A   1       1.680   3.874  -0.559  0.00  0.00    +0.210 HD
ENDBRANCH   6  11
BRANCH   1  13
ATOM     13  O   LIG A   1      -0.993   1.358   0.505  0.00  0.00    -0.453 OA
BRANCH  13  17
ATOM     14  C   LIG A   1      -1.304  -2.740   3.217  0.00  0.00    +0.135 A 
ATOM     15  C   LIG A   1      -0.999  -1.381   3.078  0.00  0.00    +0.109 A 
ATOM     16  C   LIG A   1      -1.351  -0.614   1.874  0.00  0.00    +0.238 A 
ATOM     17  C   LIG A   1      -0.860   0.805   1.768  0.00  0.00    +0.214 A 
ATOM     18  C   LIG A   1      -0.411   1.360   2.925  0.00  0.00    +0.181 A 
ATOM     19  O   LIG A   1      -0.118   0.625   4.074  0.00  0.00    -0.451 OA
ATOM     20  C   LIG A   1      -0.315  -0.727   4.088  0.00  0.00    +0.146 A 
ATOM     21  C   LIG A   1       0.159  -1.433   5.199  0.00  0.00    +0.092 A 
ATOM     22  C   LIG A   1      -0.103  -2.796   5.301  0.00  0.00    +0.124 A 
ATOM     23  C   LIG A   1      -0.859  -3.449   4.332  0.00  0.00    +0.091 A 
ATOM     24  O   LIG A   1      -2.022  -1.143   1.003  0.00  0.00    -0.283 OA
BRANCH  18  25
ATOM     25  C   LIG A   1      -0.176   2.807   3.170  0.00  0.00    +0.021 A 
ATOM     26  C   LIG A   1       0.874   3.231   4.003  0.00  0.00    +0.015 A 
ATOM     27  C   LIG A   1       1.109   4.591   4.234  0.00  0.00    +0.046 A 
ATOM     28  C   LIG A   1       0.308   5.537   3.608  0.00  0.00    +0.117 A 
ATOM     29  C   LIG A   1      -0.761   5.145   2.817  0.00  0.00    +0.046 A 
ATOM     30  C   LIG A   1      -1.039   3.786   2.654  0.00  0.00    +0.015 A 
BRANCH  28  31
ATOM     31  O   LIG A   1       0.531   6.872   3.754  0.00  0.00    -0.507 OA
ATOM     32  H   LIG A   1       1.270   7.002   4.371  0.00  0.00    +0.292 HD
ENDBRANCH  28  31
ENDBRANCH  18  25
BRANCH  14  33
ATOM     33  O   LIG A   1      -2.044  -3.435   2.300  0.00  0.00    -0.506 OA
ATOM     34  H   LIG A   1      -2.320  -2.811   1.591  0.00  0.00    +0.292 HD
ENDBRANCH  14  33
BRANCH  22  35
ATOM     35  O   LIG A   1       0.358  -3.535   6.350  0.00  0.00    -0.506 OA
ATOM     36  H   LIG A   1       0.939  -2.988   6.904  0.00  0.00    +0.292 HD
ENDBRANCH  22  35
ENDBRANCH  13  17
ENDBRANCH   1  13
BRANCH   3  37
ATOM     37  C   LIG A   1      -1.037   0.742  -2.607  0.00  0.00    +0.197 C 
BRANCH  37  38
ATOM     38  O   LIG A   1      -0.605  -0.090  -3.691  0.00  0.00    -0.346 OA
BRANCH  38  39
ATOM     39  C   LIG A   1      -1.493  -1.179  -3.945  0.00  0.00    +0.282 C 
ATOM     40  O   LIG A   1      -1.564  -2.094  -2.844  0.00  0.00    -0.343 OA
ATOM     41  C   LIG A   1      -0.290  -2.628  -2.466  0.00  0.00    +0.149 C 
ATOM     42  C   LIG A   1       0.438  -3.334  -3.622  0.00  0.00    +0.174 C 
ATOM     43  C   LIG A   1       0.390  -2.504  -4.912  0.00  0.00    +0.179 C 
ATOM     44  C   LIG A   1      -0.526  -3.579  -1.300  0.00  0.00    +0.040 C 
ATOM     45  C   LIG A   1      -1.030  -1.980  -5.180  0.00  0.00    +0.201 C 
BRANCH  43  46
ATOM     46  O   LIG A   1       0.885  -3.285  -6.006  0.00  0.00    -0.386 OA
ATOM     47  H   LIG A   1       1.652  -3.782  -5.662  0.00  0.00    +0.210 HD
ENDBRANCH  43  46
BRANCH  42  48
ATOM     48  O   LIG A   1       1.812  -3.587  -3.287  0.00  0.00    -0.387 OA
ATOM     49  H   LIG A   1       2.236  -2.733  -3.080  0.00  0.00    +0.210 HD
ENDBRANCH  42  48
BRANCH  45  50
ATOM     50  O   LIG A   1      -1.948  -3.065  -5.415  0.00  0.00    -0.384 OA
ATOM     51  H   LIG A   1      -2.221  -3.404  -4.541  0.00  0.00    +0.210 HD
ENDBRANCH  45  50
ENDBRANCH  38  39
ENDBRANCH  37  38
ENDBRANCH   3  37
TORSDOF 15
