@<TRIPOS>MOLECULE
NuBBE_2364
 51 53 0 0 0
SMALL
GASTEIGER

@<TRIPOS>ATOM
      1 C          -1.7212   -3.1008    1.6680 C.3     1  LIG1       -0.0491
      2 C          -2.1703   -1.6567    1.9887 C.3     1  LIG1        0.0684
      3 C          -3.7066   -1.6593    2.0083 C.2     1  LIG1        0.3110
      4 O          -4.2328   -2.5307    2.8925 O.3     1  LIG1       -0.4802
      5 O          -4.4570   -0.9713    1.3328 O.2     1  LIG1       -0.2504
      6 C          -1.7027   -1.2768    3.4037 C.3     1  LIG1       -0.0372
      7 C          -0.1928   -1.1322    3.5318 C.3     1  LIG1       -0.0512
      8 C           0.5250   -0.7141    2.2495 C.3     1  LIG1       -0.0433
      9 C          -0.3116    0.1603    1.2828 C.3     1  LIG1       -0.0028
     10 C          -0.6544    1.5108    1.9756 C.3     1  LIG1       -0.0552
     11 C          -1.6698   -0.5842    0.9338 C.3     1  LIG1       -0.0158
     12 H          -2.4288    0.2124    0.9107 H       1  LIG1        0.0320
     13 C          -1.6755   -1.1657   -0.4937 C.3     1  LIG1       -0.0444
     14 C          -1.3574   -0.0861   -1.5127 C.3     1  LIG1       -0.0271
     15 C           0.0249    0.4462   -1.2663 C.ar    1  LIG1       -0.0432
     16 C           0.5354    0.5431    0.0399 C.ar    1  LIG1       -0.0345
     17 C           1.8384    1.0597    0.1856 C.ar    1  LIG1       -0.0159
     18 C           2.6004    1.4535   -0.9208 C.ar    1  LIG1        0.1206
     19 O           3.8676    1.9309   -0.7264 O.3     1  LIG1       -0.5065
     20 C           2.0930    1.3789   -2.2184 C.ar    1  LIG1       -0.0031
     21 C           2.9116    1.8294   -3.4192 C.3     1  LIG1       -0.0181
     22 C           2.2455    2.9924   -4.1612 C.3     1  LIG1       -0.0585
     23 C           3.2023    0.6735   -4.3807 C.3     1  LIG1       -0.0585
     24 C           0.7925    0.8743   -2.3704 C.ar    1  LIG1       -0.0514
     25 H          -0.6436   -3.1791    1.5051 H       1  LIG1        0.0240
     26 H          -2.2266   -3.4937    0.7786 H       1  LIG1        0.0240
     27 H          -1.9702   -3.7855    2.4881 H       1  LIG1        0.0240
     28 H          -5.2007   -2.4068    2.7965 H       1  LIG1        0.2951
     29 H          -2.0415   -2.0144    4.1438 H       1  LIG1        0.0276
     30 H          -2.1905   -0.3437    3.7116 H       1  LIG1        0.0276
     31 H           0.2391   -2.0808    3.8752 H       1  LIG1        0.0266
     32 H           0.0200   -0.4069    4.3272 H       1  LIG1        0.0266
     33 H           0.8640   -1.6106    1.7152 H       1  LIG1        0.0274
     34 H           1.4475   -0.2096    2.5596 H       1  LIG1        0.0274
     35 H          -1.3217    1.3912    2.8318 H       1  LIG1        0.0238
     36 H          -1.1526    2.1952    1.2773 H       1  LIG1        0.0238
     37 H           0.2443    2.0202    2.3424 H       1  LIG1        0.0238
     38 H          -2.6593   -1.5894   -0.7266 H       1  LIG1        0.0272
     39 H          -0.9409   -1.9756   -0.5849 H       1  LIG1        0.0272
     40 H          -2.0810    0.7356   -1.4558 H       1  LIG1        0.0313
     41 H          -1.4261   -0.5213   -2.5167 H       1  LIG1        0.0313
     42 H           2.2639    1.1778    1.1770 H       1  LIG1        0.0657
     43 H           4.0794    1.8817    0.2192 H       1  LIG1        0.2921
     44 H           3.8860    2.1991   -3.0779 H       1  LIG1        0.0345
     45 H           1.2668    2.7166   -4.5679 H       1  LIG1        0.0235
     46 H           2.8706    3.3223   -4.9986 H       1  LIG1        0.0235
     47 H           2.1021    3.8493   -3.4939 H       1  LIG1        0.0235
     48 H           2.2916    0.2971   -4.8583 H       1  LIG1        0.0235
     49 H           3.6801   -0.1624   -3.8582 H       1  LIG1        0.0235
     50 H           3.8820    1.0012   -5.1757 H       1  LIG1        0.0235
     51 H           0.3612    0.8048   -3.3679 H       1  LIG1        0.0624
@<TRIPOS>BOND
     1     3     4    1
     2     3     5    2
     3     2     6    1
     4     6     7    1
     5     7     8    1
     6     8     9    1
     7     9    11    1
     8     2    11    1
     9    11    13    1
    10    13    14    1
    11    14    15    1
    12    15    16   ar
    13     9    16    1
    14    16    17   ar
    15    17    18   ar
    16    18    20   ar
    17    21    22    1
    18    21    23    1
    19    20    24   ar
    20    15    24   ar
    21     9    10    1
    22    11    12    1
    23    18    19    1
    24    20    21    1
    25     2     3    1
    26     2     1    1
    27     1    25    1
    28     1    26    1
    29     1    27    1
    30     4    28    1
    31     6    29    1
    32     6    30    1
    33     7    31    1
    34     7    32    1
    35     8    33    1
    36     8    34    1
    37    10    35    1
    38    10    36    1
    39    10    37    1
    40    13    38    1
    41    13    39    1
    42    14    40    1
    43    14    41    1
    44    17    42    1
    45    19    43    1
    46    21    44    1
    47    22    45    1
    48    22    46    1
    49    22    47    1
    50    23    48    1
    51    23    49    1
    52    23    50    1
    53    24    51    1
