REMARK  Name = NuBBE_1923
REMARK  5 active torsions:
REMARK  status: ('A' for Active; 'I' for Inactive)
REMARK    1  A    between atoms: C_1  and  C_2
REMARK    2  A    between atoms: C_2  and  C_4
REMARK    3  A    between atoms: C_2  and  C_18
REMARK    4  A    between atoms: C_11  and  C_12
REMARK    5  A    between atoms: C_14  and  C_15
REMARK                            x       y       z     vdW  Elec       q    Type
REMARK                         _______ _______ _______ _____ _____    ______ ____
ROOT
ATOM      1  C   LIG A   1       0.465   1.226   0.320  0.00  0.00    +0.003 C 
ATOM      2  C   LIG A   1      -0.314  -0.090  -0.006  0.00  0.00    +0.041 C 
ATOM      3  C   LIG A   1       0.439  -1.123  -0.876  0.00  0.00    -0.063 C 
ATOM      4  C   LIG A   1      -0.347  -2.424  -1.057  0.00  0.00    +0.035 C 
ATOM      5  C   LIG A   1      -0.859  -3.004   0.278  0.00  0.00    +0.034 C 
ATOM      6  C   LIG A   1      -1.520  -1.912   1.094  0.00  0.00    -0.076 C 
ATOM      7  C   LIG A   1      -3.010  -1.798   0.930  0.00  0.00    +0.038 C 
ATOM      8  C   LIG A   1      -0.756  -0.813   1.286  0.00  0.00    -0.020 C 
ATOM      9  C   LIG A   1       1.666  -0.884  -1.389  0.00  0.00    -0.073 C 
ATOM     10  C   LIG A   1       2.498  -1.857  -2.183  0.00  0.00    +0.039 C 
ATOM     11  C   LIG A   1       2.339   0.452  -1.206  0.00  0.00    +0.031 C 
ATOM     12  C   LIG A   1       1.375   1.584  -0.867  0.00  0.00    +0.009 C 
ENDROOT
BRANCH   1  14
ATOM     13  C   LIG A   1       0.312   3.707   1.002  0.00  0.00    +0.007 C 
ATOM     14  C   LIG A   1      -0.477   2.430   0.674  0.00  0.00    -0.013 C 
ATOM     15  C   LIG A   1      -1.424   2.148   1.846  0.00  0.00    +0.007 C 
ENDBRANCH   1  14
TORSDOF 1
