REMARK  Name = NuBBE_1553
REMARK  14 active torsions:
REMARK  status: ('A' for Active; 'I' for Inactive)
REMARK    1  A    between atoms: C_1  and  C_2
REMARK    2  A    between atoms: C_8  and  C_9
REMARK    3  A    between atoms: C_12  and  O_14
REMARK    4  A    between atoms: C_15  and  C_16
REMARK    5  A    between atoms: C_15  and  C_17
REMARK    6  A    between atoms: C_22  and  C_38
REMARK    7  A    between atoms: C_23  and  C_24
REMARK    8  A    between atoms: C_24  and  C_26
REMARK    9  A    between atoms: C_24  and  C_29
REMARK   10  A    between atoms: C_26  and  O_27
REMARK   11  A    between atoms: C_29  and  C_30
REMARK   12  A    between atoms: C_30  and  C_31
REMARK   13  A    between atoms: C_32  and  C_33
REMARK   14  A    between atoms: C_32  and  C_34
REMARK                            x       y       z     vdW  Elec       q    Type
REMARK                         _______ _______ _______ _____ _____    ______ ____
ROOT
ATOM      1  C   LIG A   1      -3.487   0.139   0.608  0.00  0.00    +0.016 C 
ATOM      2  C   LIG A   1      -2.031   0.625   0.422  0.00  0.00    -0.005 C 
ATOM      3  C   LIG A   1      -1.273  -0.505  -0.320  0.00  0.00    -0.063 C 
ATOM      4  C   LIG A   1      -0.954  -0.480  -1.629  0.00  0.00    -0.026 C 
ATOM      5  C   LIG A   1      -0.429  -1.658  -2.389  0.00  0.00    +0.031 C 
ATOM      6  C   LIG A   1      -0.937  -2.953  -1.740  0.00  0.00    +0.007 C 
ATOM      7  C   LIG A   1      -0.441  -3.027  -0.250  0.00  0.00    -0.022 C 
ATOM      8  C   LIG A   1       1.095  -3.164  -0.130  0.00  0.00    +0.012 C 
ATOM      9  C   LIG A   1      -1.101  -4.285   0.388  0.00  0.00    +0.010 C 
ATOM     10  C   LIG A   1      -0.899  -5.575  -0.419  0.00  0.00    +0.032 C 
ATOM     11  C   LIG A   1      -1.386  -5.454  -1.868  0.00  0.00    +0.120 C 
ATOM     12  C   LIG A   1      -0.771  -4.243  -2.628  0.00  0.00    -0.005 C 
ATOM     13  C   LIG A   1       0.681  -4.567  -3.037  0.00  0.00    +0.014 C 
ATOM     14  C   LIG A   1      -1.548  -4.047  -3.962  0.00  0.00    +0.014 C 
ATOM     15  C   LIG A   1      -0.949  -1.723   0.540  0.00  0.00    +0.021 C 
ATOM     16  C   LIG A   1       0.002  -1.194   1.634  0.00  0.00    +0.009 C 
ATOM     17  C   LIG A   1      -0.638  -0.102   2.503  0.00  0.00    +0.008 C 
ATOM     18  C   LIG A   1      -1.305   1.091   1.757  0.00  0.00    -0.019 C 
ATOM     19  C   LIG A   1      -0.231   2.171   1.257  0.00  0.00    +0.009 C 
ATOM     20  C   LIG A   1      -0.664   2.507  -0.192  0.00  0.00    +0.006 C 
ATOM     21  C   LIG A   1      -2.065   1.950  -0.356  0.00  0.00    +0.012 C 
ATOM     22  C   LIG A   1      -2.320   1.708   2.758  0.00  0.00    +0.012 C 
ENDROOT
BRANCH  11  23
ATOM     23  O   LIG A   1      -2.812  -5.336  -1.849  0.00  0.00    -0.391 OA
ATOM     24  H   LIG A   1      -3.171  -6.164  -1.488  0.00  0.00    +0.210 HD
ENDBRANCH  11  23
BRANCH  19  25
ATOM     25  C   LIG A   1      -0.033   3.501   2.062  0.00  0.00    +0.102 C 
BRANCH  25  26
ATOM     26  C   LIG A   1       0.394   3.306   3.499  0.00  0.00    +0.308 C 
ATOM     27  O   LIG A   1       1.164   2.461   3.934  0.00  0.00    -0.251 OA
BRANCH  26  28
ATOM     28  O   LIG A   1      -0.094   4.258   4.314  0.00  0.00    -0.480 OA
ATOM     29  H   LIG A   1       0.338   4.093   5.176  0.00  0.00    +0.295 HD
ENDBRANCH  26  28
ENDBRANCH  25  26
BRANCH  25  30
ATOM     30  C   LIG A   1       0.995   4.494   1.438  0.00  0.00    +0.019 C 
BRANCH  30  31
ATOM     31  C   LIG A   1       2.445   3.991   1.438  0.00  0.00    +0.028 C 
BRANCH  31  32
ATOM     32  C   LIG A   1       3.377   4.989   0.803  0.00  0.00    -0.028 C 
ATOM     33  C   LIG A   1       4.174   4.798  -0.266  0.00  0.00    -0.080 C 
ATOM     34  C   LIG A   1       4.282   3.517  -1.048  0.00  0.00    +0.038 C 
ATOM     35  C   LIG A   1       5.054   5.908  -0.779  0.00  0.00    +0.038 C 
ENDBRANCH  31  32
ENDBRANCH  30  31
ENDBRANCH  25  30
ENDBRANCH  19  25
TORSDOF 7
