REMARK  Name = NuBBE_561
REMARK  12 active torsions:
REMARK  status: ('A' for Active; 'I' for Inactive)
REMARK    1  A    between atoms: C_1  and  C_2
REMARK    2  A    between atoms: C_6  and  C_8
REMARK    3  A    between atoms: C_8  and  C_10
REMARK    4  A    between atoms: C_8  and  C_11
REMARK    5  A    between atoms: C_11  and  C_12
REMARK    6  A    between atoms: C_12  and  C_13
REMARK    7  A    between atoms: C_13  and  C_15
REMARK    8  A    between atoms: C_13  and  C_17
REMARK    9  A    between atoms: C_15  and  C_16
REMARK   10  A    between atoms: C_17  and  C_18
REMARK   11  A    between atoms: C_17  and  C_19
REMARK   12  A    between atoms: C_24  and  C_33
REMARK                            x       y       z     vdW  Elec       q    Type
REMARK                         _______ _______ _______ _____ _____    ______ ____
ROOT
ATOM      1  C   LIG A   1      -2.273  -0.042   1.461  0.00  0.00    +0.012 C 
ATOM      2  C   LIG A   1      -0.752   0.097   1.235  0.00  0.00    -0.026 C 
ATOM      3  C   LIG A   1      -0.016   0.079   2.613  0.00  0.00    -0.001 C 
ATOM      4  C   LIG A   1       1.377  -0.459   2.267  0.00  0.00    +0.004 C 
ATOM      5  C   LIG A   1       1.206  -1.385   1.062  0.00  0.00    +0.004 C 
ATOM      6  C   LIG A   1      -0.212  -1.174   0.474  0.00  0.00    -0.002 C 
ATOM      7  C   LIG A   1       0.046   1.439   3.392  0.00  0.00    -0.003 C 
ATOM      8  C   LIG A   1       0.434   2.646   2.480  0.00  0.00    +0.002 C 
ATOM      9  C   LIG A   1       0.434   4.027   3.231  0.00  0.00    -0.007 C 
ATOM     10  C   LIG A   1      -0.926   4.192   3.895  0.00  0.00    -0.060 C 
ATOM     11  C   LIG A   1      -1.307   3.091   4.857  0.00  0.00    +0.032 C 
ATOM     12  C   LIG A   1      -1.264   1.721   4.169  0.00  0.00    +0.008 C 
ATOM     13  C   LIG A   1      -1.796   5.175   3.595  0.00  0.00    +0.046 C 
ATOM     14  C   LIG A   1      -1.531   6.152   2.522  0.00  0.00    +0.156 C 
ATOM     15  C   LIG A   1      -0.379   5.913   1.591  0.00  0.00    +0.080 C 
ATOM     16  C   LIG A   1       0.784   5.226   2.289  0.00  0.00    +0.019 C 
ATOM     17  O   LIG A   1      -2.329   7.087   2.348  0.00  0.00    -0.293 OA
ATOM     18  C   LIG A   1       1.560   4.024   4.303  0.00  0.00    +0.016 C 
ATOM     19  C   LIG A   1      -0.475   2.661   1.248  0.00  0.00    +0.005 C 
ATOM     20  C   LIG A   1      -0.394   1.372   0.460  0.00  0.00    +0.007 C 
ENDROOT
BRANCH   6  21
ATOM     21  C   LIG A   1      -0.191  -1.174  -1.118  0.00  0.00    -0.010 C 
ATOM     22  C   LIG A   1      -1.525  -0.814  -1.792  0.00  0.00    +0.008 C 
BRANCH  21  23
ATOM     23  C   LIG A   1       0.310  -2.550  -1.678  0.00  0.00    +0.004 C 
BRANCH  23  24
ATOM     24  C   LIG A   1       0.328  -2.693  -3.227  0.00  0.00    +0.004 C 
BRANCH  24  25
ATOM     25  C   LIG A   1       0.898  -4.053  -3.762  0.00  0.00    -0.009 C 
BRANCH  25  26
ATOM     26  C   LIG A   1       1.218  -4.027  -5.301  0.00  0.00    -0.014 C 
ATOM     27  C   LIG A   1       0.050  -3.612  -6.198  0.00  0.00    +0.007 C 
ATOM     28  C   LIG A   1       2.449  -3.174  -5.642  0.00  0.00    +0.007 C 
ENDBRANCH  25  26
BRANCH  25  29
ATOM     29  C   LIG A   1      -0.028  -5.241  -3.359  0.00  0.00    +0.000 C 
ATOM     30  C   LIG A   1       0.391  -6.620  -3.872  0.00  0.00    +0.004 C 
ENDBRANCH  25  29
ENDBRANCH  24  25
ENDBRANCH  23  24
ENDBRANCH  21  23
ENDBRANCH   6  21
TORSDOF 6
