@<TRIPOS>MOLECULE
NuBBE_2052
 25 26 0 0 0
SMALL
GASTEIGER

@<TRIPOS>ATOM
      1 O          -3.2015    0.5184   -0.2259 O.3     1  LIG1       -0.5043
      2 C          -1.8311    0.6360   -0.2536 C.ar    1  LIG1        0.1532
      3 C          -0.9893   -0.4888   -0.1709 C.ar    1  LIG1        0.1096
      4 C           0.4006   -0.3322   -0.2130 C.ar    1  LIG1       -0.0008
      5 C           0.9492    0.9489   -0.3247 C.ar    1  LIG1       -0.0102
      6 C           0.1154    2.0693   -0.3816 C.ar    1  LIG1        0.1425
      7 C          -1.2776    1.9200   -0.3724 C.ar    1  LIG1        0.1246
      8 CL         -2.3125    3.2986   -0.5389 Cl      1  LIG1       -0.0759
      9 O           0.7413    3.2810   -0.5240 O.3     1  LIG1       -0.4935
     10 C           0.7244    4.0257    0.6961 C.3     1  LIG1        0.0789
     11 C           1.2676   -1.4990   -0.1455 C.ar    1  LIG1       -0.0156
     12 C           0.7135   -2.7117   -0.0376 C.ar    1  LIG1        0.1067
     13 O          -0.6854   -2.8977    0.0143 O.2     1  LIG1       -0.4270
     14 C          -1.5580   -1.8511   -0.0484 C.ar    1  LIG1        0.3483
     15 O          -2.7754   -2.0076   -0.0053 O.2     1  LIG1       -0.2444
     16 C           1.4975   -3.9827    0.0368 C.3     1  LIG1       -0.0062
     17 H          -3.4526   -0.4288   -0.1448 H       1  LIG1        0.2922
     18 H           2.0269    1.0917   -0.3695 H       1  LIG1        0.0661
     19 H           1.6649    4.5812    0.7608 H       1  LIG1        0.0660
     20 H           0.6445    3.3910    1.5867 H       1  LIG1        0.0660
     21 H          -0.0934    4.7515    0.6784 H       1  LIG1        0.0660
     22 H           2.3437   -1.3650   -0.1865 H       1  LIG1        0.0657
     23 H           2.5764   -3.8026   -0.0080 H       1  LIG1        0.0308
     24 H           1.2301   -4.6405   -0.7963 H       1  LIG1        0.0308
     25 H           1.2810   -4.5055    0.9738 H       1  LIG1        0.0308
@<TRIPOS>BOND
     1     1     2    1
     2     2     3   ar
     3     3     4   ar
     4     4     5   ar
     5     5     6   ar
     6     6     7   ar
     7     2     7   ar
     8     7     8    1
     9     6     9    1
    10     9    10    1
    11     4    11   ar
    12    11    12   ar
    13    12    13   ar
    14    13    14   ar
    15     3    14   ar
    16    14    15    2
    17    12    16    1
    18     1    17    1
    19     5    18    1
    20    10    19    1
    21    10    20    1
    22    10    21    1
    23    11    22    1
    24    16    23    1
    25    16    24    1
    26    16    25    1
