@<TRIPOS>MOLECULE
NuBBE_1313
 30 33 0 0 0
SMALL
GASTEIGER

@<TRIPOS>ATOM
      1 O          -3.8066    0.2521    0.1609 O.2     1  LIG1       -0.2870
      2 C          -2.5839    0.2472    0.1079 C.ar    1  LIG1        0.1931
      3 C          -1.8341   -1.0178    0.0804 C.ar    1  LIG1        0.0287
      4 C          -0.4955   -0.9875    0.0133 C.ar    1  LIG1        0.1392
      5 C           0.3068   -2.2262   -0.0069 C.ar    1  LIG1        0.0174
      6 C           1.4760   -2.3163    0.7637 C.ar    1  LIG1       -0.0511
      7 C           2.2539   -3.4768    0.7502 C.ar    1  LIG1       -0.0611
      8 C           1.8765   -4.5601   -0.0396 C.ar    1  LIG1       -0.0617
      9 C           0.7242   -4.4831   -0.8185 C.ar    1  LIG1       -0.0611
     10 C          -0.0547   -3.3227   -0.8049 C.ar    1  LIG1       -0.0511
     11 O           0.2576    0.1749   -0.0159 O.2     1  LIG1       -0.4539
     12 C          -1.7926    1.4874    0.0673 C.ar    1  LIG1        0.0648
     13 C          -0.3967    1.3839    0.0063 C.ar    1  LIG1        0.1500
     14 C           0.3599    2.5703   -0.0320 C.ar    1  LIG1        0.0630
     15 C           1.7424    2.8973   -0.0954 C.ar    1  LIG1       -0.0126
     16 C           1.8183    4.2709   -0.1036 C.ar    1  LIG1        0.0932
     17 O           0.5764    4.8187   -0.0497 O.2     1  LIG1       -0.4628
     18 C          -0.3120    3.7879   -0.0068 C.ar    1  LIG1        0.1383
     19 C          -1.6979    3.9198    0.0539 C.ar    1  LIG1       -0.0179
     20 C          -2.4361    2.7324    0.0907 C.ar    1  LIG1       -0.0439
     21 H          -2.4182   -1.9277    0.1274 H       1  LIG1        0.0693
     22 H           1.7880   -1.4826    1.3895 H       1  LIG1        0.0625
     23 H           3.1545   -3.5333    1.3563 H       1  LIG1        0.0618
     24 H           2.4822   -5.4627   -0.0512 H       1  LIG1        0.0618
     25 H           0.4327   -5.3250   -1.4415 H       1  LIG1        0.0618
     26 H          -0.9396   -3.2834   -1.4362 H       1  LIG1        0.0625
     27 H           2.5766    2.2111   -0.1319 H       1  LIG1        0.0656
     28 H           2.6372    4.9759   -0.1434 H       1  LIG1        0.1030
     29 H          -2.1722    4.8940    0.0711 H       1  LIG1        0.0655
     30 H          -3.5232    2.7816    0.1385 H       1  LIG1        0.0627
@<TRIPOS>BOND
     1     1     2    2
     2     2     3   ar
     3     3     4   ar
     4     4     5    1
     5     5     6   ar
     6     6     7   ar
     7     7     8   ar
     8     8     9   ar
     9     9    10   ar
    10     5    10   ar
    11     4    11   ar
    12     2    12   ar
    13    12    13   ar
    14    11    13   ar
    15    13    14   ar
    16    14    15   ar
    17    15    16   ar
    18    16    17   ar
    19    14    18   ar
    20    17    18   ar
    21    18    19   ar
    22    19    20   ar
    23    12    20   ar
    24     3    21    1
    25     6    22    1
    26     7    23    1
    27     8    24    1
    28     9    25    1
    29    10    26    1
    30    15    27    1
    31    16    28    1
    32    19    29    1
    33    20    30    1
