@<TRIPOS>MOLECULE
NuBBE_959
 82 86 0 0 0
SMALL
GASTEIGER

@<TRIPOS>ATOM
      1 C          -1.4165    0.8086   -1.8697 C.3     1  LIG1       -0.0520
      2 C          -0.2929    0.3619   -0.9018 C.3     1  LIG1        0.0373
      3 C          -1.0084   -0.3916    0.2762 C.3     1  LIG1       -0.0072
      4 H          -1.3517   -1.3635   -0.1381 H       1  LIG1        0.0355
      5 C          -0.0086   -0.9151    1.2657 C.2     1  LIG1       -0.0644
      6 C           1.1957   -1.3106    0.7200 C.2     1  LIG1       -0.0705
      7 C           1.8065   -1.1476   -0.8566 C.3     1  LIG1        0.0739
      8 H           2.6286   -0.7501   -0.2545 H       1  LIG1        0.0457
      9 C           0.4315   -0.9203   -1.3511 C.2     1  LIG1        0.1503
     10 O          -0.1561   -1.8690   -1.8875 O.2     1  LIG1       -0.2960
     11 C           2.3896   -0.0403   -1.9892 C.3     1  LIG1        0.1213
     12 H           3.4861   -0.0611   -1.8075 H       1  LIG1        0.0749
     13 C           1.9608    1.4930   -1.8430 C.3     1  LIG1        0.0074
     14 C           0.8236    1.5914   -0.7067 C.3     1  LIG1       -0.0098
     15 H           0.2607    2.5117   -0.9128 H       1  LIG1        0.0322
     16 C           1.3968    1.8257    0.7397 C.3     1  LIG1        0.0493
     17 C           2.0815    3.1649    1.0822 C.2     1  LIG1        0.3071
     18 O           1.4649    4.1701    1.4445 O.2     1  LIG1       -0.2509
     19 O           3.4352    3.1085    0.9758 O.3     1  LIG1       -0.4679
     20 C           4.1527    4.3593    0.9826 C.3     1  LIG1        0.0817
     21 C           3.2694    2.3054   -1.5916 C.3     1  LIG1       -0.0561
     22 C           1.5069    2.2798   -3.1192 C.3     1  LIG1       -0.0561
     23 O           2.4055   -0.5643   -3.3652 O.3     1  LIG1       -0.4596
     24 C           1.2714   -0.5796   -4.1393 C.2     1  LIG1        0.3102
     25 O           0.1748   -0.1049   -3.7358 O.2     1  LIG1       -0.2505
     26 C           1.2960   -1.0911   -5.5039 C.3     1  LIG1        0.0534
     27 H           0.3300   -0.7088   -5.9282 H       1  LIG1        0.0410
     28 C           1.2311   -2.5915   -5.5002 C.3     1  LIG1       -0.0432
     29 C           0.0649   -3.2051   -4.7239 C.3     1  LIG1       -0.0645
     30 C           2.3897   -0.4007   -6.2473 C.3     1  LIG1       -0.0523
     31 C          -0.5068   -1.0218    2.7442 C.3     1  LIG1       -0.0005
     32 H           0.0707   -0.2467    3.2691 H       1  LIG1        0.0357
     33 C          -2.0688   -0.7042    3.0988 C.3     1  LIG1        0.0163
     34 C          -2.9209   -0.8650    1.8299 C.3     1  LIG1       -0.0428
     35 C          -2.4015    0.0432    0.7107 C.3     1  LIG1       -0.0450
     36 C          -2.2940    0.7552    3.5858 C.3     1  LIG1       -0.0553
     37 C          -2.5816   -1.6641    4.2533 C.3     1  LIG1        0.1368
     38 H          -2.7666   -2.6689    3.8479 H       1  LIG1        0.0792
     39 O          -1.5432   -1.8013    5.2520 O.3     1  LIG1       -0.4559
     40 C          -0.3162   -2.2139    4.8635 C.2     1  LIG1        0.3083
     41 O           0.5892   -2.4068    5.6654 O.2     1  LIG1       -0.2508
     42 C          -0.1413   -2.3699    3.3803 C.3     1  LIG1        0.0521
     43 C          -3.8669   -1.2623    4.9710 C.ar    1  LIG1        0.0310
     44 C          -3.9875   -0.4786    6.1690 C.ar    1  LIG1       -0.0172
     45 C          -5.3215   -0.4401    6.4989 C.ar    1  LIG1        0.0921
     46 O          -6.0455   -1.1268    5.5820 O.2     1  LIG1       -0.4706
     47 C          -5.1689   -1.6169    4.6647 C.ar    1  LIG1        0.0984
     48 H          -2.0225   -0.0488   -2.1991 H       1  LIG1        0.0239
     49 H          -1.0817    1.3105   -2.7723 H       1  LIG1        0.0239
     50 H          -2.0685    1.5446   -1.4041 H       1  LIG1        0.0239
     51 H           1.9209   -1.8140    1.3649 H       1  LIG1        0.0580
     52 H           2.0888    1.0397    1.0489 H       1  LIG1        0.0381
     53 H           0.5486    1.7907    1.4338 H       1  LIG1        0.0381
     54 H           3.5510    5.1898    0.5982 H       1  LIG1        0.0661
     55 H           5.0296    4.2678    0.3269 H       1  LIG1        0.0661
     56 H           4.5038    4.5661    1.9948 H       1  LIG1        0.0661
     57 H           3.8864    1.8841   -0.7993 H       1  LIG1        0.0236
     58 H           3.0402    3.3632   -1.4050 H       1  LIG1        0.0236
     59 H           3.9260    2.3149   -2.4750 H       1  LIG1        0.0236
     60 H           1.3178    3.3319   -2.8586 H       1  LIG1        0.0236
     61 H           0.5911    1.9737   -3.5990 H       1  LIG1        0.0236
     62 H           2.2842    2.2819   -3.8951 H       1  LIG1        0.0236
     63 H           2.1649   -2.9935   -5.0954 H       1  LIG1        0.0270
     64 H           1.1386   -2.9167   -6.5408 H       1  LIG1        0.0270
     65 H           0.1717   -3.0227   -3.6603 H       1  LIG1        0.0230
     66 H           0.0582   -4.2930   -4.8319 H       1  LIG1        0.0230
     67 H          -0.9080   -2.8162   -5.0437 H       1  LIG1        0.0230
     68 H           3.3703   -0.6958   -5.8653 H       1  LIG1        0.0238
     69 H           2.3139    0.6916   -6.1436 H       1  LIG1        0.0238
     70 H           2.3220   -0.6410   -7.3089 H       1  LIG1        0.0238
     71 H          -3.9725   -0.6178    2.0150 H       1  LIG1        0.0272
     72 H          -2.9109   -1.9145    1.5021 H       1  LIG1        0.0272
     73 H          -2.4221    1.1048    0.9549 H       1  LIG1        0.0271
     74 H          -3.0968   -0.0937   -0.1299 H       1  LIG1        0.0271
     75 H          -1.8613    1.5123    2.9302 H       1  LIG1        0.0237
     76 H          -1.8992    0.9168    4.5916 H       1  LIG1        0.0237
     77 H          -3.3749    0.9686    3.6245 H       1  LIG1        0.0237
     78 H          -0.7588   -3.2017    3.0212 H       1  LIG1        0.0384
     79 H           0.9007   -2.6522    3.2000 H       1  LIG1        0.0384
     80 H          -3.1904   -0.0123    6.7327 H       1  LIG1        0.0653
     81 H          -5.8843    0.0046    7.3102 H       1  LIG1        0.1029
     82 H          -5.6256   -2.1997    3.8773 H       1  LIG1        0.1033
@<TRIPOS>BOND
     1     1     2    1
     2     2     3    1
     3     3     4    1
     4     3     5    1
     5     5     6    2
     6     6     7    1
     7     7     8    1
     8     7     9    1
     9     2     9    1
    10     9    10    2
    11     7    11    1
    12    11    13    1
    13    13    14    1
    14    14    15    1
    15     2    14    1
    16    14    16    1
    17    16    17    1
    18    17    18    2
    19    17    19    1
    20    19    20    1
    21    13    21    1
    22    13    22    1
    23    23    24    1
    24    24    25    2
    25    26    28    1
    26    28    29    1
    27    26    30    1
    28     5    31    1
    29    31    32    1
    30    31    33    1
    31    33    34    1
    32    34    35    1
    33     3    35    1
    34    33    36    1
    35    33    37    1
    36    37    38    1
    37    37    39    1
    38    39    40    1
    39    40    41    2
    40    40    42    1
    41    31    42    1
    42    37    43    1
    43    43    44   ar
    44    44    45   ar
    45    45    46   ar
    46    46    47   ar
    47    43    47   ar
    48    11    23    1
    49    11    12    1
    50    26    27    1
    51    26    24    1
    52     1    48    1
    53     1    49    1
    54     1    50    1
    55     6    51    1
    56    16    52    1
    57    16    53    1
    58    20    54    1
    59    20    55    1
    60    20    56    1
    61    21    57    1
    62    21    58    1
    63    21    59    1
    64    22    60    1
    65    22    61    1
    66    22    62    1
    67    28    63    1
    68    28    64    1
    69    29    65    1
    70    29    66    1
    71    29    67    1
    72    30    68    1
    73    30    69    1
    74    30    70    1
    75    34    71    1
    76    34    72    1
    77    35    73    1
    78    35    74    1
    79    36    75    1
    80    36    76    1
    81    36    77    1
    82    42    78    1
    83    42    79    1
    84    44    80    1
    85    45    81    1
    86    47    82    1
