@<TRIPOS>MOLECULE
NuBBE_1902
 26 26 0 0 0
SMALL
GASTEIGER

@<TRIPOS>ATOM
      1 C          -2.0966    0.3315   -0.0058 C.3     1  LIG1       -0.0253
      2 C          -2.5780   -0.0083   -1.4182 C.3     1  LIG1       -0.0589
      3 C          -2.7556   -0.5856    1.0268 C.3     1  LIG1       -0.0589
      4 C          -0.5802    0.3067    0.0913 C.2     1  LIG1       -0.0667
      5 C           0.1252    1.4368    0.2827 C.2     1  LIG1       -0.0623
      6 C           1.5616    1.4345    0.4174 C.2     1  LIG1       -0.0628
      7 C           2.2986    0.3467    0.1397 C.2     1  LIG1       -0.0723
      8 C           1.6418   -0.9375   -0.3025 C.3     1  LIG1       -0.0280
      9 C           0.1335   -1.0263    0.0003 C.3     1  LIG1       -0.0275
     10 C           3.7949    0.3427    0.2243 C.3     1  LIG1       -0.0435
     11 H          -2.4452    1.3508    0.2108 H       1  LIG1        0.0340
     12 H          -2.3584   -1.0465   -1.6880 H       1  LIG1        0.0235
     13 H          -2.1054    0.6428   -2.1619 H       1  LIG1        0.0235
     14 H          -3.6620    0.1301   -1.4965 H       1  LIG1        0.0235
     15 H          -2.5382   -1.6414    0.8318 H       1  LIG1        0.0235
     16 H          -3.8442   -0.4638    1.0085 H       1  LIG1        0.0235
     17 H          -2.4110   -0.3488    2.0394 H       1  LIG1        0.0235
     18 H          -0.3682    2.4017    0.3639 H       1  LIG1        0.0617
     19 H           2.0273    2.3667    0.7255 H       1  LIG1        0.0617
     20 H           2.1374   -1.7940    0.1711 H       1  LIG1        0.0313
     21 H           1.7980   -1.0440   -1.3839 H       1  LIG1        0.0313
     22 H          -0.0017   -1.5489    0.9563 H       1  LIG1        0.0313
     23 H          -0.3265   -1.6582   -0.7675 H       1  LIG1        0.0313
     24 H           4.1921    1.3180    0.5245 H       1  LIG1        0.0274
     25 H           4.2291    0.0901   -0.7484 H       1  LIG1        0.0274
     26 H           4.1320   -0.3959    0.9586 H       1  LIG1        0.0274
@<TRIPOS>BOND
     1     1     2    1
     2     1     3    1
     3     1     4    1
     4     4     5    2
     5     5     6    1
     6     6     7    2
     7     7     8    1
     8     8     9    1
     9     4     9    1
    10     7    10    1
    11     1    11    1
    12     2    12    1
    13     2    13    1
    14     2    14    1
    15     3    15    1
    16     3    16    1
    17     3    17    1
    18     5    18    1
    19     6    19    1
    20     8    20    1
    21     8    21    1
    22     9    22    1
    23     9    23    1
    24    10    24    1
    25    10    25    1
    26    10    26    1
