@<TRIPOS>MOLECULE
NuBBE_2324
 50 53 0 0 0
SMALL
GASTEIGER

@<TRIPOS>ATOM
      1 C           0.8542    0.1253    0.9831 C.3     1  LIG1       -0.0255
      2 H           1.4517   -0.7429    0.6916 H       1  LIG1        0.0311
      3 C           0.4518    0.9728   -0.2726 C.3     1  LIG1        0.0219
      4 H           0.9337    1.9582   -0.2176 H       1  LIG1        0.0381
      5 C          -1.1109    1.1511   -0.1174 C.3     1  LIG1        0.1348
      6 C          -1.5418   -0.2076    0.4666 C.3     1  LIG1        0.0941
      7 C          -0.4991   -0.3976    1.6012 C.3     1  LIG1        0.0129
      8 C          -0.9902    0.4759    2.7726 C.3     1  LIG1        0.0172
      9 C          -1.1086    1.9283    2.3753 C.2     1  LIG1        0.1651
     10 O          -1.0186    2.8239    3.2109 O.2     1  LIG1       -0.2945
     11 C          -1.4757    2.2590    0.9320 C.3     1  LIG1        0.1447
     12 H          -2.5567    2.3964    0.9633 H       1  LIG1        0.0703
     13 O          -0.9124    3.5220    0.5767 O.3     1  LIG1       -0.3813
     14 C          -0.4034   -1.8843    2.0297 C.3     1  LIG1       -0.0262
     15 C           0.5843   -2.1492    3.1336 C.2     1  LIG1       -0.0905
     16 C           0.2638   -2.1883    4.4330 C.2     1  LIG1       -0.1026
     17 O          -1.5196   -1.2437   -0.5025 O.3     1  LIG1       -0.3882
     18 O          -1.7275    1.3951   -1.3978 O.3     1  LIG1       -0.3704
     19 C          -3.1392    1.5853   -1.4040 C.3     1  LIG1        0.0374
     20 C           0.9546    0.3409   -1.5885 C.ar    1  LIG1       -0.0374
     21 C           1.3068    1.1744   -2.6794 C.ar    1  LIG1       -0.0545
     22 C           1.7667    0.6401   -3.8974 C.ar    1  LIG1       -0.0159
     23 C           1.8692   -0.7291   -4.0095 C.ar    1  LIG1        0.1662
     24 C           1.5494   -1.5498   -2.9623 C.ar    1  LIG1        0.1665
     25 C           1.0975   -1.0511   -1.7595 C.ar    1  LIG1       -0.0126
     26 O           1.7171   -2.8676   -3.2518 O.3     1  LIG1       -0.4526
     27 C           2.1227   -2.7855   -4.6313 C.3     1  LIG1        0.2332
     28 O           2.2684   -1.4284   -5.1059 O.3     1  LIG1       -0.4526
     29 C           1.7998    0.8988    1.9110 C.3     1  LIG1       -0.0612
     30 H          -2.5682   -0.1828    0.8488 H       1  LIG1        0.0629
     31 H          -0.3091    0.4265    3.6272 H       1  LIG1        0.0349
     32 H          -1.9783    0.1448    3.1133 H       1  LIG1        0.0349
     33 H          -1.0269    4.0984    1.3599 H       1  LIG1        0.2105
     34 H          -1.3961   -2.2468    2.3267 H       1  LIG1        0.0314
     35 H          -0.1079   -2.5091    1.1764 H       1  LIG1        0.0314
     36 H           1.6178   -2.3259    2.8391 H       1  LIG1        0.0566
     37 H          -0.7511   -2.0103    4.7749 H       1  LIG1        0.0532
     38 H           1.0216   -2.3736    5.1880 H       1  LIG1        0.0532
     39 H          -1.6657   -0.8209   -1.3754 H       1  LIG1        0.2099
     40 H          -3.4224    2.5134   -0.9002 H       1  LIG1        0.0524
     41 H          -3.6579    0.7361   -0.9509 H       1  LIG1        0.0524
     42 H          -3.4707    1.6710   -2.4419 H       1  LIG1        0.0524
     43 H           1.2206    2.2563   -2.5868 H       1  LIG1        0.0622
     44 H           2.0280    1.2839   -4.7300 H       1  LIG1        0.0655
     45 H           0.8468   -1.7673   -0.9860 H       1  LIG1        0.0658
     46 H           1.3692   -3.2969   -5.2426 H       1  LIG1        0.1166
     47 H           3.0796   -3.3070   -4.7476 H       1  LIG1        0.1166
     48 H           1.4185    1.8835    2.1897 H       1  LIG1        0.0233
     49 H           2.7585    1.0669    1.4078 H       1  LIG1        0.0233
     50 H           2.0056    0.3377    2.8267 H       1  LIG1        0.0233
@<TRIPOS>BOND
     1     1     3    1
     2     3     5    1
     3     5     6    1
     4     6     7    1
     5     1     7    1
     6     7     8    1
     7     8     9    1
     8     9    11    1
     9     5    11    1
    10    14    15    1
    11    15    16    2
    12    18    19    1
    13    20    21   ar
    14    21    22   ar
    15    22    23   ar
    16    23    24   ar
    17    24    25   ar
    18    20    25   ar
    19    24    26    1
    20    26    27    1
    21    27    28    1
    22    23    28    1
    23     5    18    1
    24     6    17    1
    25     7    14    1
    26     9    10    2
    27    11    12    1
    28    11    13    1
    29     3    20    1
    30     3     4    1
    31     1    29    1
    32     1     2    1
    33     6    30    1
    34     8    31    1
    35     8    32    1
    36    13    33    1
    37    14    34    1
    38    14    35    1
    39    15    36    1
    40    16    37    1
    41    16    38    1
    42    17    39    1
    43    19    40    1
    44    19    41    1
    45    19    42    1
    46    21    43    1
    47    22    44    1
    48    25    45    1
    49    27    46    1
    50    27    47    1
    51    29    48    1
    52    29    49    1
    53    29    50    1
