REMARK  Name = NuBBE_849
REMARK  2 active torsions:
REMARK  status: ('A' for Active; 'I' for Inactive)
REMARK    1  A    between atoms: CA_5  and  CB_7
REMARK    2  A    between atoms: CB_7  and  CG_8
REMARK                            x       y       z     vdW  Elec       q    Type
REMARK                         _______ _______ _______ _____ _____    ______ ____
ROOT
ATOM      1  CA  PRO A   2      -0.840   2.269  -0.793  0.00  0.00    +0.162 C 
ATOM      2  C   PRO A   2      -0.464   1.012  -1.573  0.00  0.00    +0.234 C 
ATOM      3  N   PHE A   1      -0.980  -0.138  -1.007  0.00  0.00    -0.302 N 
ATOM      4  CA  PHE A   1      -0.944  -0.332   0.451  0.00  0.00    +0.163 C 
ATOM      5  O   PRO A   2      -0.005   1.010  -2.709  0.00  0.00    -0.274 OA
ATOM      6  CB  PRO A   2       0.020   3.496  -1.042  0.00  0.00    +0.033 C 
ATOM      7  CG  PRO A   2      -0.307   4.367   0.175  0.00  0.00    +0.021 C 
ATOM      8  CD  PRO A   2      -0.539   3.369   1.310  0.00  0.00    +0.109 C 
ATOM      9  N   PRO A   2      -0.738   2.099   0.643  0.00  0.00    -0.288 N 
ATOM     10  C   PHE A   1      -1.192   0.958   1.270  0.00  0.00    +0.237 C 
ATOM     11  O   PHE A   1      -1.503   0.929   2.459  0.00  0.00    -0.274 OA
ATOM     12  H   PHE A   1      -0.820  -0.966  -1.570  0.00  0.00    +0.149 HD
ENDROOT
BRANCH   4  13
ATOM     13  CB  PHE A   1       0.419  -0.891   0.909  0.00  0.00    +0.067 C 
BRANCH  13  14
ATOM     14  CG  PHE A   1       0.695  -2.281   0.387  0.00  0.00    -0.045 A 
ATOM     15  CD1 PHE A   1       1.461  -2.467  -0.772  0.00  0.00    +0.003 A 
ATOM     16  CE1 PHE A   1       1.703  -3.752  -1.259  0.00  0.00    +0.000 A 
ATOM     17  CZ  PHE A   1       1.184  -4.861  -0.593  0.00  0.00    +0.000 A 
ATOM     18  CE2 PHE A   1       0.421  -4.686   0.560  0.00  0.00    +0.000 A 
ATOM     19  CD2 PHE A   1       0.174  -3.402   1.047  0.00  0.00    +0.003 A 
ENDBRANCH  13  14
ENDBRANCH   4  13
TORSDOF 2
