@<TRIPOS>MOLECULE
NuBBE_2219
 52 53 0 0 0
SMALL
GASTEIGER

@<TRIPOS>ATOM
      1 O          -1.3918    0.6815   -0.3786 O.3     1  LIG1       -0.4825
      2 C          -0.5129   -0.4508   -0.4790 C.3     1  LIG1        0.1274
      3 H           0.4153   -0.2392    0.0487 H       1  LIG1        0.0760
      4 C          -0.1393   -0.6644   -1.9766 C.3     1  LIG1        0.1167
      5 H          -1.0271   -0.8790   -2.5838 H       1  LIG1        0.0681
      6 O           0.4169    0.5557   -2.4941 O.3     1  LIG1       -0.3835
      7 C           0.9182   -1.7360   -2.1509 C.ar    1  LIG1       -0.0120
      8 C           0.7113   -2.8667   -2.9541 C.ar    1  LIG1       -0.0106
      9 C           1.7143   -3.8400   -3.0868 C.ar    1  LIG1        0.1618
     10 O           1.5098   -4.8063   -4.0397 O.3     1  LIG1       -0.4914
     11 C           1.2100   -6.0897   -3.5003 C.3     1  LIG1        0.0790
     12 C           2.9333   -3.7117   -2.4002 C.ar    1  LIG1        0.1615
     13 C           3.1429   -2.5715   -1.6209 C.ar    1  LIG1       -0.0160
     14 C           2.1566   -1.5941   -1.5112 C.ar    1  LIG1       -0.0523
     15 O           3.8880   -4.6799   -2.5850 O.3     1  LIG1       -0.4915
     16 C           4.8707   -4.7790   -1.5553 C.3     1  LIG1        0.0790
     17 C          -1.1800   -1.6788    0.1389 C.3     1  LIG1       -0.0250
     18 C          -1.3683    1.4634    0.7566 C.ar    1  LIG1        0.1625
     19 C          -2.4371    2.3715    0.8866 C.ar    1  LIG1        0.1621
     20 O          -3.4223    2.2725   -0.0664 O.3     1  LIG1       -0.4914
     21 C          -4.1248    3.4667   -0.3747 C.3     1  LIG1        0.0790
     22 C          -2.4930    3.2557    1.9752 C.ar    1  LIG1       -0.0092
     23 C          -1.4792    3.2598    2.9431 C.ar    1  LIG1       -0.0216
     24 C          -0.4256    2.3507    2.8208 C.ar    1  LIG1       -0.0509
     25 C          -0.3714    1.4586    1.7387 C.ar    1  LIG1       -0.0157
     26 C          -1.5252    4.2022    4.0635 C.2     1  LIG1       -0.0587
     27 C          -0.9480    5.4227    4.0003 C.2     1  LIG1       -0.0865
     28 C          -0.9775    6.4214    5.1114 C.3     1  LIG1       -0.0465
     29 H          -0.1751    1.2665   -2.1841 H       1  LIG1        0.2104
     30 H          -0.2149   -2.9873   -3.5104 H       1  LIG1        0.0659
     31 H           0.1504   -6.3032   -3.6795 H       1  LIG1        0.0660
     32 H           1.4221   -6.1940   -2.4314 H       1  LIG1        0.0660
     33 H           1.7940   -6.8345   -4.0513 H       1  LIG1        0.0660
     34 H           4.0830   -2.3743   -1.1195 H       1  LIG1        0.0655
     35 H           2.3764   -0.6948   -0.9389 H       1  LIG1        0.0622
     36 H           5.5672   -5.5781   -1.8232 H       1  LIG1        0.0660
     37 H           4.4006   -5.0412   -0.6008 H       1  LIG1        0.0660
     38 H           5.4677   -3.8662   -1.4574 H       1  LIG1        0.0660
     39 H          -0.4174   -2.3702    0.5115 H       1  LIG1        0.0266
     40 H          -1.7949   -2.2230   -0.5865 H       1  LIG1        0.0266
     41 H          -1.8316   -1.4062    0.9752 H       1  LIG1        0.0266
     42 H          -3.4357    4.2762   -0.6370 H       1  LIG1        0.0660
     43 H          -4.7913    3.7599    0.4412 H       1  LIG1        0.0660
     44 H          -4.7487    3.2598   -1.2498 H       1  LIG1        0.0660
     45 H          -3.3293    3.9348    2.1022 H       1  LIG1        0.0661
     46 H           0.3675    2.3306    3.5659 H       1  LIG1        0.0625
     47 H           0.4807    0.7900    1.7058 H       1  LIG1        0.0655
     48 H          -2.0546    3.8758    4.9520 H       1  LIG1        0.0620
     49 H          -0.4243    5.7263    3.1004 H       1  LIG1        0.0569
     50 H          -1.5452    6.0608    5.9814 H       1  LIG1        0.0272
     51 H          -1.4472    7.3482    4.7686 H       1  LIG1        0.0272
     52 H           0.0369    6.6490    5.4397 H       1  LIG1        0.0272
@<TRIPOS>BOND
     1     2     4    1
     2     4     5    1
     3     4     6    1
     4     4     7    1
     5     7     8   ar
     6     8     9   ar
     7     9    10    1
     8    10    11    1
     9     9    12   ar
    10    12    13   ar
    11    13    14   ar
    12     7    14   ar
    13    12    15    1
    14    15    16    1
    15     2    17    1
    16     1    18    1
    17    18    19   ar
    18    19    20    1
    19    20    21    1
    20    19    22   ar
    21    22    23   ar
    22    23    24   ar
    23    24    25   ar
    24    18    25   ar
    25    23    26    1
    26    26    27    2
    27    27    28    1
    28     2     3    1
    29     2     1    1
    30     6    29    1
    31     8    30    1
    32    11    31    1
    33    11    32    1
    34    11    33    1
    35    13    34    1
    36    14    35    1
    37    16    36    1
    38    16    37    1
    39    16    38    1
    40    17    39    1
    41    17    40    1
    42    17    41    1
    43    21    42    1
    44    21    43    1
    45    21    44    1
    46    22    45    1
    47    24    46    1
    48    25    47    1
    49    26    48    1
    50    27    49    1
    51    28    50    1
    52    28    51    1
    53    28    52    1
