REMARK  Name = NuBBE_1980
REMARK  6 active torsions:
REMARK  status: ('A' for Active; 'I' for Inactive)
REMARK    1  A    between atoms: S_1  and  S_2
REMARK    2  A    between atoms: S_1  and  S_6
REMARK    3  A    between atoms: S_2  and  C_3
REMARK    4  A    between atoms: C_3  and  C_4
REMARK    5  A    between atoms: S_6  and  C_7
REMARK    6  A    between atoms: C_7  and  C_8
REMARK                            x       y       z     vdW  Elec       q    Type
REMARK                         _______ _______ _______ _____ _____    ______ ____
ROOT
ATOM      1  S   LIG A   1      -1.689   1.280  -1.019  0.00  0.00    -0.024 S 
ENDROOT
BRANCH   1   2
ATOM      2  S   LIG A   1      -1.449  -0.390   0.161  0.00  0.00    -0.078 S 
BRANCH   2   3
ATOM      3  C   LIG A   1      -0.993   0.382   1.733  0.00  0.00    +0.108 C 
BRANCH   3   4
ATOM      4  C   LIG A   1      -0.727  -0.661   2.773  0.00  0.00    -0.023 C 
ATOM      5  C   LIG A   1      -1.583  -0.964   3.753  0.00  0.00    +0.005 C 
ENDBRANCH   3   4
ENDBRANCH   2   3
ENDBRANCH   1   2
BRANCH   1   6
ATOM      6  S   LIG A   1       0.210   2.050  -1.204  0.00  0.00    -0.078 S 
BRANCH   6   7
ATOM      7  C   LIG A   1       0.911   1.189  -2.637  0.00  0.00    +0.108 C 
BRANCH   7   8
ATOM      8  C   LIG A   1       1.021  -0.291  -2.443  0.00  0.00    -0.023 C 
ATOM      9  C   LIG A   1       2.175  -0.965  -2.394  0.00  0.00    +0.005 C 
ENDBRANCH   7   8
ENDBRANCH   6   7
ENDBRANCH   1   6
TORSDOF 6
