REMARK  Name = NuBBE_2231
REMARK  4 active torsions:
REMARK  status: ('A' for Active; 'I' for Inactive)
REMARK    1  A    between atoms: C_1  and  C_2
REMARK    2  A    between atoms: C_8  and  O_9
REMARK    3  A    between atoms: C_18  and  C_19
REMARK    4  A    between atoms: C_18  and  C_20
REMARK                            x       y       z     vdW  Elec       q    Type
REMARK                         _______ _______ _______ _____ _____    ______ ____
ROOT
ATOM      1  C   LIG A   1      -1.622   1.758   0.725  0.00  0.00    +0.014 C 
ATOM      2  C   LIG A   1      -0.172   1.227   0.475  0.00  0.00    +0.001 C 
ATOM      3  C   LIG A   1       0.261   0.358   1.771  0.00  0.00    +0.003 C 
ATOM      4  C   LIG A   1      -0.543  -0.949   1.859  0.00  0.00    +0.005 C 
ATOM      5  C   LIG A   1      -0.545  -1.796   0.600  0.00  0.00    +0.010 C 
ATOM      6  C   LIG A   1      -0.852  -1.035  -0.702  0.00  0.00    +0.004 C 
ATOM      7  C   LIG A   1      -2.397  -0.885  -0.887  0.00  0.00    +0.040 C 
ATOM      8  C   LIG A   1      -0.136   0.361  -0.878  0.00  0.00    +0.078 C 
ATOM      9  C   LIG A   1      -0.658   1.024  -2.195  0.00  0.00    +0.036 C 
ATOM     10  C   LIG A   1      -0.718  -0.003  -3.366  0.00  0.00    +0.010 C 
ATOM     11  C   LIG A   1      -1.302  -1.394  -3.017  0.00  0.00    +0.015 C 
ATOM     12  C   LIG A   1      -0.449  -1.965  -1.896  0.00  0.00    +0.017 C 
ATOM     13  C   LIG A   1      -2.606  -1.506  -2.240  0.00  0.00    -0.073 C 
ATOM     14  C   LIG A   1      -3.558  -2.386  -2.472  0.00  0.00    +0.008 C 
ATOM     15  C   LIG A   1       1.824   0.217   2.021  0.00  0.00    -0.032 C 
ATOM     16  C   LIG A   1       2.289  -0.356   3.392  0.00  0.00    +0.011 C 
ATOM     17  C   LIG A   1       2.534  -0.742   1.042  0.00  0.00    +0.011 C 
ATOM     18  C   LIG A   1       2.341   1.677   2.065  0.00  0.00    +0.007 C 
ATOM     19  C   LIG A   1       2.143   2.469   0.794  0.00  0.00    +0.001 C 
ATOM     20  C   LIG A   1       0.680   2.538   0.378  0.00  0.00    +0.010 C 
ENDROOT
BRANCH   8  21
ATOM     21  O   LIG A   1       1.232   0.131  -1.244  0.00  0.00    -0.388 OA
ATOM     22  H   LIG A   1       1.734   0.953  -1.159  0.00  0.00    +0.210 HD
ENDBRANCH   8  21
TORSDOF 1
