REMARK  Name = NuBBE_2044
REMARK  13 active torsions:
REMARK  status: ('A' for Active; 'I' for Inactive)
REMARK    1  A    between atoms: O_1  and  C_2
REMARK    2  A    between atoms: O_1  and  C_3
REMARK    3  A    between atoms: C_4  and  O_5
REMARK    4  A    between atoms: C_7  and  C_12
REMARK    5  A    between atoms: C_9  and  C_11
REMARK    6  A    between atoms: C_14  and  O_15
REMARK    7  A    between atoms: O_15  and  C_16
REMARK    8  A    between atoms: C_17  and  O_22
REMARK    9  A    between atoms: C_18  and  O_20
REMARK   10  A    between atoms: O_20  and  C_21
REMARK   11  A    between atoms: O_22  and  C_23
REMARK   12  A    between atoms: C_27  and  C_29
REMARK   13  A    between atoms: C_29  and  C_30
REMARK                            x       y       z     vdW  Elec       q    Type
REMARK                         _______ _______ _______ _____ _____    ______ ____
ROOT
ATOM      1  C   LIG A   1       0.581   1.372   0.815  0.00  0.00    +0.147 C 
ATOM      2  C   LIG A   1       1.270   1.958  -0.447  0.00  0.00    +0.209 C 
ATOM      3  O   LIG A   1       1.522   0.837  -1.291  0.00  0.00    -0.337 OA
ATOM      4  C   LIG A   1       1.734  -0.309  -0.426  0.00  0.00    +0.158 C 
ATOM      5  C   LIG A   1       1.444   0.126   1.040  0.00  0.00    +0.060 C 
ATOM      6  C   LIG A   1       2.737   0.311   1.836  0.00  0.00    +0.014 C 
ATOM      7  C   LIG A   1       0.406   3.033  -1.080  0.00  0.00    +0.147 C 
ATOM      8  C   LIG A   1      -0.009   4.065  -0.031  0.00  0.00    +0.165 C 
ATOM      9  O   LIG A   1      -0.420   5.170  -0.380  0.00  0.00    -0.292 OA
ATOM     10  C   LIG A   1       0.082   3.729   1.431  0.00  0.00    -0.002 C 
ATOM     11  C   LIG A   1       0.425   2.471   1.824  0.00  0.00    +0.020 C 
ENDROOT
BRANCH   4  12
ATOM     12  C   LIG A   1       0.885  -1.483  -0.890  0.00  0.00    -0.011 A 
ATOM     13  C   LIG A   1       0.945  -2.698  -0.200  0.00  0.00    +0.056 A 
ATOM     14  C   LIG A   1       0.149  -3.783  -0.582  0.00  0.00    +0.166 A 
ATOM     15  C   LIG A   1      -0.669  -3.698  -1.732  0.00  0.00    +0.203 A 
ATOM     16  C   LIG A   1      -0.722  -2.486  -2.447  0.00  0.00    +0.166 A 
ATOM     17  C   LIG A   1       0.041  -1.394  -2.006  0.00  0.00    +0.056 A 
BRANCH  14  18
ATOM     18  O   LIG A   1       0.158  -4.977   0.100  0.00  0.00    -0.491 OA
ATOM     19  C   LIG A   1       0.439  -4.911   1.495  0.00  0.00    +0.277 C 
ENDBRANCH  14  18
BRANCH  16  20
ATOM     20  O   LIG A   1      -1.586  -2.373  -3.507  0.00  0.00    -0.491 OA
ATOM     21  C   LIG A   1      -1.251  -1.408  -4.500  0.00  0.00    +0.277 C 
ENDBRANCH  16  20
BRANCH  15  22
ATOM     22  O   LIG A   1      -1.405  -4.828  -2.006  0.00  0.00    -0.488 OA
ATOM     23  C   LIG A   1      -1.732  -5.089  -3.365  0.00  0.00    +0.277 C 
ENDBRANCH  15  22
ENDBRANCH   4  12
BRANCH   1  24
ATOM     24  O   LIG A   1      -0.765   0.943   0.462  0.00  0.00    -0.367 OA
ATOM     25  C   LIG A   1      -1.559   0.410   1.521  0.00  0.00    +0.195 C 
ENDBRANCH   1  24
BRANCH   2  26
ATOM     26  O   LIG A   1       2.561   2.512  -0.177  0.00  0.00    -0.362 OA
ATOM     27  H   LIG A   1       2.922   2.749  -1.050  0.00  0.00    +0.213 HD
ENDBRANCH   2  26
BRANCH  10  28
ATOM     28  C   LIG A   1      -0.207   4.817   2.430  0.00  0.00    +0.065 C 
BRANCH  28  29
ATOM     29  C   LIG A   1      -1.661   4.883   2.827  0.00  0.00    -0.030 C 
ATOM     30  C   LIG A   1      -2.200   4.239   3.873  0.00  0.00    +0.004 C 
ENDBRANCH  28  29
ENDBRANCH  10  28
TORSDOF 8
