REMARK  Name = NuBBE_1149
REMARK  14 active torsions:
REMARK  status: ('A' for Active; 'I' for Inactive)
REMARK    1  A    between atoms: C_1  and  C_2
REMARK    2  A    between atoms: C_8  and  C_22
REMARK    3  A    between atoms: C_11  and  C_13
REMARK    4  A    between atoms: C_13  and  C_14
REMARK    5  A    between atoms: C_13  and  O_15
REMARK    6  A    between atoms: C_13  and  C_16
REMARK    7  A    between atoms: C_16  and  C_17
REMARK    8  A    between atoms: C_17  and  C_18
REMARK    9  A    between atoms: C_19  and  C_20
REMARK   10  A    between atoms: C_19  and  C_21
REMARK   11  A    between atoms: C_24  and  C_37
REMARK   12  A    between atoms: C_26  and  C_27
REMARK   13  A    between atoms: C_26  and  C_33
REMARK   14  A    between atoms: C_28  and  O_30
REMARK                            x       y       z     vdW  Elec       q    Type
REMARK                         _______ _______ _______ _____ _____    ______ ____
ROOT
ATOM      1  C   LIG A   1      -0.993  -1.018   0.219  0.00  0.00    +0.012 C 
ATOM      2  C   LIG A   1       0.415  -1.112   0.872  0.00  0.00    -0.023 C 
ATOM      3  C   LIG A   1       1.570  -1.523  -0.131  0.00  0.00    +0.002 C 
ATOM      4  C   LIG A   1       2.083  -0.357  -1.019  0.00  0.00    +0.005 C 
ATOM      5  C   LIG A   1       1.265   0.926  -0.941  0.00  0.00    +0.005 C 
ATOM      6  C   LIG A   1       1.073   1.416   0.488  0.00  0.00    +0.001 C 
ATOM      7  C   LIG A   1       0.815   0.284   1.552  0.00  0.00    -0.023 C 
ATOM      8  C   LIG A   1      -0.250   0.901   2.493  0.00  0.00    +0.008 C 
ATOM      9  C   LIG A   1      -0.143   2.410   2.291  0.00  0.00    +0.007 C 
ATOM     10  C   LIG A   1       0.109   2.615   0.781  0.00  0.00    +0.024 C 
ATOM     11  C   LIG A   1       2.115   0.155   2.411  0.00  0.00    +0.012 C 
ATOM     12  C   LIG A   1       1.358  -2.898  -0.892  0.00  0.00    -0.025 C 
ATOM     13  C   LIG A   1       1.089  -4.021   0.190  0.00  0.00    +0.003 C 
ATOM     14  C   LIG A   1       0.949  -5.480  -0.390  0.00  0.00    -0.006 C 
ATOM     15  C   LIG A   1       0.855  -6.511   0.766  0.00  0.00    +0.014 C 
ATOM     16  C   LIG A   1       2.241  -5.802  -1.199  0.00  0.00    +0.120 C 
ATOM     17  C   LIG A   1       2.635  -4.727  -2.211  0.00  0.00    +0.032 C 
ATOM     18  C   LIG A   1       2.679  -3.318  -1.615  0.00  0.00    +0.010 C 
ATOM     19  C   LIG A   1      -0.316  -5.702  -1.247  0.00  0.00    +0.014 C 
ATOM     20  C   LIG A   1       0.032  -3.641   1.251  0.00  0.00    +0.005 C 
ATOM     21  C   LIG A   1       0.303  -2.270   1.901  0.00  0.00    +0.008 C 
ATOM     22  C   LIG A   1       0.264  -2.738  -1.974  0.00  0.00    +0.012 C 
ENDROOT
BRANCH  10  23
ATOM     23  C   LIG A   1      -1.198   2.867  -0.054  0.00  0.00    +0.067 C 
ATOM     24  C   LIG A   1      -0.937   3.068  -1.559  0.00  0.00    +0.041 C 
BRANCH  23  25
ATOM     25  O   LIG A   1      -2.073   1.749   0.093  0.00  0.00    -0.389 OA
ATOM     26  H   LIG A   1      -2.806   1.845  -0.539  0.00  0.00    +0.210 HD
ENDBRANCH  23  25
BRANCH  23  27
ATOM     27  C   LIG A   1      -2.004   4.101   0.452  0.00  0.00    +0.039 C 
BRANCH  27  28
ATOM     28  C   LIG A   1      -1.300   5.451   0.288  0.00  0.00    +0.030 C 
BRANCH  28  29
ATOM     29  C   LIG A   1      -2.155   6.577   0.796  0.00  0.00    -0.028 C 
ATOM     30  C   LIG A   1      -3.055   7.293   0.086  0.00  0.00    -0.080 C 
ATOM     31  C   LIG A   1      -3.389   7.053  -1.359  0.00  0.00    +0.038 C 
ATOM     32  C   LIG A   1      -3.831   8.409   0.731  0.00  0.00    +0.038 C 
ENDBRANCH  28  29
ENDBRANCH  27  28
ENDBRANCH  23  27
ENDBRANCH  10  23
BRANCH  16  33
ATOM     33  O   LIG A   1       2.099  -7.048  -1.884  0.00  0.00    -0.391 OA
ATOM     34  H   LIG A   1       2.919  -7.208  -2.381  0.00  0.00    +0.210 HD
ENDBRANCH  16  33
TORSDOF 6
