@<TRIPOS>MOLECULE
NuBBE_2346
 50 52 0 0 0
SMALL
GASTEIGER

@<TRIPOS>ATOM
      1 C          -3.4481    4.0546   -0.5357 C.3     1  LIG1        0.0790
      2 O          -3.0424    3.3720    0.6427 O.3     1  LIG1       -0.4913
      3 C          -1.8335    2.7082    0.6183 C.ar    1  LIG1        0.1655
      4 C          -0.7111    2.9854   -0.2143 C.ar    1  LIG1        0.2035
      5 O          -0.8895    3.7679   -1.3263 O.3     1  LIG1       -0.4885
      6 C          -0.1845    5.0061   -1.3451 C.3     1  LIG1        0.0791
      7 C           0.4413    2.2055   -0.0540 C.ar    1  LIG1        0.1655
      8 O           1.6041    2.1304   -0.7655 O.3     1  LIG1       -0.4913
      9 C           2.2140    3.2356   -1.3882 C.3     1  LIG1        0.0790
     10 C           0.4240    1.1488    0.8706 C.ar    1  LIG1       -0.0094
     11 C          -0.6766    0.8091    1.6640 C.ar    1  LIG1        0.0004
     12 C          -0.6718   -0.4554    2.5416 C.3     1  LIG1        0.1320
     13 H          -0.9056   -0.1489    3.5692 H       1  LIG1        0.0790
     14 O          -1.7352   -1.3561    2.0899 O.3     1  LIG1       -0.4832
     15 C          -1.0851   -2.2267    1.2441 C.ar    1  LIG1        0.1284
     16 C          -1.7053   -3.0161    0.3027 C.ar    1  LIG1        0.0221
     17 C          -0.8932   -3.7348   -0.5794 C.ar    1  LIG1        0.1238
     18 O          -1.5529   -4.5097   -1.4934 O.3     1  LIG1       -0.5064
     19 C           0.5164   -3.6470   -0.5321 C.ar    1  LIG1       -0.0017
     20 C           1.4070   -4.2746   -1.5943 C.3     1  LIG1       -0.0063
     21 C           2.2485   -3.2891   -2.3372 C.2     1  LIG1       -0.0867
     22 C           1.8727   -2.6810   -3.5105 C.2     1  LIG1       -0.1023
     23 C           1.1095   -2.8933    0.4992 C.ar    1  LIG1       -0.0478
     24 C           0.2935   -2.2012    1.3870 C.ar    1  LIG1        0.0015
     25 C           0.6414   -1.3011    2.5205 C.3     1  LIG1        0.0260
     26 H           1.5406   -0.7121    2.3350 H       1  LIG1        0.0387
     27 C           0.8874   -2.0749    3.8123 C.3     1  LIG1       -0.0546
     28 C          -1.7983    1.6384    1.5519 C.ar    1  LIG1       -0.0094
     29 H          -4.4637    4.4408   -0.3803 H       1  LIG1        0.0660
     30 H          -3.4784    3.3731   -1.3922 H       1  LIG1        0.0660
     31 H          -2.8247    4.9296   -0.7248 H       1  LIG1        0.0660
     32 H          -0.8883    5.8426   -1.2928 H       1  LIG1        0.0660
     33 H           0.3205    5.0713   -2.3208 H       1  LIG1        0.0660
     34 H           0.5360    5.1337   -0.5336 H       1  LIG1        0.0660
     35 H           3.2679    2.9759   -1.5407 H       1  LIG1        0.0660
     36 H           2.2260    4.1309   -0.7642 H       1  LIG1        0.0660
     37 H           1.7793    3.3985   -2.3764 H       1  LIG1        0.0660
     38 H           1.3166    0.5320    0.8665 H       1  LIG1        0.0659
     39 H          -2.7852   -3.0572    0.2268 H       1  LIG1        0.0691
     40 H          -1.0388   -5.3226   -1.6241 H       1  LIG1        0.2921
     41 H           0.8212   -4.8638   -2.3052 H       1  LIG1        0.0357
     42 H           2.0685   -5.0079   -1.0929 H       1  LIG1        0.0357
     43 H           3.2239   -3.0682   -1.9317 H       1  LIG1        0.0570
     44 H           0.9134   -2.8720   -3.9292 H       1  LIG1        0.0532
     45 H           2.5502   -1.9769   -4.0004 H       1  LIG1        0.0532
     46 H           2.1891   -2.8057    0.5748 H       1  LIG1        0.0625
     47 H           1.7794   -2.7054    3.7136 H       1  LIG1        0.0237
     48 H           0.0492   -2.7237    4.0837 H       1  LIG1        0.0237
     49 H           1.0657   -1.3783    4.6387 H       1  LIG1        0.0237
     50 H          -2.6953    1.4136    2.1321 H       1  LIG1        0.0659
@<TRIPOS>BOND
     1     1     2    1
     2     2     3    1
     3     3     4   ar
     4     4     5    1
     5     5     6    1
     6     4     7   ar
     7     7     8    1
     8     8     9    1
     9     7    10   ar
    10    10    11   ar
    11    12    14    1
    12    14    15    1
    13    15    16   ar
    14    16    17   ar
    15    17    18    1
    16    17    19   ar
    17    19    20    1
    18    20    21    1
    19    21    22    2
    20    19    23   ar
    21    23    24   ar
    22    15    24   ar
    23    24    25    1
    24    25    26    1
    25    12    25    1
    26    25    27    1
    27    11    28   ar
    28     3    28   ar
    29    12    13    1
    30    12    11    1
    31     1    29    1
    32     1    30    1
    33     1    31    1
    34     6    32    1
    35     6    33    1
    36     6    34    1
    37     9    35    1
    38     9    36    1
    39     9    37    1
    40    10    38    1
    41    16    39    1
    42    18    40    1
    43    20    41    1
    44    20    42    1
    45    21    43    1
    46    22    44    1
    47    22    45    1
    48    23    46    1
    49    27    47    1
    50    27    48    1
    51    27    49    1
    52    28    50    1
