@<TRIPOS>MOLECULE
NuBBE_678
 54 56 0 0 0
SMALL
GASTEIGER

@<TRIPOS>ATOM
      1 O          -5.7471   -0.5184   -0.6535 O.2     1  LIG1       -0.2500
      2 C          -4.6622    0.0356   -0.5176 C.2     1  LIG1        0.3195
      3 C          -3.3867   -0.6496   -0.1070 C.3     1  LIG1        0.1296
      4 H          -3.5468   -1.2093    0.8210 H       1  LIG1        0.0503
      5 C          -2.8345   -1.5817   -1.1678 C.2     1  LIG1        0.1731
      6 C          -3.2319   -3.0411   -1.1931 C.2     1  LIG1       -0.0114
      7 C          -2.2553   -3.9563   -1.8853 C.3     1  LIG1       -0.0367
      8 C          -4.3722   -3.4915   -0.6340 C.2     1  LIG1       -0.0809
      9 C          -4.8596   -4.9117   -0.6502 C.3     1  LIG1       -0.0462
     10 O          -2.0050   -1.1837   -1.9872 O.2     1  LIG1       -0.2915
     11 O          -4.4845    1.3847   -0.6801 O.3     1  LIG1       -0.4491
     12 C          -3.0890    1.6620   -0.6992 C.3     1  LIG1        0.1813
     13 C          -2.5475    0.5846    0.2310 C.3     1  LIG1        0.0547
     14 H          -2.8945    0.8585    1.2465 H       1  LIG1        0.0406
     15 C          -1.0558    0.6112    0.3745 C.2     1  LIG1        0.0047
     16 C          -0.2928   -0.4608    0.6443 C.2     1  LIG1        0.0966
     17 O           1.0746   -0.4184    0.8155 O.2     1  LIG1       -0.4632
     18 C           1.7137    0.8088    0.7124 C.2     1  LIG1        0.1279
     19 C           3.1429    0.7144    0.8448 C.2     1  LIG1       -0.0230
     20 C           3.8612    1.3799    1.7634 C.2     1  LIG1       -0.0777
     21 C           5.3635    1.3078    1.9188 C.3     1  LIG1       -0.0256
     22 H           5.6878    2.2646    2.3502 H       1  LIG1        0.0340
     23 C           5.7099    0.2037    2.9217 C.3     1  LIG1       -0.0590
     24 C           6.1435    1.1134    0.6019 C.3     1  LIG1       -0.0499
     25 C           5.9148    2.2417   -0.3999 C.3     1  LIG1       -0.0648
     26 C           1.0601    1.9596    0.4696 C.2     1  LIG1       -0.0104
     27 C          -0.3966    1.9395    0.3218 C.2     1  LIG1        0.0068
     28 C          -1.1229    3.0708    0.1547 C.2     1  LIG1        0.0949
     29 CL         -0.4637    4.6688    0.1449 Cl      1  LIG1       -0.0792
     30 C          -2.6672    1.7083   -2.1754 C.3     1  LIG1       -0.0167
     31 C          -2.6103    2.9810   -0.0777 C.2     1  LIG1        0.2184
     32 O          -3.3705    3.9047    0.1983 O.2     1  LIG1       -0.2868
     33 H          -1.2540   -3.5198   -1.9535 H       1  LIG1        0.0278
     34 H          -2.5988   -4.1878   -2.8984 H       1  LIG1        0.0278
     35 H          -2.1342   -4.8941   -1.3312 H       1  LIG1        0.0278
     36 H          -5.0697   -2.8127   -0.1510 H       1  LIG1        0.0573
     37 H          -4.3295   -5.5433   -1.3685 H       1  LIG1        0.0272
     38 H          -5.9199   -4.9367   -0.9232 H       1  LIG1        0.0272
     39 H          -4.7535   -5.3521    0.3455 H       1  LIG1        0.0272
     40 H          -0.6447   -1.4736    0.7809 H       1  LIG1        0.1032
     41 H           3.6190    0.0248    0.1521 H       1  LIG1        0.0651
     42 H           3.3477    2.0197    2.4801 H       1  LIG1        0.0576
     43 H           5.2004    0.3661    3.8788 H       1  LIG1        0.0235
     44 H           6.7866    0.1780    3.1197 H       1  LIG1        0.0235
     45 H           5.4125   -0.7832    2.5485 H       1  LIG1        0.0235
     46 H           5.8836    0.1557    0.1353 H       1  LIG1        0.0268
     47 H           7.2169    1.0634    0.8221 H       1  LIG1        0.0268
     48 H           4.8598    2.3505   -0.6679 H       1  LIG1        0.0230
     49 H           6.4669    2.0418   -1.3233 H       1  LIG1        0.0230
     50 H           6.2613    3.1976    0.0050 H       1  LIG1        0.0230
     51 H           1.6141    2.8862    0.3574 H       1  LIG1        0.0661
     52 H          -3.0728    0.8772   -2.7574 H       1  LIG1        0.0273
     53 H          -1.5833    1.7488   -2.3172 H       1  LIG1        0.0273
     54 H          -3.0834    2.6125   -2.6415 H       1  LIG1        0.0273
@<TRIPOS>BOND
     1     2     3    1
     2     5     6    1
     3     6     7    1
     4     6     8    2
     5     8     9    1
     6     5    10    2
     7     2    11    1
     8    11    12    1
     9    12    13    1
    10     3    13    1
    11    13    15    1
    12    15    16    2
    13    16    17    1
    14    17    18    1
    15    19    20    2
    16    20    21    1
    17    21    22    1
    18    21    23    1
    19    21    24    1
    20    24    25    1
    21    18    26    2
    22    26    27    1
    23    15    27    1
    24    27    28    2
    25    12    31    1
    26    28    31    1
    27     1     2    2
    28    12    30    1
    29    13    14    1
    30    18    19    1
    31    28    29    1
    32    31    32    2
    33     3     5    1
    34     3     4    1
    35     7    33    1
    36     7    34    1
    37     7    35    1
    38     8    36    1
    39     9    37    1
    40     9    38    1
    41     9    39    1
    42    16    40    1
    43    19    41    1
    44    20    42    1
    45    23    43    1
    46    23    44    1
    47    23    45    1
    48    24    46    1
    49    24    47    1
    50    25    48    1
    51    25    49    1
    52    25    50    1
    53    26    51    1
    54    30    52    1
    55    30    53    1
    56    30    54    1
