REMARK  Name = NuBBE_1455
REMARK  8 active torsions:
REMARK  status: ('A' for Active; 'I' for Inactive)
REMARK    1  A    between atoms: C_1  and  C_2
REMARK    2  A    between atoms: C_2  and  C_3
REMARK    3  A    between atoms: C_10  and  O_23
REMARK    4  A    between atoms: C_13  and  O_14
REMARK    5  A    between atoms: O_14  and  C_15
REMARK    6  A    between atoms: C_16  and  O_17
REMARK    7  A    between atoms: O_17  and  C_18
REMARK    8  A    between atoms: C_27  and  O_28
REMARK                            x       y       z     vdW  Elec       q    Type
REMARK                         _______ _______ _______ _____ _____    ______ ____
ROOT
ATOM      1  C   LIG A   1      -1.820   5.305  -3.338  0.00  0.00    +0.060 C 
ATOM      2  C   LIG A   1      -0.478   5.174  -2.605  0.00  0.00    +0.123 C 
ATOM      3  C   LIG A   1       0.330   6.464  -2.784  0.00  0.00    +0.060 C 
ATOM      4  C   LIG A   1      -0.718   4.931  -1.133  0.00  0.00    +0.020 C 
ATOM      5  C   LIG A   1      -0.581   3.726  -0.570  0.00  0.00    +0.015 C 
ATOM      6  C   LIG A   1      -0.199   2.607  -1.427  0.00  0.00    +0.059 A 
ATOM      7  C   LIG A   1      -0.251   1.274  -0.987  0.00  0.00    +0.146 A 
ATOM      8  C   LIG A   1       0.151   0.239  -1.830  0.00  0.00    +0.104 A 
ATOM      9  C   LIG A   1       0.053  -1.151  -1.349  0.00  0.00    +0.210 C 
ATOM     10  C   LIG A   1      -0.795  -1.431  -0.110  0.00  0.00    +0.197 C 
ATOM     11  C   LIG A   1      -0.134  -2.208   1.008  0.00  0.00    +0.041 A 
ATOM     12  C   LIG A   1       1.037  -2.963   0.885  0.00  0.00    +0.060 A 
ATOM     13  C   LIG A   1       1.496  -3.776   1.938  0.00  0.00    +0.162 A 
ATOM     14  C   LIG A   1       0.741  -3.889   3.117  0.00  0.00    +0.165 A 
ATOM     15  C   LIG A   1      -0.412  -3.113   3.258  0.00  0.00    +0.095 A 
ATOM     16  C   LIG A   1      -0.824  -2.278   2.221  0.00  0.00    +0.131 A 
ATOM     17  O   LIG A   1      -1.986  -1.573   2.403  0.00  0.00    -0.488 OA
ATOM     18  C   LIG A   1      -1.843  -0.246   1.897  0.00  0.00    +0.277 C 
ATOM     19  C   LIG A   1      -1.473  -0.152   0.408  0.00  0.00    +0.254 C 
ATOM     20  O   LIG A   1      -0.654   1.026   0.296  0.00  0.00    -0.480 OA
ATOM     21  O   LIG A   1       0.560  -2.043  -2.034  0.00  0.00    -0.288 OA
ATOM     22  C   LIG A   1       0.620   0.531  -3.116  0.00  0.00    +0.135 A 
ATOM     23  C   LIG A   1       0.657   1.846  -3.568  0.00  0.00    +0.092 A 
ATOM     24  C   LIG A   1       0.229   2.878  -2.733  0.00  0.00    +0.136 A 
ATOM     25  O   LIG A   1       0.285   4.139  -3.261  0.00  0.00    -0.481 OA
ENDROOT
BRANCH  13  26
ATOM     26  O   LIG A   1       2.648  -4.454   1.628  0.00  0.00    -0.491 OA
ATOM     27  C   LIG A   1       3.515  -4.769   2.711  0.00  0.00    +0.277 C 
ENDBRANCH  13  26
BRANCH  14  28
ATOM     28  O   LIG A   1       1.168  -4.752   4.093  0.00  0.00    -0.491 OA
ATOM     29  C   LIG A   1       0.151  -5.334   4.904  0.00  0.00    +0.277 C 
ENDBRANCH  14  28
BRANCH  10  30
ATOM     30  O   LIG A   1      -1.831  -2.302  -0.629  0.00  0.00    -0.373 OA
ATOM     31  H   LIG A   1      -1.383  -3.127  -0.899  0.00  0.00    +0.211 HD
ENDBRANCH  10  30
BRANCH  22  32
ATOM     32  O   LIG A   1       1.050  -0.427  -3.993  0.00  0.00    -0.506 OA
ATOM     33  H   LIG A   1       1.021  -1.299  -3.539  0.00  0.00    +0.292 HD
ENDBRANCH  22  32
TORSDOF 4
