REMARK  Name = NuBBE_2273
REMARK  6 active torsions:
REMARK  status: ('A' for Active; 'I' for Inactive)
REMARK    1  A    between atoms: C_1  and  C_17
REMARK    2  A    between atoms: C_4  and  C_7
REMARK    3  A    between atoms: C_10  and  C_13
REMARK    4  A    between atoms: C_13  and  C_14
REMARK    5  A    between atoms: C_13  and  C_15
REMARK    6  A    between atoms: C_13  and  O_16
REMARK                            x       y       z     vdW  Elec       q    Type
REMARK                         _______ _______ _______ _____ _____    ______ ____
ROOT
ATOM      1  C   LIG A   1       2.426  -0.898  -0.062  0.00  0.00    -0.047 A 
ATOM      2  C   LIG A   1       1.193  -0.204  -0.067  0.00  0.00    -0.041 A 
ATOM      3  C   LIG A   1       1.185   1.211  -0.069  0.00  0.00    -0.041 A 
ATOM      4  C   LIG A   1       2.406   1.921   0.009  0.00  0.00    -0.047 A 
ATOM      5  C   LIG A   1       3.614   1.215   0.031  0.00  0.00    +0.004 A 
ATOM      6  C   LIG A   1       3.624  -0.176  -0.004  0.00  0.00    +0.004 A 
ATOM      7  C   LIG A   1       2.450   3.426   0.040  0.00  0.00    +0.044 C 
ATOM      8  C   LIG A   1      -0.122   1.971  -0.093  0.00  0.00    +0.036 C 
ATOM      9  C   LIG A   1      -1.319   1.140  -0.548  0.00  0.00    +0.011 C 
ATOM     10  C   LIG A   1      -1.377  -0.186   0.224  0.00  0.00    +0.025 C 
ATOM     11  C   LIG A   1      -0.106  -0.987  -0.127  0.00  0.00    +0.042 C 
ATOM     12  C   LIG A   1       2.495  -2.402  -0.090  0.00  0.00    +0.044 C 
ENDROOT
BRANCH  10  13
ATOM     13  C   LIG A   1      -2.694  -0.983  -0.041  0.00  0.00    +0.064 C 
ATOM     14  C   LIG A   1      -2.671  -2.381   0.593  0.00  0.00    +0.041 C 
ATOM     15  C   LIG A   1      -3.917  -0.229   0.504  0.00  0.00    +0.041 C 
BRANCH  13  16
ATOM     16  O   LIG A   1      -2.908  -1.137  -1.446  0.00  0.00    -0.389 OA
ATOM     17  H   LIG A   1      -2.230  -1.735  -1.802  0.00  0.00    +0.210 HD
ENDBRANCH  13  16
ENDBRANCH  10  13
TORSDOF 2
