@<TRIPOS>MOLECULE
NuBBE_967
 45 46 0 0 0
SMALL
GASTEIGER

@<TRIPOS>ATOM
      1 C          -1.6553    0.6613    1.5589 C.3     1  LIG1       -0.0592
      2 C          -0.1373    0.8677    1.3503 C.3     1  LIG1       -0.0266
      3 C           0.3196    0.9141   -0.1373 C.3     1  LIG1       -0.0067
      4 C           0.0127   -0.4058   -0.8762 C.3     1  LIG1       -0.0417
      5 C           0.6774   -1.6282   -0.1945 C.3     1  LIG1       -0.0123
      6 H           1.7653   -1.4911   -0.2791 H       1  LIG1        0.0328
      7 C           0.3181   -2.9725   -0.9079 C.3     1  LIG1        0.0633
      8 C           1.0160   -4.1726   -0.2511 C.3     1  LIG1       -0.0361
      9 O          -1.0943   -3.1849   -0.8088 O.3     1  LIG1       -0.3888
     10 C           0.6846   -2.9476   -2.3992 C.3     1  LIG1       -0.0361
     11 C           0.3417   -1.6578    1.3135 C.3     1  LIG1       -0.0471
     12 C           0.6012   -0.3220    2.0155 C.3     1  LIG1       -0.0469
     13 C          -0.0879    2.1908   -0.9256 C.3     1  LIG1        0.0666
     14 C          -1.5468    2.2450   -1.3890 C.3     1  LIG1       -0.0358
     15 O           0.7059    2.2060   -2.1293 O.3     1  LIG1       -0.3886
     16 C           0.3006    3.4507   -0.1288 C.3     1  LIG1       -0.0240
     17 C          -0.1776    3.4364    1.3181 C.3     1  LIG1       -0.0500
     18 C           0.2888    2.1795    2.0539 C.3     1  LIG1       -0.0472
     19 H          -2.0589   -0.1604    0.9619 H       1  LIG1        0.0235
     20 H          -2.2429    1.5501    1.3283 H       1  LIG1        0.0235
     21 H          -1.8686    0.4282    2.6095 H       1  LIG1        0.0235
     22 H           1.4224    0.9571   -0.1119 H       1  LIG1        0.0334
     23 H           0.3903   -0.3228   -1.9011 H       1  LIG1        0.0273
     24 H          -1.0679   -0.5620   -0.9554 H       1  LIG1        0.0273
     25 H           0.8151   -5.0944   -0.8100 H       1  LIG1        0.0257
     26 H           0.6365   -4.3572    0.7592 H       1  LIG1        0.0257
     27 H           2.1005   -4.0308   -0.2052 H       1  LIG1        0.0257
     28 H          -1.3063   -4.0119   -1.2744 H       1  LIG1        0.2101
     29 H           0.5060   -3.9260   -2.8612 H       1  LIG1        0.0257
     30 H           1.7369   -2.6866   -2.5498 H       1  LIG1        0.0257
     31 H           0.0577   -2.2447   -2.9576 H       1  LIG1        0.0257
     32 H           0.9548   -2.4149    1.8156 H       1  LIG1        0.0269
     33 H          -0.7016   -1.9568    1.4653 H       1  LIG1        0.0269
     34 H           1.6836   -0.1352    2.0137 H       1  LIG1        0.0271
     35 H           0.3115   -0.4090    3.0706 H       1  LIG1        0.0271
     36 H          -2.2610    2.3248   -0.5711 H       1  LIG1        0.0257
     37 H          -1.8057    1.3722   -1.9971 H       1  LIG1        0.0257
     38 H          -1.7078    3.1132   -2.0403 H       1  LIG1        0.0257
     39 H           0.5110    3.0307   -2.6066 H       1  LIG1        0.2102
     40 H          -0.0744    4.3501   -0.6337 H       1  LIG1        0.0293
     41 H           1.3945    3.5564   -0.1370 H       1  LIG1        0.0293
     42 H          -1.2681    3.5252    1.3551 H       1  LIG1        0.0266
     43 H           0.2174    4.3194    1.8347 H       1  LIG1        0.0266
     44 H          -0.0916    2.2003    3.0829 H       1  LIG1        0.0271
     45 H           1.3838    2.2159    2.1322 H       1  LIG1        0.0271
@<TRIPOS>BOND
     1     2     3    1
     2     3     4    1
     3     4     5    1
     4     7     8    1
     5     7     9    1
     6     7    10    1
     7     5    11    1
     8    11    12    1
     9     2    12    1
    10     3    13    1
    11    13    16    1
    12    16    17    1
    13    17    18    1
    14     2    18    1
    15     1     2    1
    16     5     6    1
    17     5     7    1
    18    13    15    1
    19    13    14    1
    20     1    19    1
    21     1    20    1
    22     1    21    1
    23     3    22    1
    24     4    23    1
    25     4    24    1
    26     8    25    1
    27     8    26    1
    28     8    27    1
    29     9    28    1
    30    10    29    1
    31    10    30    1
    32    10    31    1
    33    11    32    1
    34    11    33    1
    35    12    34    1
    36    12    35    1
    37    14    36    1
    38    14    37    1
    39    14    38    1
    40    15    39    1
    41    16    40    1
    42    16    41    1
    43    17    42    1
    44    17    43    1
    45    18    44    1
    46    18    45    1
