REMARK  Name = NuBBE_2481
REMARK  8 active torsions:
REMARK  status: ('A' for Active; 'I' for Inactive)
REMARK    1  A    between atoms: C_1  and  C_2
REMARK    2  A    between atoms: C_1  and  C_4
REMARK    3  A    between atoms: C_4  and  O_5
REMARK    4  A    between atoms: O_5  and  C_6
REMARK    5  A    between atoms: C_14  and  C_19
REMARK    6  A    between atoms: C_16  and  C_18
REMARK    7  A    between atoms: C_23  and  O_25
REMARK    8  A    between atoms: O_25  and  C_26
REMARK                            x       y       z     vdW  Elec       q    Type
REMARK                         _______ _______ _______ _____ _____    ______ ____
ROOT
ATOM      1  C   LIG A   1      -2.703  -1.632  -1.351  0.00  0.00    +0.153 C 
ATOM      2  C   LIG A   1      -2.386  -0.319  -0.675  0.00  0.00    +0.023 C 
ATOM      3  C   LIG A   1      -1.648  -0.241   0.435  0.00  0.00    +0.000 C 
ATOM      4  C   LIG A   1      -1.110  -1.402   1.079  0.00  0.00    +0.128 C 
ATOM      5  C   LIG A   1      -1.232  -2.639   0.606  0.00  0.00    +0.095 C 
ATOM      6  C   LIG A   1      -1.960  -2.854  -0.677  0.00  0.00    +0.195 C 
ATOM      7  O   LIG A   1      -1.946  -3.982  -1.164  0.00  0.00    -0.289 OA
ATOM      8  O   LIG A   1      -0.358  -1.068   2.194  0.00  0.00    -0.483 OA
ATOM      9  C   LIG A   1      -0.050   0.349   2.058  0.00  0.00    +0.211 C 
ATOM     10  C   LIG A   1      -1.192   0.949   1.205  0.00  0.00    +0.065 C 
ATOM     11  C   LIG A   1      -0.889   2.186   0.370  0.00  0.00    +0.016 C 
ENDROOT
BRANCH   9  12
ATOM     12  C   LIG A   1       1.391   0.531   1.595  0.00  0.00    +0.000 A 
ATOM     13  C   LIG A   1       2.038  -0.418   0.788  0.00  0.00    +0.057 A 
ATOM     14  C   LIG A   1       3.344  -0.188   0.410  0.00  0.00    +0.170 A 
ATOM     15  C   LIG A   1       4.046   0.928   0.805  0.00  0.00    +0.207 A 
ATOM     16  C   LIG A   1       3.460   1.885   1.615  0.00  0.00    +0.166 A 
ATOM     17  C   LIG A   1       2.124   1.672   2.006  0.00  0.00    +0.057 A 
ATOM     18  O   LIG A   1       5.311   0.917   0.299  0.00  0.00    -0.449 OA
ATOM     19  C   LIG A   1       5.323  -0.321  -0.435  0.00  0.00    +0.467 C 
ATOM     20  O   LIG A   1       4.071  -1.023  -0.383  0.00  0.00    -0.453 OA
BRANCH  16  21
ATOM     21  O   LIG A   1       4.019   3.034   2.096  0.00  0.00    -0.491 OA
ATOM     22  C   LIG A   1       5.354   3.318   1.692  0.00  0.00    +0.277 C 
ENDBRANCH  16  21
ENDBRANCH   9  12
BRANCH   1  23
ATOM     23  O   LIG A   1      -2.396  -1.492  -2.748  0.00  0.00    -0.364 OA
ATOM     24  C   LIG A   1      -1.021  -1.287  -3.057  0.00  0.00    +0.195 C 
ENDBRANCH   1  23
BRANCH   1  25
ATOM     25  C   LIG A   1      -4.229  -1.962  -1.243  0.00  0.00    +0.074 C 
BRANCH  25  26
ATOM     26  C   LIG A   1      -5.183  -0.895  -1.746  0.00  0.00    -0.031 C 
ATOM     27  C   LIG A   1      -6.415  -0.677  -1.263  0.00  0.00    +0.004 C 
ENDBRANCH  25  26
ENDBRANCH   1  25
TORSDOF 5
