@<TRIPOS>MOLECULE
NuBBE_214
 56 59 0 0 0
SMALL
GASTEIGER

@<TRIPOS>ATOM
      1 C          -3.4258   -4.5479    0.9255 C.3     1  LIG1        0.0790
      2 O          -2.4748   -3.6314    1.4506 O.3     1  LIG1       -0.4913
      3 C          -2.8076   -2.3006    1.4702 C.ar    1  LIG1        0.1653
      4 C          -3.9776   -1.7000    1.0121 C.ar    1  LIG1        0.2010
      5 O          -4.9847   -2.4306    0.4281 O.3     1  LIG1       -0.5009
      6 C          -4.1531   -0.3042    1.0966 C.ar    1  LIG1        0.1653
      7 O          -5.3383    0.1658    0.5831 O.3     1  LIG1       -0.4913
      8 C          -5.5309    1.5762    0.6381 C.3     1  LIG1        0.0790
      9 C          -3.1397    0.4875    1.6502 C.ar    1  LIG1       -0.0104
     10 C          -1.9413   -0.0826    2.0926 C.ar    1  LIG1       -0.0114
     11 C          -0.8318    0.8159    2.6231 C.3     1  LIG1        0.0892
     12 H          -1.2954    1.6844    3.1095 H       1  LIG1        0.0650
     13 O          -0.0647    0.1224    3.6225 O.3     1  LIG1       -0.3712
     14 C           1.2878   -0.0304    3.1560 C.3     1  LIG1        0.0544
     15 C           1.2737    0.2410    1.6560 C.3     1  LIG1        0.0205
     16 H           1.0540   -0.6882    1.1199 H       1  LIG1        0.0356
     17 C           0.1570    1.2474    1.5494 C.3     1  LIG1        0.0205
     18 H          -0.2717    1.2997    0.5427 H       1  LIG1        0.0356
     19 C           0.9014    2.5431    1.8513 C.3     1  LIG1        0.0544
     20 O           2.2286    2.3867    1.3182 O.3     1  LIG1       -0.3712
     21 C           2.4977    0.9786    1.1282 C.3     1  LIG1        0.0892
     22 H           3.4009    0.7373    1.6965 H       1  LIG1        0.0650
     23 C           2.7530    0.6845   -0.3433 C.ar    1  LIG1       -0.0114
     24 C           3.5928   -0.3749   -0.7257 C.ar    1  LIG1       -0.0104
     25 C           3.7937   -0.7298   -2.0694 C.ar    1  LIG1        0.1653
     26 O           4.6441   -1.7860   -2.2524 O.3     1  LIG1       -0.4913
     27 C           4.9419   -2.1720   -3.5892 C.3     1  LIG1        0.0790
     28 C           3.1158    0.0045   -3.0556 C.ar    1  LIG1        0.2010
     29 O           3.2157   -0.2942   -4.3891 O.3     1  LIG1       -0.5009
     30 C           2.3045    1.0863   -2.6974 C.ar    1  LIG1        0.1653
     31 O           1.6795    1.7127   -3.7560 O.3     1  LIG1       -0.4913
     32 C           1.5894    3.1303   -3.6307 C.3     1  LIG1        0.0790
     33 C           2.1150    1.4260   -1.3623 C.ar    1  LIG1       -0.0104
     34 C          -1.8013   -1.4744    2.0021 C.ar    1  LIG1       -0.0104
     35 H          -2.9605   -5.5385    0.9082 H       1  LIG1        0.0660
     36 H          -3.6872   -4.3119   -0.1109 H       1  LIG1        0.0660
     37 H          -4.3094   -4.6113    1.5697 H       1  LIG1        0.0660
     38 H          -5.5358   -1.7889   -0.0487 H       1  LIG1        0.2924
     39 H          -6.4316    1.8197    0.0679 H       1  LIG1        0.0660
     40 H          -4.6984    2.1125    0.1708 H       1  LIG1        0.0660
     41 H          -5.6821    1.9028    1.6723 H       1  LIG1        0.0660
     42 H          -3.2629    1.5618    1.7423 H       1  LIG1        0.0659
     43 H           1.6319   -1.0414    3.3909 H       1  LIG1        0.0564
     44 H           1.9097    0.6748    3.7186 H       1  LIG1        0.0564
     45 H           0.9946    2.7500    2.9240 H       1  LIG1        0.0564
     46 H           0.4306    3.4142    1.3863 H       1  LIG1        0.0564
     47 H           4.1016   -0.9592    0.0424 H       1  LIG1        0.0659
     48 H           5.6834   -2.9767   -3.5487 H       1  LIG1        0.0660
     49 H           5.3953   -1.3515   -4.1564 H       1  LIG1        0.0660
     50 H           4.0562   -2.5770   -4.0906 H       1  LIG1        0.0660
     51 H           2.6131    0.3368   -4.8373 H       1  LIG1        0.2924
     52 H           1.3249    3.5287   -4.6153 H       1  LIG1        0.0660
     53 H           2.5502    3.5677   -3.3397 H       1  LIG1        0.0660
     54 H           0.7972    3.4107   -2.9328 H       1  LIG1        0.0660
     55 H           1.4504    2.2460   -1.1031 H       1  LIG1        0.0659
     56 H          -0.8788   -1.9528    2.3383 H       1  LIG1        0.0659
@<TRIPOS>BOND
     1     1     2    1
     2     2     3    1
     3     3     4   ar
     4     4     5    1
     5     4     6   ar
     6     6     7    1
     7     7     8    1
     8     6     9   ar
     9     9    10   ar
    10    11    13    1
    11    13    14    1
    12    14    15    1
    13    15    17    1
    14    11    17    1
    15    17    19    1
    16    19    20    1
    17    20    21    1
    18    15    21    1
    19    23    24   ar
    20    24    25   ar
    21    25    26    1
    22    26    27    1
    23    25    28   ar
    24    28    29    1
    25    28    30   ar
    26    30    31    1
    27    31    32    1
    28    30    33   ar
    29    23    33   ar
    30    10    34   ar
    31     3    34   ar
    32    15    16    1
    33    17    18    1
    34    21    22    1
    35    21    23    1
    36    11    12    1
    37    11    10    1
    38     1    35    1
    39     1    36    1
    40     1    37    1
    41     5    38    1
    42     8    39    1
    43     8    40    1
    44     8    41    1
    45     9    42    1
    46    14    43    1
    47    14    44    1
    48    19    45    1
    49    19    46    1
    50    24    47    1
    51    27    48    1
    52    27    49    1
    53    27    50    1
    54    29    51    1
    55    32    52    1
    56    32    53    1
    57    32    54    1
    58    33    55    1
    59    34    56    1
