REMARK  Name = NuBBE_552
REMARK  3 active torsions:
REMARK  status: ('A' for Active; 'I' for Inactive)
REMARK    1  A    between atoms: C_1  and  C_2
REMARK    2  A    between atoms: C_6  and  C_7
REMARK    3  A    between atoms: C_13  and  C_14
REMARK                            x       y       z     vdW  Elec       q    Type
REMARK                         _______ _______ _______ _____ _____    ______ ____
ROOT
ATOM      1  C   LIG A   1      -2.448  -1.408   0.251  0.00  0.00    +0.016 C 
ATOM      2  C   LIG A   1      -1.107  -0.651   0.557  0.00  0.00    +0.003 C 
ATOM      3  C   LIG A   1      -0.380   0.234  -0.506  0.00  0.00    +0.005 C 
ATOM      4  C   LIG A   1       1.094   0.529  -0.270  0.00  0.00    +0.193 C 
ATOM      5  C   LIG A   1       1.842  -0.631   0.084  0.00  0.00    +0.066 A 
ATOM      6  C   LIG A   1       3.227  -0.954   0.060  0.00  0.00    -0.002 A 
ATOM      7  C   LIG A   1       4.368  -0.059  -0.249  0.00  0.00    +0.048 C 
ATOM      8  C   LIG A   1       3.280  -2.301   0.369  0.00  0.00    +0.199 A 
ATOM      9  O   LIG A   1       2.058  -2.760   0.760  0.00  0.00    -0.467 OA
ATOM     10  C   LIG A   1       1.212  -1.708   0.645  0.00  0.00    +0.117 A 
ATOM     11  C   LIG A   1      -0.198  -1.836   1.056  0.00  0.00    +0.086 C 
ATOM     12  O   LIG A   1       1.582   1.666  -0.274  0.00  0.00    -0.287 OA
ATOM     13  C   LIG A   1      -1.056   1.151  -1.236  0.00  0.00    -0.065 C 
ATOM     14  C   LIG A   1      -0.480   2.150  -2.204  0.00  0.00    +0.039 C 
ATOM     15  C   LIG A   1      -2.467   1.406  -0.795  0.00  0.00    +0.031 C 
ATOM     16  C   LIG A   1      -2.468   1.525   0.760  0.00  0.00    +0.005 C 
ATOM     17  C   LIG A   1      -1.546   0.484   1.525  0.00  0.00    +0.012 C 
ENDROOT
TORSDOF 0
