@<TRIPOS>MOLECULE
NuBBE_986
 76 79 0 0 0
SMALL
GASTEIGER

@<TRIPOS>ATOM
      1 O          -6.8855    3.2094   -2.7651 O.3     1  LIG1       -0.3915
      2 C          -5.6681    2.4677   -2.7985 C.3     1  LIG1        0.0590
      3 H          -5.7497    1.7588   -3.6320 H       1  LIG1        0.0596
      4 C          -5.4963    1.6794   -1.4943 C.3     1  LIG1       -0.0051
      5 C          -4.1252    1.0406   -1.4774 C.2     1  LIG1       -0.0648
      6 C          -4.0299   -0.2879   -1.5973 C.2     1  LIG1       -0.0839
      7 C          -2.7662   -1.0028   -1.8962 C.3     1  LIG1       -0.0311
      8 C          -1.4903   -0.2823   -1.4690 C.3     1  LIG1       -0.0305
      9 C          -1.5080    1.2692   -1.5883 C.3     1  LIG1       -0.0262
     10 C          -0.4298    1.9061   -0.6685 C.3     1  LIG1       -0.0224
     11 C           0.8050    1.0220   -0.4788 C.3     1  LIG1        0.0614
     12 H           1.2513    0.9006   -1.4743 H       1  LIG1        0.0599
     13 C           0.5120   -0.3958    0.1426 C.3     1  LIG1        0.0001
     14 C          -0.9614   -0.8069   -0.1193 C.3     1  LIG1       -0.0296
     15 C          -1.7678   -0.3734    1.1116 C.3     1  LIG1       -0.0491
     16 C          -0.7604    0.0468    2.1754 C.3     1  LIG1       -0.0491
     17 C           0.6211   -0.4541    1.7097 C.3     1  LIG1       -0.0304
     18 H           1.3449    0.2872    2.0623 H       1  LIG1        0.0310
     19 C           1.0052   -1.7781    2.4606 C.3     1  LIG1       -0.0402
     20 H           0.9374   -1.5238    3.5301 H       1  LIG1        0.0301
     21 C           2.4602   -2.2829    2.2716 C.3     1  LIG1       -0.0465
     22 C           3.5421   -1.2096    2.4485 C.3     1  LIG1       -0.0315
     23 C           4.9426   -1.7640    2.2484 C.2     1  LIG1       -0.0740
     24 C           5.4839   -1.7213    0.8229 C.3     1  LIG1       -0.0258
     25 C           6.2194   -0.4016    0.5717 C.3     1  LIG1       -0.0590
     26 C           6.3825   -2.9058    0.4509 C.3     1  LIG1       -0.0590
     27 C           5.6531   -2.2163    3.2967 C.2     1  LIG1       -0.0992
     28 C           0.0348   -2.9525    2.2707 C.3     1  LIG1       -0.0621
     29 C           1.4626   -1.3631   -0.5884 C.3     1  LIG1       -0.0567
     30 O           1.7818    1.7183    0.2921 O.3     1  LIG1       -0.3912
     31 C          -2.9326    1.9960   -1.5605 C.3     1  LIG1       -0.0077
     32 C          -3.0174    3.0454   -0.4183 C.3     1  LIG1       -0.0556
     33 C          -3.1257    2.7494   -2.9176 C.3     1  LIG1       -0.0413
     34 C          -4.4993    3.4201   -3.0780 C.3     1  LIG1       -0.0258
     35 H          -6.8342    3.8327   -2.0205 H       1  LIG1        0.2098
     36 H          -6.2961    0.9305   -1.4265 H       1  LIG1        0.0335
     37 H          -5.6488    2.3174   -0.6165 H       1  LIG1        0.0335
     38 H          -4.9296   -0.9019   -1.6089 H       1  LIG1        0.0572
     39 H          -2.7369   -1.1628   -2.9824 H       1  LIG1        0.0310
     40 H          -2.8086   -2.0050   -1.4540 H       1  LIG1        0.0310
     41 H          -0.7439   -0.6212   -2.2044 H       1  LIG1        0.0310
     42 H          -1.1165    1.4433   -2.6036 H       1  LIG1        0.0313
     43 H          -0.8170    2.1517    0.3215 H       1  LIG1        0.0293
     44 H          -0.1204    2.8698   -1.0952 H       1  LIG1        0.0293
     45 H          -1.0053   -1.9033   -0.1544 H       1  LIG1        0.0310
     46 H          -2.3798   -1.2100    1.4671 H       1  LIG1        0.0268
     47 H          -2.4679    0.4392    0.9168 H       1  LIG1        0.0268
     48 H          -1.0459   -0.3186    3.1675 H       1  LIG1        0.0268
     49 H          -0.7440    1.1401    2.2543 H       1  LIG1        0.0268
     50 H           2.6370   -3.0716    3.0173 H       1  LIG1        0.0271
     51 H           2.5780   -2.7842    1.3070 H       1  LIG1        0.0271
     52 H           3.4517   -0.7694    3.4495 H       1  LIG1        0.0310
     53 H           3.3954   -0.3858    1.7428 H       1  LIG1        0.0310
     54 H           4.6322   -1.7675    0.1341 H       1  LIG1        0.0340
     55 H           7.0776   -0.2871    1.2439 H       1  LIG1        0.0235
     56 H           5.5568    0.4573    0.7242 H       1  LIG1        0.0235
     57 H           6.5922   -0.3532   -0.4572 H       1  LIG1        0.0235
     58 H           7.3342   -2.8891    0.9918 H       1  LIG1        0.0235
     59 H           6.6154   -2.8830   -0.6199 H       1  LIG1        0.0235
     60 H           5.8818   -3.8575    0.6593 H       1  LIG1        0.0235
     61 H           5.2406   -2.2188    4.3011 H       1  LIG1        0.0534
     62 H           6.6680   -2.5842    3.1893 H       1  LIG1        0.0534
     63 H           0.0434   -3.3381    1.2491 H       1  LIG1        0.0233
     64 H          -0.9912   -2.6807    2.5309 H       1  LIG1        0.0233
     65 H           0.3089   -3.7836    2.9306 H       1  LIG1        0.0233
     66 H           1.3575   -1.2867   -1.6770 H       1  LIG1        0.0236
     67 H           1.2624   -2.4093   -0.3503 H       1  LIG1        0.0236
     68 H           2.5051   -1.1329   -0.3596 H       1  LIG1        0.0236
     69 H           1.9548    2.5712   -0.1412 H       1  LIG1        0.2098
     70 H          -2.9468    2.5788    0.5688 H       1  LIG1        0.0238
     71 H          -3.9526    3.6122   -0.4154 H       1  LIG1        0.0238
     72 H          -2.2271    3.7989   -0.5095 H       1  LIG1        0.0238
     73 H          -2.9978    2.0415   -3.7492 H       1  LIG1        0.0274
     74 H          -2.3446    3.5111   -3.0375 H       1  LIG1        0.0274
     75 H          -4.5951    3.8133   -4.0980 H       1  LIG1        0.0290
     76 H          -4.5694    4.3017   -2.4302 H       1  LIG1        0.0290
@<TRIPOS>BOND
     1     2     4    1
     2     4     5    1
     3     5     6    2
     4     6     7    1
     5     7     8    1
     6     8     9    1
     7     9    10    1
     8    10    11    1
     9    11    13    1
    10    13    14    1
    11     8    14    1
    12    14    15    1
    13    15    16    1
    14    16    17    1
    15    13    17    1
    16    21    22    1
    17    22    23    1
    18    23    24    1
    19    24    25    1
    20    24    26    1
    21    23    27    2
    22    19    28    1
    23     9    31    1
    24     5    31    1
    25    31    33    1
    26    33    34    1
    27     2    34    1
    28     1     2    1
    29     2     3    1
    30    13    29    1
    31    17    18    1
    32    17    19    1
    33    31    32    1
    34    11    30    1
    35    11    12    1
    36    19    21    1
    37    19    20    1
    38     1    35    1
    39     4    36    1
    40     4    37    1
    41     6    38    1
    42     7    39    1
    43     7    40    1
    44     8    41    1
    45     9    42    1
    46    10    43    1
    47    10    44    1
    48    14    45    1
    49    15    46    1
    50    15    47    1
    51    16    48    1
    52    16    49    1
    53    21    50    1
    54    21    51    1
    55    22    52    1
    56    22    53    1
    57    24    54    1
    58    25    55    1
    59    25    56    1
    60    25    57    1
    61    26    58    1
    62    26    59    1
    63    26    60    1
    64    27    61    1
    65    27    62    1
    66    28    63    1
    67    28    64    1
    68    28    65    1
    69    29    66    1
    70    29    67    1
    71    29    68    1
    72    30    69    1
    73    32    70    1
    74    32    71    1
    75    32    72    1
    76    33    73    1
    77    33    74    1
    78    34    75    1
    79    34    76    1
