REMARK  Name = NuBBE_2486
REMARK  5 active torsions:
REMARK  status: ('A' for Active; 'I' for Inactive)
REMARK    1  A    between atoms: C_11  and  O_12
REMARK    2  A    between atoms: C_13  and  O_16
REMARK    3  A    between atoms: C_20  and  O_21
REMARK    4  A    between atoms: O_21  and  C_22
REMARK    5  A    between atoms: C_24  and  O_26
REMARK                            x       y       z     vdW  Elec       q    Type
REMARK                         _______ _______ _______ _____ _____    ______ ____
ROOT
ATOM      1  O   LIG A   1      -1.864   0.046   2.571  0.00  0.00    -0.289 OA
ATOM      2  C   LIG A   1      -1.202  -0.191   1.565  0.00  0.00    +0.203 C 
ATOM      3  C   LIG A   1      -0.762   0.926   0.642  0.00  0.00    +0.234 C 
ATOM      4  C   LIG A   1      -0.621   0.372  -0.771  0.00  0.00    +0.240 C 
ATOM      5  C   LIG A   1      -0.061   1.444  -1.685  0.00  0.00    +0.005 A 
ATOM      6  C   LIG A   1       0.666   2.530  -1.139  0.00  0.00    +0.030 A 
ATOM      7  C   LIG A   1       0.826   2.648   0.360  0.00  0.00    +0.200 C 
ATOM      8  O   LIG A   1       0.482   1.467   1.089  0.00  0.00    -0.360 OA
ATOM      9  C   LIG A   1       1.163   3.500  -2.017  0.00  0.00    +0.164 A 
ATOM     10  C   LIG A   1       0.958   3.381  -3.394  0.00  0.00    +0.159 A 
ATOM     11  C   LIG A   1       0.269   2.307  -3.932  0.00  0.00    +0.049 A 
ATOM     12  C   LIG A   1      -0.239   1.334  -3.076  0.00  0.00    +0.011 A 
ATOM     13  O   LIG A   1       0.301  -0.724  -0.828  0.00  0.00    -0.480 OA
ATOM     14  C   LIG A   1      -0.002  -1.733   0.045  0.00  0.00    +0.139 A 
ATOM     15  C   LIG A   1      -0.751  -1.562   1.215  0.00  0.00    +0.103 A 
ATOM     16  C   LIG A   1      -1.017  -2.682   2.019  0.00  0.00    +0.138 A 
ATOM     17  C   LIG A   1      -0.547  -3.949   1.655  0.00  0.00    +0.092 A 
ATOM     18  C   LIG A   1       0.225  -4.087   0.509  0.00  0.00    +0.124 A 
ATOM     19  C   LIG A   1       0.507  -2.989  -0.293  0.00  0.00    +0.092 A 
ENDROOT
BRANCH   9  20
ATOM     20  O   LIG A   1       1.860   4.612  -1.618  0.00  0.00    -0.503 OA
ATOM     21  H   LIG A   1       2.076   4.551  -0.675  0.00  0.00    +0.292 HD
ENDBRANCH   9  20
BRANCH  10  22
ATOM     22  O   LIG A   1       1.446   4.340  -4.239  0.00  0.00    -0.503 OA
ATOM     23  H   LIG A   1       1.884   4.985  -3.648  0.00  0.00    +0.292 HD
ENDBRANCH  10  22
BRANCH  16  24
ATOM     24  O   LIG A   1      -1.817  -2.614   3.129  0.00  0.00    -0.494 OA
ATOM     25  C   LIG A   1      -1.029  -2.417   4.305  0.00  0.00    +0.277 C 
ENDBRANCH  16  24
BRANCH  18  26
ATOM     26  O   LIG A   1       0.719  -5.298   0.125  0.00  0.00    -0.506 OA
ATOM     27  H   LIG A   1       0.439  -5.974   0.765  0.00  0.00    +0.292 HD
ENDBRANCH  18  26
TORSDOF 4
