@<TRIPOS>MOLECULE
NuBBE_1966
 56 60 0 0 0
SMALL
GASTEIGER

@<TRIPOS>ATOM
      1 O          -2.8427    0.4343    0.3577 O.3     1  LIG1       -0.5063
      2 C          -1.4981    0.3939    0.1582 C.ar    1  LIG1        0.1248
      3 C          -0.8029   -0.7729   -0.0861 C.ar    1  LIG1        0.0469
      4 C          -1.2692   -2.1821   -0.2325 C.3     1  LIG1        0.0575
      5 H          -1.9152   -2.4537    0.6114 H       1  LIG1        0.0439
      6 C           0.1001   -2.9158   -0.1329 C.3     1  LIG1        0.1361
      7 H           0.1789   -3.7091   -0.8881 H       1  LIG1        0.0794
      8 O           1.1559   -1.9577   -0.4430 O.3     1  LIG1       -0.4829
      9 C           0.5723   -0.7285   -0.2582 C.ar    1  LIG1        0.1293
     10 C           1.2846    0.4553   -0.2310 C.ar    1  LIG1       -0.0122
     11 C           0.5870    1.6484    0.0000 C.ar    1  LIG1       -0.0181
     12 C          -0.8060    1.6043    0.2017 C.ar    1  LIG1       -0.0125
     13 C           1.3256    2.9185   -0.0580 C.2     1  LIG1       -0.0538
     14 C           1.0136    4.0202    0.6374 C.2     1  LIG1       -0.0540
     15 C           1.7709    5.2797    0.5530 C.ar    1  LIG1       -0.0248
     16 C           3.1512    5.2983    0.3039 C.ar    1  LIG1       -0.0511
     17 C           3.8534    6.5041    0.2508 C.ar    1  LIG1       -0.0196
     18 C           3.1757    7.6975    0.4654 C.ar    1  LIG1        0.1169
     19 C           1.8127    7.7029    0.7336 C.ar    1  LIG1       -0.0196
     20 C           1.1112    6.4949    0.7813 C.ar    1  LIG1       -0.0511
     21 O           3.8250    8.8951    0.4267 O.3     1  LIG1       -0.5068
     22 C           0.3489   -3.5667    1.2293 C.ar    1  LIG1       -0.0062
     23 C          -0.0674   -4.8901    1.4606 C.ar    1  LIG1       -0.0516
     24 C           0.1573   -5.5078    2.6975 C.ar    1  LIG1       -0.0198
     25 C           0.7907   -4.8008    3.7135 C.ar    1  LIG1        0.1169
     26 C           1.1999   -3.4911    3.5131 C.ar    1  LIG1       -0.0198
     27 C           0.9802   -2.8772    2.2786 C.ar    1  LIG1       -0.0516
     28 O           1.0355   -5.3593    4.9326 O.3     1  LIG1       -0.5068
     29 C          -2.0115   -2.4300   -1.5416 C.ar    1  LIG1       -0.0290
     30 C          -1.4219   -2.2165   -2.8033 C.ar    1  LIG1       -0.0161
     31 C          -2.1536   -2.4491   -3.9701 C.ar    1  LIG1        0.1206
     32 O          -1.6060   -2.2535   -5.2049 O.3     1  LIG1       -0.5066
     33 C          -3.4697   -2.8903   -3.9172 C.ar    1  LIG1        0.0213
     34 C          -4.0541   -3.1002   -2.6755 C.ar    1  LIG1        0.1206
     35 C          -3.3424   -2.8763   -1.4986 C.ar    1  LIG1       -0.0161
     36 O          -5.3421   -3.5333   -2.5586 O.3     1  LIG1       -0.5066
     37 H          -3.2188   -0.4448    0.1906 H       1  LIG1        0.2921
     38 H           2.3606    0.4429   -0.3745 H       1  LIG1        0.0660
     39 H          -1.3713    2.5172    0.3698 H       1  LIG1        0.0660
     40 H           2.1738    2.9148   -0.7404 H       1  LIG1        0.0624
     41 H           0.1595    4.0345    1.3122 H       1  LIG1        0.0624
     42 H           3.7011    4.3724    0.1588 H       1  LIG1        0.0625
     43 H           4.9192    6.4851    0.0497 H       1  LIG1        0.0654
     44 H           1.2969    8.6429    0.9071 H       1  LIG1        0.0654
     45 H           0.0440    6.5161    0.9917 H       1  LIG1        0.0625
     46 H           4.7621    8.7297    0.2322 H       1  LIG1        0.2921
     47 H          -0.5602   -5.4584    0.6738 H       1  LIG1        0.0623
     48 H          -0.1619   -6.5348    2.8461 H       1  LIG1        0.0654
     49 H           1.6961   -2.9467    4.3118 H       1  LIG1        0.0654
     50 H           1.3234   -1.8536    2.1498 H       1  LIG1        0.0623
     51 H           0.7164   -6.2760    4.9275 H       1  LIG1        0.2921
     52 H          -0.3955   -1.8644   -2.8744 H       1  LIG1        0.0657
     53 H          -0.7054   -1.9043   -5.0985 H       1  LIG1        0.2921
     54 H          -4.0138   -3.0599   -4.8403 H       1  LIG1        0.0691
     55 H          -3.8405   -3.0571   -0.5491 H       1  LIG1        0.0657
     56 H          -5.7135   -3.6409   -3.4507 H       1  LIG1        0.2921
@<TRIPOS>BOND
     1     1     2    1
     2     2     3   ar
     3     3     4    1
     4     4     6    1
     5     6     7    1
     6     6     8    1
     7     8     9    1
     8     3     9   ar
     9     9    10   ar
    10    10    11   ar
    11    11    12   ar
    12     2    12   ar
    13    11    13    1
    14    13    14    2
    15    14    15    1
    16    15    16   ar
    17    16    17   ar
    18    17    18   ar
    19    18    19   ar
    20    19    20   ar
    21    15    20   ar
    22    18    21    1
    23     6    22    1
    24    22    23   ar
    25    23    24   ar
    26    24    25   ar
    27    25    26   ar
    28    26    27   ar
    29    22    27   ar
    30    25    28    1
    31    29    30   ar
    32    30    31   ar
    33    31    32    1
    34    31    33   ar
    35    33    34   ar
    36    34    35   ar
    37    29    35   ar
    38    34    36    1
    39     4    29    1
    40     4     5    1
    41     1    37    1
    42    10    38    1
    43    12    39    1
    44    13    40    1
    45    14    41    1
    46    16    42    1
    47    17    43    1
    48    19    44    1
    49    20    45    1
    50    21    46    1
    51    23    47    1
    52    24    48    1
    53    26    49    1
    54    27    50    1
    55    28    51    1
    56    30    52    1
    57    32    53    1
    58    33    54    1
    59    35    55    1
    60    36    56    1
