REMARK  Name = NuBBE_1343
REMARK  10 active torsions:
REMARK  status: ('A' for Active; 'I' for Inactive)
REMARK    1  A    between atoms: C_1  and  C_2
REMARK    2  A    between atoms: C_4  and  O_5
REMARK    3  A    between atoms: C_6  and  C_7
REMARK    4  A    between atoms: C_7  and  C_8
REMARK    5  A    between atoms: C_7  and  C_9
REMARK    6  A    between atoms: C_9  and  C_10
REMARK    7  A    between atoms: C_10  and  C_11
REMARK    8  A    between atoms: C_11  and  C_12
REMARK    9  A    between atoms: C_12  and  C_13
REMARK   10  A    between atoms: C_12  and  C_14
REMARK                            x       y       z     vdW  Elec       q    Type
REMARK                         _______ _______ _______ _____ _____    ______ ____
ROOT
ATOM      1  C   LIG A   1      -4.574   1.710   1.823  0.00  0.00    +0.044 C 
ATOM      2  C   LIG A   1      -3.124   1.631   1.448  0.00  0.00    -0.047 A 
ATOM      3  C   LIG A   1      -2.709   1.860   0.133  0.00  0.00    +0.049 A 
ATOM      4  C   LIG A   1      -1.353   1.797  -0.198  0.00  0.00    +0.120 A 
ATOM      5  C   LIG A   1      -0.380   1.501   0.766  0.00  0.00    -0.003 A 
ATOM      6  C   LIG A   1      -0.813   1.233   2.075  0.00  0.00    +0.008 A 
ATOM      7  C   LIG A   1      -2.168   1.300   2.413  0.00  0.00    +0.004 A 
ENDROOT
BRANCH   4   8
ATOM      8  O   LIG A   1      -0.962   2.027  -1.488  0.00  0.00    -0.506 OA
ATOM      9  H   LIG A   1      -1.741   2.286  -2.006  0.00  0.00    +0.292 HD
ENDBRANCH   4   8
BRANCH   5  10
ATOM     10  C   LIG A   1       1.101   1.493   0.416  0.00  0.00    +0.020 C 
ATOM     11  C   LIG A   1       1.854   2.513   1.282  0.00  0.00    +0.013 C 
BRANCH  10  12
ATOM     12  C   LIG A   1       1.741   0.096   0.534  0.00  0.00    +0.015 C 
BRANCH  12  13
ATOM     13  C   LIG A   1       1.119  -0.921  -0.426  0.00  0.00    +0.075 C 
BRANCH  13  14
ATOM     14  C   LIG A   1       1.778  -2.289  -0.311  0.00  0.00    +0.136 C 
ATOM     15  O   LIG A   1       2.255  -2.688   0.751  0.00  0.00    -0.297 OA
BRANCH  14  16
ATOM     16  C   LIG A   1       1.786  -3.190  -1.544  0.00  0.00    +0.049 C 
ATOM     17  C   LIG A   1       0.371  -3.481  -2.026  0.00  0.00    +0.015 C 
ATOM     18  C   LIG A   1       2.647  -2.590  -2.650  0.00  0.00    +0.015 C 
ENDBRANCH  14  16
ENDBRANCH  13  14
ENDBRANCH  12  13
ENDBRANCH  10  12
ENDBRANCH   5  10
TORSDOF 6
