REMARK  Name = NuBBE_1317
REMARK  3 active torsions:
REMARK  status: ('A' for Active; 'I' for Inactive)
REMARK    1  A    between atoms: C_4  and  C_18
REMARK    2  A    between atoms: C_14  and  C_15
REMARK    3  A    between atoms: C_14  and  C_17
REMARK                            x       y       z     vdW  Elec       q    Type
REMARK                         _______ _______ _______ _____ _____    ______ ____
ROOT
ATOM      1  O   LIG A   1      -4.098  -0.665  -1.361  0.00  0.00    -0.292 OA
ATOM      2  C   LIG A   1      -2.901  -0.749  -1.104  0.00  0.00    +0.171 C 
ATOM      3  C   LIG A   1      -2.113  -2.002  -1.347  0.00  0.00    +0.129 C 
ATOM      4  C   LIG A   1      -0.990  -2.057  -0.322  0.00  0.00    +0.211 C 
ATOM      5  O   LIG A   1      -0.127  -0.917  -0.457  0.00  0.00    -0.482 OA
ATOM      6  C   LIG A   1      -0.786   0.281  -0.313  0.00  0.00    +0.142 A 
ATOM      7  C   LIG A   1      -2.150   0.419  -0.598  0.00  0.00    +0.060 A 
ATOM      8  C   LIG A   1      -2.789   1.650  -0.443  0.00  0.00    +0.019 A 
ATOM      9  C   LIG A   1      -2.056   2.754  -0.012  0.00  0.00    +0.047 A 
ATOM     10  C   LIG A   1      -0.691   2.630   0.260  0.00  0.00    +0.132 A 
ATOM     11  C   LIG A   1      -0.042   1.399   0.103  0.00  0.00    +0.059 A 
ATOM     12  C   LIG A   1       1.388   1.316   0.378  0.00  0.00    +0.015 C 
ATOM     13  C   LIG A   1       2.007   2.402   0.849  0.00  0.00    +0.020 C 
ATOM     14  C   LIG A   1       1.301   3.712   1.107  0.00  0.00    +0.123 C 
ATOM     15  C   LIG A   1       2.042   4.838   0.375  0.00  0.00    +0.060 C 
ATOM     16  O   LIG A   1      -0.068   3.779   0.658  0.00  0.00    -0.481 OA
ATOM     17  C   LIG A   1       1.288   3.997   2.613  0.00  0.00    +0.060 C 
ENDROOT
BRANCH   4  18
ATOM     18  C   LIG A   1      -0.165  -3.318  -0.501  0.00  0.00    -0.007 A 
ATOM     19  C   LIG A   1       0.829  -3.407  -1.488  0.00  0.00    +0.007 A 
ATOM     20  C   LIG A   1       1.562  -4.583  -1.656  0.00  0.00    +0.000 A 
ATOM     21  C   LIG A   1       1.306  -5.686  -0.845  0.00  0.00    +0.000 A 
ATOM     22  C   LIG A   1       0.318  -5.615   0.135  0.00  0.00    +0.000 A 
ATOM     23  C   LIG A   1      -0.415  -4.440   0.305  0.00  0.00    +0.007 A 
ENDBRANCH   4  18
TORSDOF 1
