@<TRIPOS>MOLECULE
NuBBE_2232
 54 57 0 0 0
SMALL
GASTEIGER

@<TRIPOS>ATOM
      1 C          -1.6008    1.6752    0.8733 C.3     1  LIG1       -0.0566
      2 C          -0.1582    1.1738    0.5384 C.3     1  LIG1        0.0030
      3 C           0.3195    0.2791    1.8058 C.3     1  LIG1       -0.0277
      4 C          -0.4703   -1.0369    1.8826 C.3     1  LIG1       -0.0485
      5 C          -0.4862   -1.8561    0.6067 C.3     1  LIG1       -0.0441
      6 C          -0.8292   -1.0729   -0.6753 C.3     1  LIG1        0.0067
      7 C          -2.3766   -0.9567   -0.8313 C.3     1  LIG1       -0.0233
      8 C          -0.1366    0.3391   -0.8416 C.3     1  LIG1        0.1032
      9 O           1.2394    0.0970   -1.2006 O.3     1  LIG1       -0.3849
     10 C          -0.6311    1.0172   -2.1872 C.3     1  LIG1        0.0855
     11 H           0.1206    1.7561   -2.5047 H       1  LIG1        0.0622
     12 O          -1.8629    1.7157   -2.1298 O.3     1  LIG1       -0.3889
     13 C          -0.7191   -0.0165   -3.3484 C.3     1  LIG1       -0.0176
     14 C          -1.3005   -1.4075   -2.9899 C.3     1  LIG1       -0.0171
     15 H          -1.3154   -2.0399   -3.8846 H       1  LIG1        0.0347
     16 C          -0.4249   -1.9794   -1.8886 C.3     1  LIG1       -0.0377
     17 C          -2.5896   -1.5538   -2.1957 C.2     1  LIG1       -0.0728
     18 C          -3.5234   -2.4537   -2.4291 C.2     1  LIG1       -0.0992
     19 H          -0.0217    0.8333    2.6965 H       1  LIG1        0.0312
     20 C           1.8859    0.1539    2.0290 C.3     1  LIG1       -0.0315
     21 C           2.3726   -0.4203    3.3938 C.3     1  LIG1       -0.0595
     22 C           2.5908   -0.8031    1.0434 C.3     1  LIG1       -0.0595
     23 C           2.3841    1.6211    2.0802 C.3     1  LIG1       -0.0476
     24 C           2.1520    2.4365    0.8308 C.3     1  LIG1       -0.0520
     25 C           0.6789    2.4954    0.4427 C.3     1  LIG1       -0.0446
     26 H          -2.3196    0.8710    1.0250 H       1  LIG1        0.0236
     27 H          -1.9935    2.3489    0.1094 H       1  LIG1        0.0236
     28 H          -1.6085    2.2545    1.8051 H       1  LIG1        0.0236
     29 H          -1.5109   -0.8098    2.1505 H       1  LIG1        0.0268
     30 H          -0.1080   -1.6593    2.7076 H       1  LIG1        0.0268
     31 H          -1.2205   -2.6647    0.7409 H       1  LIG1        0.0272
     32 H           0.4607   -2.3907    0.4968 H       1  LIG1        0.0272
     33 H          -2.7644    0.0627   -0.8307 H       1  LIG1        0.0316
     34 H          -2.9241   -1.4938   -0.0512 H       1  LIG1        0.0316
     35 H           1.7702    0.8818   -1.0156 H       1  LIG1        0.2103
     36 H          -1.6637    2.6549   -1.9797 H       1  LIG1        0.2099
     37 H           0.3135   -0.1992   -3.6903 H       1  LIG1        0.0297
     38 H          -1.2462    0.4144   -4.2060 H       1  LIG1        0.0297
     39 H           0.6395   -1.9545   -2.1400 H       1  LIG1        0.0277
     40 H          -0.6655   -3.0369   -1.7035 H       1  LIG1        0.0277
     41 H          -3.5037   -3.0913   -3.3173 H       1  LIG1        0.0534
     42 H          -4.2711   -2.7095   -1.6702 H       1  LIG1        0.0534
     43 H           2.2383    0.2679    4.2315 H       1  LIG1        0.0235
     44 H           3.4635   -0.5902    3.3286 H       1  LIG1        0.0235
     45 H           1.9284   -1.3871    3.6396 H       1  LIG1        0.0235
     46 H           2.0060   -1.0945    0.1903 H       1  LIG1        0.0235
     47 H           2.7648   -1.7885    1.4990 H       1  LIG1        0.0235
     48 H           3.5506   -0.4218    0.6910 H       1  LIG1        0.0235
     49 H           3.4376    1.6815    2.3729 H       1  LIG1        0.0271
     50 H           1.8333    2.1289    2.8912 H       1  LIG1        0.0271
     51 H           2.7915    2.0789    0.0225 H       1  LIG1        0.0266
     52 H           2.4857    3.4651    1.0281 H       1  LIG1        0.0266
     53 H           0.5881    2.9405   -0.5551 H       1  LIG1        0.0272
     54 H           0.2305    3.2441    1.1132 H       1  LIG1        0.0272
@<TRIPOS>BOND
     1     2     3    1
     2     3     4    1
     3     4     5    1
     4     5     6    1
     5     6     7    1
     6     6     8    1
     7     2     8    1
     8     8    10    1
     9    10    13    1
    10    13    14    1
    11    14    16    1
    12     6    16    1
    13    14    17    1
    14     7    17    1
    15     3    20    1
    16    20    23    1
    17    23    24    1
    18    24    25    1
    19     2    25    1
    20     1     2    1
    21     3    19    1
    22     8     9    1
    23    10    11    1
    24    10    12    1
    25    14    15    1
    26    17    18    2
    27    20    21    1
    28    20    22    1
    29     1    26    1
    30     1    27    1
    31     1    28    1
    32     4    29    1
    33     4    30    1
    34     5    31    1
    35     5    32    1
    36     7    33    1
    37     7    34    1
    38     9    35    1
    39    12    36    1
    40    13    37    1
    41    13    38    1
    42    16    39    1
    43    16    40    1
    44    18    41    1
    45    18    42    1
    46    21    43    1
    47    21    44    1
    48    21    45    1
    49    22    46    1
    50    22    47    1
    51    22    48    1
    52    23    49    1
    53    23    50    1
    54    24    51    1
    55    24    52    1
    56    25    53    1
    57    25    54    1
