@<TRIPOS>MOLECULE
NuBBE_1984
 27 27 0 0 0
SMALL
GASTEIGER

@<TRIPOS>ATOM
      1 O          -2.8103    0.0664    0.7612 O.3     1  LIG1       -0.4914
      2 C          -3.3429    1.0225    1.6716 C.3     1  LIG1        0.0790
      3 C          -1.4866    0.2172    0.4249 C.ar    1  LIG1        0.1620
      4 C          -0.7855    1.4286    0.2965 C.ar    1  LIG1        0.1615
      5 O          -1.4577    2.6067    0.5008 O.3     1  LIG1       -0.4915
      6 C          -0.7067    3.8104    0.3822 C.3     1  LIG1        0.0790
      7 C           0.5684    1.3843   -0.0510 C.ar    1  LIG1       -0.0157
      8 C           1.2112    0.1664   -0.2782 C.ar    1  LIG1       -0.0509
      9 C           0.5140   -1.0368   -0.2081 C.ar    1  LIG1       -0.0216
     10 C          -0.8393   -1.0026    0.1538 C.ar    1  LIG1       -0.0092
     11 C           1.1890   -2.3227   -0.4570 C.2     1  LIG1       -0.0587
     12 C           2.2263   -2.4509   -1.3002 C.2     1  LIG1       -0.0865
     13 C           2.9582   -3.7222   -1.5677 C.3     1  LIG1       -0.0465
     14 H          -4.2053    0.5657    2.1681 H       1  LIG1        0.0660
     15 H          -3.7081    1.9024    1.1337 H       1  LIG1        0.0660
     16 H          -2.6255    1.2975    2.4524 H       1  LIG1        0.0660
     17 H          -0.3862    3.9659   -0.6538 H       1  LIG1        0.0660
     18 H           0.1494    3.8158    1.0663 H       1  LIG1        0.0660
     19 H          -1.3531    4.6453    0.6640 H       1  LIG1        0.0660
     20 H           1.1692    2.2793   -0.1623 H       1  LIG1        0.0655
     21 H           2.2685    0.1883   -0.5141 H       1  LIG1        0.0625
     22 H          -1.4088   -1.9247    0.2312 H       1  LIG1        0.0661
     23 H           0.8018   -3.1838    0.0816 H       1  LIG1        0.0620
     24 H           2.5919   -1.5935   -1.8594 H       1  LIG1        0.0569
     25 H           2.5632   -4.5619   -0.9896 H       1  LIG1        0.0272
     26 H           4.0160   -3.5963   -1.3152 H       1  LIG1        0.0272
     27 H           2.8888   -3.9676   -2.6317 H       1  LIG1        0.0272
@<TRIPOS>BOND
     1     1     2    1
     2     1     3    1
     3     3     4   ar
     4     4     5    1
     5     5     6    1
     6     4     7   ar
     7     7     8   ar
     8     8     9   ar
     9     9    10   ar
    10     3    10   ar
    11     9    11    1
    12    11    12    2
    13    12    13    1
    14     2    14    1
    15     2    15    1
    16     2    16    1
    17     6    17    1
    18     6    18    1
    19     6    19    1
    20     7    20    1
    21     8    21    1
    22    10    22    1
    23    11    23    1
    24    12    24    1
    25    13    25    1
    26    13    26    1
    27    13    27    1
