REMARK  Name = NuBBE_980
REMARK  19 active torsions:
REMARK  status: ('A' for Active; 'I' for Inactive)
REMARK    1  A    between atoms: C_2  and  C_30
REMARK    2  A    between atoms: N_3  and  C_4
REMARK    3  A    between atoms: C_4  and  C_5
REMARK    4  A    between atoms: C_5  and  C_6
REMARK    5  A    between atoms: C_9  and  O_10
REMARK    6  A    between atoms: O_10  and  C_11
REMARK    7  A    between atoms: C_11  and  C_12
REMARK    8  A    between atoms: C_13  and  C_14
REMARK    9  A    between atoms: C_13  and  C_15
REMARK   10  A    between atoms: C_15  and  O_16
REMARK   11  A    between atoms: C_15  and  C_20
REMARK   12  A    between atoms: O_16  and  C_17
REMARK   13  A    between atoms: C_17  and  C_18
REMARK   14  A    between atoms: C_20  and  C_21
REMARK   15  A    between atoms: C_21  and  O_22
REMARK   16  A    between atoms: C_21  and  C_23
REMARK   17  A    between atoms: C_23  and  C_24
REMARK   18  A    between atoms: C_23  and  C_25
REMARK   19  A    between atoms: C_23  and  O_26
REMARK                            x       y       z     vdW  Elec       q    Type
REMARK                         _______ _______ _______ _____ _____    ______ ____
ROOT
ATOM      1  O   LIG A   1       0.624   0.735   0.674  0.00  0.00    -0.488 OA
ENDROOT
BRANCH   1   5
ATOM      2  C   LIG A   1      -3.515   0.185   0.829  0.00  0.00    -0.046 A 
ATOM      3  C   LIG A   1      -2.948   1.346   0.284  0.00  0.00    +0.007 A 
ATOM      4  C   LIG A   1      -1.561   1.517   0.258  0.00  0.00    +0.046 A 
ATOM      5  C   LIG A   1      -0.726   0.518   0.750  0.00  0.00    +0.121 A 
ATOM      6  C   LIG A   1      -1.275  -0.615   1.351  0.00  0.00    +0.046 A 
ATOM      7  C   LIG A   1      -2.665  -0.783   1.384  0.00  0.00    +0.007 A 
BRANCH   2   8
ATOM      8  C   LIG A   1      -5.013  -0.032   0.760  0.00  0.00    +0.054 C 
BRANCH   8   9
ATOM      9  C   LIG A   1      -5.411  -0.796  -0.510  0.00  0.00    +0.109 C 
BRANCH   9  12
ATOM     10  O   LIG A   1      -7.525   0.983  -1.280  0.00  0.00    -0.270 OA
ATOM     11  C   LIG A   1      -7.799  -0.193  -1.006  0.00  0.00    +0.244 C 
ATOM     12  N   LIG A   1      -6.843  -1.095  -0.593  0.00  0.00    -0.311 N 
ATOM     13  H   LIG A   1      -7.122  -2.049  -0.398  0.00  0.00    +0.149 HD
BRANCH  11  14
ATOM     14  C   LIG A   1      -9.216  -0.673  -1.157  0.00  0.00    +0.037 A 
ATOM     15  C   LIG A   1      -9.766  -1.744  -0.432  0.00  0.00    +0.013 A 
ATOM     16  C   LIG A   1     -11.108  -2.119  -0.627  0.00  0.00    +0.001 A 
ATOM     17  C   LIG A   1     -11.914  -1.427  -1.532  0.00  0.00    +0.000 A 
ATOM     18  C   LIG A   1     -11.384  -0.354  -2.241  0.00  0.00    +0.001 A 
ATOM     19  C   LIG A   1     -10.048   0.015  -2.057  0.00  0.00    +0.013 A 
ENDBRANCH  11  14
ENDBRANCH   9  12
ENDBRANCH   8   9
ENDBRANCH   2   8
ENDBRANCH   1   5
BRANCH   1  20
ATOM     20  C   LIG A   1       1.295  -0.283  -0.084  0.00  0.00    +0.257 C 
BRANCH  20  21
ATOM     21  C   LIG A   1       2.762   0.025  -0.049  0.00  0.00    +0.016 C 
ATOM     22  C   LIG A   1       3.709  -0.244  -0.975  0.00  0.00    -0.033 C 
ATOM     23  C   LIG A   1       3.404  -0.909  -2.298  0.00  0.00    +0.043 C 
BRANCH  22  24
ATOM     24  C   LIG A   1       5.190   0.115  -0.741  0.00  0.00    +0.205 C 
BRANCH  24  25
ATOM     25  O   LIG A   1       5.318   1.477  -1.178  0.00  0.00    -0.457 OA
BRANCH  25  26
ATOM     26  C   LIG A   1       5.554   1.635  -2.515  0.00  0.00    +0.304 C 
ATOM     27  C   LIG A   1       4.937   2.926  -2.972  0.00  0.00    +0.136 C 
ATOM     28  O   LIG A   1       6.040   0.805  -3.262  0.00  0.00    -0.251 OA
ENDBRANCH  25  26
ENDBRANCH  24  25
BRANCH  24  29
ATOM     29  C   LIG A   1       5.604  -0.019   0.754  0.00  0.00    +0.083 C 
BRANCH  29  30
ATOM     30  C   LIG A   1       7.087   0.259   1.057  0.00  0.00    +0.149 C 
BRANCH  30  31
ATOM     31  C   LIG A   1       7.519   0.012   2.545  0.00  0.00    +0.086 C 
ATOM     32  C   LIG A   1       6.760   0.884   3.552  0.00  0.00    +0.043 C 
ATOM     33  C   LIG A   1       7.404  -1.451   2.972  0.00  0.00    +0.043 C 
BRANCH  31  34
ATOM     34  O   LIG A   1       8.912   0.356   2.671  0.00  0.00    -0.387 OA
ATOM     35  H   LIG A   1       9.029   1.207   2.207  0.00  0.00    +0.210 HD
ENDBRANCH  31  34
ENDBRANCH  30  31
BRANCH  30  36
ATOM     36  O   LIG A   1       7.405   1.625   0.739  0.00  0.00    -0.389 OA
ATOM     37  H   LIG A   1       6.660   2.183   1.026  0.00  0.00    +0.210 HD
ENDBRANCH  30  36
ENDBRANCH  29  30
ENDBRANCH  24  29
ENDBRANCH  22  24
ENDBRANCH  20  21
ENDBRANCH   1  20
TORSDOF 15
