@<TRIPOS>MOLECULE
NuBBE_599
 32 34 0 0 0
SMALL
GASTEIGER

@<TRIPOS>ATOM
      1 C          -1.5681   -2.8003    1.6625 C.3     1  LIG1        0.0791
      2 O          -2.2504   -1.5644    1.4707 O.3     1  LIG1       -0.4895
      3 C          -1.5151   -0.4791    1.0183 C.ar    1  LIG1        0.1877
      4 C          -2.0531    0.7768    1.3853 C.ar    1  LIG1        0.1637
      5 O          -3.1835    0.7600    2.1678 O.3     1  LIG1       -0.4914
      6 C          -3.7424    2.0128    2.5427 C.3     1  LIG1        0.0790
      7 C          -1.4211    1.9412    0.9655 C.ar    1  LIG1       -0.0155
      8 C          -0.2627    1.8645    0.1985 C.ar    1  LIG1       -0.0453
      9 C           0.2861    0.6259   -0.1875 C.ar    1  LIG1        0.0467
     10 C          -0.3559   -0.5733    0.2140 C.ar    1  LIG1        0.1235
     11 N           0.1014   -1.7704   -0.1548 N.ar    1  LIG1       -0.2080
     12 C           1.2263   -1.8002   -0.8743 C.ar    1  LIG1        0.2312
     13 O           1.8006   -2.9719   -1.2531 O.2     1  LIG1       -0.4449
     14 C           2.9319   -2.6575   -1.9259 C.ar    1  LIG1        0.0952
     15 C           3.0873   -1.2919   -1.9909 C.ar    1  LIG1       -0.0109
     16 C           1.9701   -0.7200   -1.3165 C.ar    1  LIG1        0.0820
     17 C           1.4663    0.5521   -0.9851 C.ar    1  LIG1        0.1417
     18 O           2.0772    1.7606   -1.2952 O.3     1  LIG1       -0.4937
     19 C           2.7495    1.8043   -2.5474 C.3     1  LIG1        0.0788
     20 H          -0.6490   -2.6692    2.2445 H       1  LIG1        0.0660
     21 H          -1.3830   -3.3106    0.7126 H       1  LIG1        0.0660
     22 H          -2.2275   -3.4615    2.2330 H       1  LIG1        0.0660
     23 H          -4.5579    1.8241    3.2472 H       1  LIG1        0.0660
     24 H          -4.1620    2.5252    1.6704 H       1  LIG1        0.0660
     25 H          -3.0105    2.6446    3.0572 H       1  LIG1        0.0660
     26 H          -1.7951    2.9271    1.2169 H       1  LIG1        0.0655
     27 H           0.2138    2.7952   -0.1058 H       1  LIG1        0.0626
     28 H           3.5095   -3.4998   -2.2821 H       1  LIG1        0.1030
     29 H           3.9166   -0.7936   -2.4668 H       1  LIG1        0.0657
     30 H           2.8553    2.8551   -2.8341 H       1  LIG1        0.0660
     31 H           2.1866    1.2975   -3.3385 H       1  LIG1        0.0660
     32 H           3.7586    1.3969   -2.4493 H       1  LIG1        0.0660
@<TRIPOS>BOND
     1     1     2    1
     2     2     3    1
     3     3     4   ar
     4     4     5    1
     5     5     6    1
     6     4     7   ar
     7     7     8   ar
     8     8     9   ar
     9     9    10   ar
    10     3    10   ar
    11    10    11   ar
    12    11    12   ar
    13    12    13   ar
    14    13    14   ar
    15    14    15   ar
    16    12    16   ar
    17    15    16   ar
    18    16    17   ar
    19     9    17   ar
    20    17    18    1
    21    18    19    1
    22     1    20    1
    23     1    21    1
    24     1    22    1
    25     6    23    1
    26     6    24    1
    27     6    25    1
    28     7    26    1
    29     8    27    1
    30    14    28    1
    31    15    29    1
    32    19    30    1
    33    19    31    1
    34    19    32    1
