@<TRIPOS>MOLECULE
NuBBE_685
 57 59 0 0 0
SMALL
GASTEIGER

@<TRIPOS>ATOM
      1 O          -4.8279   -2.9967    0.2749 O.2     1  LIG1       -0.2500
      2 C          -3.9686   -2.4089   -0.3785 C.2     1  LIG1        0.3191
      3 C          -2.9093   -1.5063    0.1959 C.3     1  LIG1        0.1257
      4 H          -3.3632   -0.7861    0.8868 H       1  LIG1        0.0499
      5 C          -1.8170   -2.2675    0.9313 C.2     1  LIG1        0.1530
      6 C          -2.2026   -3.1053    2.1488 C.3     1  LIG1        0.0412
      7 H          -3.2839   -3.0224    2.2997 H       1  LIG1        0.0400
      8 C          -1.8374   -4.5603    1.8542 C.3     1  LIG1       -0.0533
      9 C          -1.4822   -2.5556    3.3902 C.3     1  LIG1        0.0617
     10 H          -0.3962   -2.5442    3.2378 H       1  LIG1        0.0597
     11 O          -1.9048   -1.2021    3.5870 O.3     1  LIG1       -0.3914
     12 C          -1.8100   -3.3383    4.6599 C.3     1  LIG1       -0.0383
     13 O          -0.6384   -2.2053    0.5722 O.2     1  LIG1       -0.2961
     14 O          -3.8583   -2.5040   -1.7446 O.3     1  LIG1       -0.4491
     15 C          -2.6398   -1.8843   -2.1413 C.3     1  LIG1        0.1813
     16 C          -2.5079   -0.7913   -1.0930 C.3     1  LIG1        0.0544
     17 H          -3.3388   -0.0834   -1.2803 H       1  LIG1        0.0405
     18 C          -1.2938    0.0691   -1.2518 C.2     1  LIG1        0.0047
     19 C          -0.7124    0.7349   -0.2421 C.2     1  LIG1        0.0966
     20 O           0.3760    1.5640   -0.3861 O.2     1  LIG1       -0.4632
     21 C           0.9623    1.6906   -1.6430 C.2     1  LIG1        0.1279
     22 C           2.1593    2.5103   -1.6715 C.2     1  LIG1       -0.0230
     23 C           2.6637    3.1513   -0.6025 C.2     1  LIG1       -0.0777
     24 C           3.8923    4.0300   -0.6355 C.3     1  LIG1       -0.0256
     25 H           4.5328    3.7231   -1.4727 H       1  LIG1        0.0340
     26 C           3.4583    5.4782   -0.8676 C.3     1  LIG1       -0.0590
     27 C           4.6909    3.8542    0.6716 C.3     1  LIG1       -0.0499
     28 H           4.0631    4.1018    1.5377 H       1  LIG1        0.0268
     29 H           4.9724    2.7990    0.7833 H       1  LIG1        0.0268
     30 C           5.9569    4.6971    0.7366 C.3     1  LIG1       -0.0648
     31 C           0.4491    1.0958   -2.7379 C.2     1  LIG1       -0.0104
     32 C          -0.7686    0.2828   -2.6182 C.2     1  LIG1        0.0068
     33 C          -1.4000   -0.2533   -3.6902 C.2     1  LIG1        0.0949
     34 CL         -0.9080   -0.0277   -5.3319 Cl      1  LIG1       -0.0792
     35 C          -1.5883   -3.0010   -2.2312 C.3     1  LIG1       -0.0167
     36 C          -2.5967   -1.1507   -3.4891 C.2     1  LIG1        0.2184
     37 O          -3.4506   -1.3056   -4.3605 O.2     1  LIG1       -0.2868
     38 H          -2.2561   -4.8847    0.8958 H       1  LIG1        0.0237
     39 H          -2.2185   -5.2341    2.6269 H       1  LIG1        0.0237
     40 H          -0.7502   -4.6918    1.7975 H       1  LIG1        0.0237
     41 H          -1.3749   -0.8440    4.3234 H       1  LIG1        0.2098
     42 H          -1.4798   -4.3792    4.5995 H       1  LIG1        0.0255
     43 H          -2.8875   -3.3218    4.8588 H       1  LIG1        0.0255
     44 H          -1.3244   -2.8831    5.5301 H       1  LIG1        0.0255
     45 H          -1.0283    0.7133    0.7922 H       1  LIG1        0.1032
     46 H           2.6540    2.6187   -2.6343 H       1  LIG1        0.0651
     47 H           2.1618    3.0689    0.3608 H       1  LIG1        0.0576
     48 H           2.8429    5.5622   -1.7710 H       1  LIG1        0.0235
     49 H           4.3231    6.1334   -1.0089 H       1  LIG1        0.0235
     50 H           2.8718    5.8614   -0.0253 H       1  LIG1        0.0235
     51 H           5.7236    5.7650    0.7850 H       1  LIG1        0.0230
     52 H           6.5955    4.5179   -0.1334 H       1  LIG1        0.0230
     53 H           6.5283    4.4471    1.6365 H       1  LIG1        0.0230
     54 H           0.9356    1.2054   -3.7012 H       1  LIG1        0.0661
     55 H          -1.6263   -3.6860   -1.3800 H       1  LIG1        0.0273
     56 H          -0.5670   -2.6253   -2.3390 H       1  LIG1        0.0273
     57 H          -1.7958   -3.6254   -3.1112 H       1  LIG1        0.0273
@<TRIPOS>BOND
     1     2     3    1
     2     5     6    1
     3     6     7    1
     4     6     8    1
     5     6     9    1
     6     9    10    1
     7     9    11    1
     8     9    12    1
     9     5    13    2
    10     2    14    1
    11    14    15    1
    12    15    16    1
    13     3    16    1
    14    16    18    1
    15    18    19    2
    16    19    20    1
    17    20    21    1
    18    22    23    2
    19    23    24    1
    20    24    25    1
    21    24    26    1
    22    24    27    1
    23    27    28    1
    24    27    29    1
    25    27    30    1
    26    21    31    2
    27    31    32    1
    28    18    32    1
    29    32    33    2
    30    15    36    1
    31    33    36    1
    32     1     2    2
    33    15    35    1
    34    16    17    1
    35    21    22    1
    36    33    34    1
    37    36    37    2
    38     3     5    1
    39     3     4    1
    40     8    38    1
    41     8    39    1
    42     8    40    1
    43    11    41    1
    44    12    42    1
    45    12    43    1
    46    12    44    1
    47    19    45    1
    48    22    46    1
    49    23    47    1
    50    26    48    1
    51    26    49    1
    52    26    50    1
    53    30    51    1
    54    30    52    1
    55    30    53    1
    56    31    54    1
    57    35    55    1
    58    35    56    1
    59    35    57    1
