@<TRIPOS>MOLECULE
NuBBE_410
 42 45 0 0 0
SMALL
GASTEIGER

@<TRIPOS>ATOM
      1 O          -3.7425    5.1514   -3.9664 O.3     1  LIG1       -0.3950
      2 C          -2.4437    4.6160   -4.1876 C.3     1  LIG1        0.0445
      3 C          -2.0429    3.7797   -2.9765 C.3     1  LIG1       -0.0257
      4 C          -0.6488    3.1724   -3.1368 C.3     1  LIG1       -0.0255
      5 C          -0.2444    2.3009   -1.9659 C.ar    1  LIG1       -0.0430
      6 C          -0.5357    0.9227   -1.9780 C.ar    1  LIG1       -0.0475
      7 C          -0.1325    0.1153   -0.8956 C.ar    1  LIG1        0.0247
      8 C           0.5301    0.7136    0.1695 C.ar    1  LIG1        0.1771
      9 O           0.8289   -0.2277    1.1036 O.2     1  LIG1       -0.4511
     10 C           0.3788   -1.4360    0.6619 C.ar    1  LIG1        0.1365
     11 C           0.6338   -2.5637    1.5594 C.ar    1  LIG1        0.0210
     12 C           0.2197   -3.8594    1.2111 C.ar    1  LIG1       -0.0055
     13 C           0.4798   -4.8885    2.0972 C.ar    1  LIG1        0.1669
     14 C           1.1244   -4.6794    3.2928 C.ar    1  LIG1        0.1663
     15 O           1.2741   -5.8222    4.0105 O.3     1  LIG1       -0.4526
     16 C           0.6497   -6.7779    3.1305 C.3     1  LIG1        0.2332
     17 O           0.1434   -6.1934    1.9114 O.3     1  LIG1       -0.4526
     18 C           1.5503   -3.4281    3.6740 C.ar    1  LIG1       -0.0155
     19 C           1.2999   -2.3682    2.7970 C.ar    1  LIG1       -0.0474
     20 C          -0.2214   -1.2687   -0.5679 C.ar    1  LIG1       -0.0080
     21 C           0.8348    2.0785    0.2328 C.ar    1  LIG1        0.1630
     22 O           1.4973    2.7521    1.2472 O.3     1  LIG1       -0.4914
     23 C           1.9565    1.9433    2.3266 C.3     1  LIG1        0.0790
     24 C           0.4280    2.8580   -0.8620 C.ar    1  LIG1       -0.0131
     25 H          -4.0086    5.6150   -4.7792 H       1  LIG1        0.2094
     26 H          -1.7480    5.4469   -4.3434 H       1  LIG1        0.0557
     27 H          -2.4744    4.0038   -5.0948 H       1  LIG1        0.0557
     28 H          -2.7909    2.9912   -2.8244 H       1  LIG1        0.0290
     29 H          -2.0876    4.4047   -2.0756 H       1  LIG1        0.0290
     30 H           0.0943    3.9694   -3.2667 H       1  LIG1        0.0314
     31 H          -0.6062    2.5739   -4.0561 H       1  LIG1        0.0314
     32 H          -1.0556    0.4758   -2.8240 H       1  LIG1        0.0627
     33 H          -0.2909   -4.0680    0.2799 H       1  LIG1        0.0662
     34 H          -0.1825   -7.2532    3.6629 H       1  LIG1        0.1166
     35 H           1.3861   -7.5473    2.8704 H       1  LIG1        0.1166
     36 H           2.0577   -3.2732    4.6162 H       1  LIG1        0.0655
     37 H           1.6322   -1.3717    3.0854 H       1  LIG1        0.0626
     38 H          -0.6720   -2.0463   -1.1734 H       1  LIG1        0.0661
     39 H           2.4536    2.5944    3.0518 H       1  LIG1        0.0660
     40 H           2.6964    1.2106    1.9851 H       1  LIG1        0.0660
     41 H           1.1219    1.4612    2.8470 H       1  LIG1        0.0660
     42 H           0.6571    3.9224   -0.8498 H       1  LIG1        0.0658
@<TRIPOS>BOND
     1     1     2    1
     2     2     3    1
     3     3     4    1
     4     4     5    1
     5     5     6   ar
     6     6     7   ar
     7     7     8   ar
     8     8     9   ar
     9     9    10   ar
    10    10    11    1
    11    11    12   ar
    12    12    13   ar
    13    13    14   ar
    14    14    15    1
    15    15    16    1
    16    16    17    1
    17    13    17    1
    18    14    18   ar
    19    18    19   ar
    20    11    19   ar
    21    10    20   ar
    22     7    20   ar
    23     8    21   ar
    24    21    22    1
    25    22    23    1
    26    21    24   ar
    27     5    24   ar
    28     1    25    1
    29     2    26    1
    30     2    27    1
    31     3    28    1
    32     3    29    1
    33     4    30    1
    34     4    31    1
    35     6    32    1
    36    12    33    1
    37    16    34    1
    38    16    35    1
    39    18    36    1
    40    19    37    1
    41    20    38    1
    42    23    39    1
    43    23    40    1
    44    23    41    1
    45    24    42    1
