REMARK  Name = NuBBE_1718
REMARK  12 active torsions:
REMARK  status: ('A' for Active; 'I' for Inactive)
REMARK    1  A    between atoms: O_1  and  C_2
REMARK    2  A    between atoms: O_1  and  C_5
REMARK    3  A    between atoms: C_2  and  C_4
REMARK    4  A    between atoms: C_11  and  C_26
REMARK    5  A    between atoms: C_14  and  O_16
REMARK    6  A    between atoms: O_16  and  C_17
REMARK    7  A    between atoms: C_17  and  C_19
REMARK    8  A    between atoms: C_20  and  C_21
REMARK    9  A    between atoms: C_20  and  C_22
REMARK   10  A    between atoms: C_30  and  C_32
REMARK   11  A    between atoms: C_32  and  O_34
REMARK   12  A    between atoms: O_34  and  C_35
REMARK                            x       y       z     vdW  Elec       q    Type
REMARK                         _______ _______ _______ _____ _____    ______ ____
ROOT
ATOM      1  C   LIG A   1       0.215   0.709  -0.992  0.00  0.00    +0.222 C 
ATOM      2  C   LIG A   1       0.151   1.230   0.474  0.00  0.00    +0.056 C 
ATOM      3  C   LIG A   1      -0.810   0.306   1.323  0.00  0.00    +0.010 C 
ATOM      4  C   LIG A   1      -0.265  -1.181   1.336  0.00  0.00    -0.022 C 
ATOM      5  C   LIG A   1      -0.349  -1.744  -0.128  0.00  0.00    +0.045 C 
ATOM      6  C   LIG A   1       0.290  -0.842  -1.220  0.00  0.00    +0.221 C 
ATOM      7  C   LIG A   1      -0.086  -3.313  -0.182  0.00  0.00    -0.028 C 
ATOM      8  C   LIG A   1       0.076  -3.887  -1.604  0.00  0.00    +0.011 C 
ATOM      9  C   LIG A   1       1.175  -3.801   0.572  0.00  0.00    +0.011 C 
ATOM     10  C   LIG A   1      -1.327  -3.984   0.481  0.00  0.00    +0.007 C 
ATOM     11  C   LIG A   1      -2.042  -3.103   1.517  0.00  0.00    +0.001 C 
ATOM     12  C   LIG A   1      -1.122  -2.127   2.259  0.00  0.00    +0.007 C 
ATOM     13  C   LIG A   1       1.199  -1.133   1.875  0.00  0.00    +0.012 C 
ATOM     14  C   LIG A   1      -1.070   0.832   2.768  0.00  0.00    +0.079 C 
ATOM     15  C   LIG A   1      -1.110   2.298   2.803  0.00  0.00    +0.109 A 
ATOM     16  C   LIG A   1      -0.745   3.195   1.835  0.00  0.00    +0.008 A 
ATOM     17  C   LIG A   1      -0.225   2.768   0.504  0.00  0.00    +0.138 C 
ATOM     18  C   LIG A   1      -1.020   4.473   2.389  0.00  0.00    +0.045 A 
ATOM     19  C   LIG A   1      -1.483   4.248   3.668  0.00  0.00    +0.195 A 
ATOM     20  O   LIG A   1      -1.545   2.915   3.925  0.00  0.00    -0.468 OA
ENDROOT
BRANCH  17  21
ATOM     21  C   LIG A   1       0.969   3.640   0.108  0.00  0.00    +0.315 C 
ATOM     22  O   LIG A   1       2.144   3.435   0.405  0.00  0.00    -0.250 OA
BRANCH  21  23
ATOM     23  O   LIG A   1       0.539   4.622  -0.732  0.00  0.00    -0.468 OA
ATOM     24  C   LIG A   1       1.494   5.111  -1.672  0.00  0.00    +0.280 C 
ENDBRANCH  21  23
ENDBRANCH  17  21
BRANCH   1  25
ATOM     25  O   LIG A   1       1.232   1.402  -1.783  0.00  0.00    -0.458 OA
BRANCH  25  26
ATOM     26  C   LIG A   1       2.549   1.164  -1.524  0.00  0.00    +0.304 C 
ATOM     27  O   LIG A   1       2.974   0.443  -0.637  0.00  0.00    -0.251 OA
ATOM     28  C   LIG A   1       3.423   1.924  -2.473  0.00  0.00    +0.136 C 
ENDBRANCH  25  26
ENDBRANCH   1  25
BRANCH   6  29
ATOM     29  O   LIG A   1      -0.293  -1.144  -2.551  0.00  0.00    -0.458 OA
BRANCH  29  30
ATOM     30  C   LIG A   1      -1.627  -0.946  -2.779  0.00  0.00    +0.304 C 
ATOM     31  O   LIG A   1      -2.430  -0.497  -1.970  0.00  0.00    -0.251 OA
ATOM     32  C   LIG A   1      -2.030  -1.395  -4.151  0.00  0.00    +0.136 C 
ENDBRANCH  29  30
ENDBRANCH   6  29
TORSDOF 6
