@<TRIPOS>MOLECULE
NuBBE_1889
 55 57 0 0 0
SMALL
GASTEIGER

@<TRIPOS>ATOM
      1 O          -3.1092   -2.0755    1.3008 O.2     1  LIG1       -0.2830
      2 C          -1.9447   -1.7920    1.0547 C.ar    1  LIG1        0.2381
      3 C          -0.9549   -2.8314    0.7192 C.ar    1  LIG1        0.1094
      4 C          -1.0634   -4.1792    1.1083 C.ar    1  LIG1        0.1380
      5 C          -0.0010   -5.0480    0.8280 C.ar    1  LIG1        0.0227
      6 C           1.1391   -4.5886    0.1487 C.ar    1  LIG1        0.1271
      7 C           1.2054   -3.2666   -0.2769 C.ar    1  LIG1        0.0233
      8 C           0.1563   -2.3976   -0.0016 C.ar    1  LIG1        0.1466
      9 O           0.2646   -1.1209   -0.4946 O.2     1  LIG1       -0.4505
     10 C          -0.4555   -0.1284    0.1503 C.ar    1  LIG1        0.1845
     11 C          -0.0059    1.2240   -0.2244 C.ar    1  LIG1        0.0671
     12 C           1.0952    1.7871    0.4295 C.ar    1  LIG1       -0.0012
     13 C           1.6180    3.0230    0.0113 C.ar    1  LIG1        0.1739
     14 O           2.7353    3.6074    0.6525 O.3     1  LIG1       -0.4223
     15 C           2.8867    3.5094    2.0331 C.2     1  LIG1        0.3093
     16 C           4.0658    4.3203    2.4689 C.3     1  LIG1        0.0336
     17 O           2.1669    2.9027    2.8157 O.2     1  LIG1       -0.2507
     18 C           1.0888    3.7048   -1.0961 C.ar    1  LIG1        0.1657
     19 C          -0.0153    3.1517   -1.7361 C.ar    1  LIG1        0.0269
     20 C          -0.5758    1.9426   -1.2873 C.ar    1  LIG1        0.1461
     21 O          -1.6215    1.3655   -2.0342 O.3     1  LIG1       -0.4252
     22 C          -2.5696    2.2576   -2.5493 C.2     1  LIG1        0.3092
     23 C          -2.8509    1.8500   -3.9759 C.3     1  LIG1        0.0336
     24 O          -3.0086    3.2635   -2.0161 O.2     1  LIG1       -0.2507
     25 O           1.6940    4.8749   -1.4836 O.3     1  LIG1       -0.4913
     26 C           1.1123    5.5672   -2.5899 C.3     1  LIG1        0.0790
     27 C          -1.4525   -0.3731    1.0236 C.ar    1  LIG1        0.2108
     28 O          -1.9747    0.6432    1.8056 O.3     1  LIG1       -0.4883
     29 C          -3.1656    0.3625    2.5284 C.3     1  LIG1        0.0791
     30 O           2.1406   -5.5085   -0.0144 O.3     1  LIG1       -0.4949
     31 C           2.9965   -5.2788   -1.1305 C.3     1  LIG1        0.0788
     32 O          -2.2438   -4.5916    1.6608 O.3     1  LIG1       -0.4942
     33 C          -2.2235   -5.6596    2.5979 C.3     1  LIG1        0.0788
     34 H          -0.0456   -6.1014    1.0846 H       1  LIG1        0.0691
     35 H           2.0665   -2.8687   -0.8027 H       1  LIG1        0.0691
     36 H           1.5388    1.2522    1.2626 H       1  LIG1        0.0664
     37 H           4.8227    4.3715    1.6816 H       1  LIG1        0.0342
     38 H           4.5247    3.8456    3.3415 H       1  LIG1        0.0342
     39 H           3.7219    5.3231    2.7291 H       1  LIG1        0.0342
     40 H          -0.4519    3.6413   -2.5986 H       1  LIG1        0.0692
     41 H          -3.5296    2.5728   -4.4349 H       1  LIG1        0.0342
     42 H          -3.2962    0.8564   -4.0062 H       1  LIG1        0.0342
     43 H          -1.9118    1.8679   -4.5353 H       1  LIG1        0.0342
     44 H           1.6665    6.4975   -2.7476 H       1  LIG1        0.0660
     45 H           0.0692    5.8381   -2.3890 H       1  LIG1        0.0660
     46 H           1.1919    4.9768   -3.5106 H       1  LIG1        0.0660
     47 H          -4.0133    0.3872    1.8390 H       1  LIG1        0.0660
     48 H          -3.3043    1.1501    3.2747 H       1  LIG1        0.0660
     49 H          -3.1222   -0.5797    3.0845 H       1  LIG1        0.0660
     50 H           3.7621   -6.0592   -1.1396 H       1  LIG1        0.0660
     51 H           3.5232   -4.3220   -1.0624 H       1  LIG1        0.0660
     52 H           2.4232   -5.3459   -2.0608 H       1  LIG1        0.0660
     53 H          -3.2641   -5.9245    2.8153 H       1  LIG1        0.0660
     54 H          -1.7579   -5.3329    3.5324 H       1  LIG1        0.0660
     55 H          -1.7432   -6.5636    2.2159 H       1  LIG1        0.0660
@<TRIPOS>BOND
     1     1     2    2
     2     2     3   ar
     3     3     4   ar
     4     4     5   ar
     5     5     6   ar
     6     6     7   ar
     7     7     8   ar
     8     3     8   ar
     9     8     9   ar
    10     9    10   ar
    11    10    11    1
    12    11    12   ar
    13    12    13   ar
    14    13    14    1
    15    14    15    1
    16    15    16    1
    17    15    17    2
    18    13    18   ar
    19    18    19   ar
    20    19    20   ar
    21    11    20   ar
    22    20    21    1
    23    21    22    1
    24    22    23    1
    25    22    24    2
    26    18    25    1
    27    25    26    1
    28    10    27   ar
    29     2    27   ar
    30    27    28    1
    31    28    29    1
    32     6    30    1
    33    30    31    1
    34     4    32    1
    35    32    33    1
    36     5    34    1
    37     7    35    1
    38    12    36    1
    39    16    37    1
    40    16    38    1
    41    16    39    1
    42    19    40    1
    43    23    41    1
    44    23    42    1
    45    23    43    1
    46    26    44    1
    47    26    45    1
    48    26    46    1
    49    29    47    1
    50    29    48    1
    51    29    49    1
    52    31    50    1
    53    31    51    1
    54    31    52    1
    55    33    53    1
    56    33    54    1
    57    33    55    1
