@<TRIPOS>MOLECULE
NuBBE_1394
 40 41 0 0 0
SMALL
GASTEIGER

@<TRIPOS>ATOM
      1 C          -1.3876   -2.4719    1.7783 C.3     1  LIG1       -0.0333
      2 C          -0.7694   -2.3542    0.3858 C.3     1  LIG1        0.0935
      3 C           0.8125   -2.6662   -0.0672 C.3     1  LIG1        0.0889
      4 H           1.1963   -2.9208   -1.0464 H       1  LIG1        0.0625
      5 O          -0.1302   -3.6230    0.2814 O.3     1  LIG1       -0.3650
      6 C           1.7718   -1.7101    0.6149 C.3     1  LIG1       -0.0153
      7 C           1.3457   -0.2587    0.0833 C.3     1  LIG1       -0.0144
      8 C           1.1347   -0.5131   -1.4716 C.3     1  LIG1       -0.0563
      9 C           0.2601    0.0447    1.1816 C.3     1  LIG1       -0.0563
     10 C           2.1363    1.1067    0.1120 C.2     1  LIG1       -0.0819
     11 C           1.9106    2.0621   -0.8924 C.2     1  LIG1       -0.0834
     12 C           0.7430    3.0888   -0.8376 C.3     1  LIG1       -0.0138
     13 C          -0.5750    2.4528   -0.2728 C.2     1  LIG1       -0.0728
     14 C          -1.0719    1.3782   -1.0030 C.2     1  LIG1       -0.0846
     15 C          -1.9025   -0.0063   -1.0113 C.3     1  LIG1       -0.0318
     16 C          -1.6962   -1.7046   -0.7012 C.3     1  LIG1       -0.0181
     17 C          -0.7416    3.0124    1.1404 C.3     1  LIG1       -0.0435
     18 H          -0.6760   -2.1898    2.5579 H       1  LIG1        0.0258
     19 H          -1.6747   -3.5148    1.9858 H       1  LIG1        0.0258
     20 H          -2.2959   -1.8746    1.8777 H       1  LIG1        0.0258
     21 H           2.8092   -1.9072    0.3318 H       1  LIG1        0.0299
     22 H           1.7296   -1.8204    1.7053 H       1  LIG1        0.0299
     23 H           0.4645   -1.3081   -1.7819 H       1  LIG1        0.0238
     24 H           2.1121   -0.7678   -1.9069 H       1  LIG1        0.0238
     25 H           0.7564    0.2986   -2.0800 H       1  LIG1        0.0238
     26 H          -0.7622   -0.2380    0.9944 H       1  LIG1        0.0238
     27 H           0.1950    1.0723    1.4505 H       1  LIG1        0.0238
     28 H           0.5238   -0.3504    2.1696 H       1  LIG1        0.0238
     29 H           2.1605    1.5191    1.1032 H       1  LIG1        0.0574
     30 H           2.0231    1.7597   -1.9189 H       1  LIG1        0.0572
     31 H           1.0797    3.9571   -0.2639 H       1  LIG1        0.0352
     32 H           0.5409    3.4857   -1.8570 H       1  LIG1        0.0352
     33 H          -0.7929    1.5466   -2.0495 H       1  LIG1        0.0572
     34 H          -1.8229   -0.1476   -2.1106 H       1  LIG1        0.0308
     35 H          -2.9710    0.2233   -0.9302 H       1  LIG1        0.0308
     36 H          -1.4931   -2.1957   -1.6632 H       1  LIG1        0.0297
     37 H          -2.7161   -2.0295   -0.4501 H       1  LIG1        0.0297
     38 H          -1.1443    4.0323    1.1258 H       1  LIG1        0.0274
     39 H           0.2555    3.1268    1.6136 H       1  LIG1        0.0274
     40 H          -1.3378    2.4055    1.8222 H       1  LIG1        0.0274
@<TRIPOS>BOND
     1     1     2    1
     2     2     3    1
     3     3     4    1
     4     3     5    1
     5     2     5    1
     6     3     6    1
     7     6     7    1
     8     7     8    1
     9     7     9    1
    10     7    10    1
    11    10    11    2
    12    11    12    1
    13    12    13    1
    14    13    14    2
    15    14    15    1
    16    15    16    1
    17     2    16    1
    18    13    17    1
    19     1    18    1
    20     1    19    1
    21     1    20    1
    22     6    21    1
    23     6    22    1
    24     8    23    1
    25     8    24    1
    26     8    25    1
    27     9    26    1
    28     9    27    1
    29     9    28    1
    30    10    29    1
    31    11    30    1
    32    12    31    1
    33    12    32    1
    34    14    33    1
    35    15    34    1
    36    15    35    1
    37    16    36    1
    38    16    37    1
    39    17    38    1
    40    17    39    1
    41    17    40    1
