REMARK  Name = NuBBE_2145
REMARK  17 active torsions:
REMARK  status: ('A' for Active; 'I' for Inactive)
REMARK    1  A    between atoms: O_1  and  C_2
REMARK    2  A    between atoms: C_2  and  C_3
REMARK    3  A    between atoms: C_3  and  C_4
REMARK    4  A    between atoms: C_4  and  C_5
REMARK    5  A    between atoms: C_5  and  C_6
REMARK    6  A    between atoms: C_6  and  C_7
REMARK    7  A    between atoms: C_7  and  C_8
REMARK    8  A    between atoms: C_8  and  C_9
REMARK    9  A    between atoms: C_9  and  C_10
REMARK   10  A    between atoms: C_11  and  C_12
REMARK   11  A    between atoms: C_12  and  C_13
REMARK   12  A    between atoms: C_13  and  C_14
REMARK   13  A    between atoms: C_14  and  C_15
REMARK   14  A    between atoms: C_15  and  C_16
REMARK   15  A    between atoms: C_16  and  C_17
REMARK   16  A    between atoms: C_17  and  C_18
REMARK   17  A    between atoms: C_18  and  C_19
REMARK                            x       y       z     vdW  Elec       q    Type
REMARK                         _______ _______ _______ _____ _____    ______ ____
ROOT
ATOM      1  C   LIG A   1      -1.288   0.261  -0.274  0.00  0.00    +0.027 C 
ENDROOT
BRANCH   1   2
ATOM      2  C   LIG A   1      -2.544  -0.210   0.419  0.00  0.00    -0.031 C 
ATOM      3  C   LIG A   1      -2.899  -1.477   0.697  0.00  0.00    -0.031 C 
BRANCH   3   4
ATOM      4  C   LIG A   1      -2.232  -2.767   0.292  0.00  0.00    +0.027 C 
BRANCH   4   5
ATOM      5  C   LIG A   1      -0.784  -3.010   0.730  0.00  0.00    +0.004 C 
BRANCH   5   6
ATOM      6  C   LIG A   1      -0.219  -4.355   0.244  0.00  0.00    +0.000 C 
BRANCH   6   7
ATOM      7  C   LIG A   1      -0.169  -4.572  -1.280  0.00  0.00    +0.000 C 
BRANCH   7   8
ATOM      8  C   LIG A   1       0.726  -3.605  -2.079  0.00  0.00    -0.000 C 
BRANCH   8   9
ATOM      9  C   LIG A   1       2.206  -3.736  -1.699  0.00  0.00    -0.000 C 
BRANCH   9  10
ATOM     10  C   LIG A   1       3.186  -2.839  -2.462  0.00  0.00    -0.003 C 
ATOM     11  C   LIG A   1       2.946  -1.353  -2.256  0.00  0.00    +0.004 C 
ENDBRANCH   9  10
ENDBRANCH   8   9
ENDBRANCH   7   8
ENDBRANCH   6   7
ENDBRANCH   5   6
ENDBRANCH   4   5
ENDBRANCH   3   4
ENDBRANCH   1   2
BRANCH   1  12
ATOM     12  C   LIG A   1      -0.946   1.686   0.132  0.00  0.00    +0.004 C 
BRANCH  12  13
ATOM     13  C   LIG A   1       0.394   2.204  -0.404  0.00  0.00    +0.000 C 
BRANCH  13  14
ATOM     14  C   LIG A   1       0.758   3.634   0.035  0.00  0.00    +0.000 C 
BRANCH  14  15
ATOM     15  C   LIG A   1       1.011   3.827   1.540  0.00  0.00    +0.000 C 
BRANCH  15  16
ATOM     16  C   LIG A   1      -0.174   3.591   2.485  0.00  0.00    +0.011 C 
BRANCH  16  17
ATOM     17  C   LIG A   1      -1.433   4.370   2.118  0.00  0.00    +0.120 C 
BRANCH  17  18
ATOM     18  C   LIG A   1      -1.214   5.840   2.344  0.00  0.00    +0.305 C 
ATOM     19  O   LIG A   1      -1.379   6.430   3.374  0.00  0.00    -0.251 OA
BRANCH  18  20
ATOM     20  O   LIG A   1      -0.729   6.464   1.249  0.00  0.00    -0.481 OA
ATOM     21  H   LIG A   1      -0.586   7.386   1.547  0.00  0.00    +0.295 HD
ENDBRANCH  18  20
ENDBRANCH  17  18
ENDBRANCH  16  17
ENDBRANCH  15  16
ENDBRANCH  14  15
ENDBRANCH  13  14
ENDBRANCH  12  13
ENDBRANCH   1  12
TORSDOF 16
