REMARK  Name = NuBBE_495
REMARK  10 active torsions:
REMARK  status: ('A' for Active; 'I' for Inactive)
REMARK    1  A    between atoms: C_1  and  C_2
REMARK    2  A    between atoms: C_7  and  C_10
REMARK    3  A    between atoms: C_11  and  C_17
REMARK    4  A    between atoms: C_27  and  O_39
REMARK    5  A    between atoms: C_29  and  C_37
REMARK    6  A    between atoms: C_29  and  C_38
REMARK    7  A    between atoms: C_30  and  C_32
REMARK    8  A    between atoms: C_32  and  C_33
REMARK    9  A    between atoms: C_33  and  O_35
REMARK   10  A    between atoms: O_35  and  C_36
REMARK                            x       y       z     vdW  Elec       q    Type
REMARK                         _______ _______ _______ _____ _____    ______ ____
ROOT
ATOM      1  C   LIG A   1      -0.530   2.765  -1.201  0.00  0.00    +0.020 C 
ATOM      2  C   LIG A   1      -0.155   1.265  -1.269  0.00  0.00    +0.037 C 
ATOM      3  C   LIG A   1      -0.505   0.511   0.075  0.00  0.00    +0.028 C 
ATOM      4  C   LIG A   1      -0.700  -1.005  -0.067  0.00  0.00    -0.064 C 
ATOM      5  C   LIG A   1      -1.291  -1.736   0.909  0.00  0.00    -0.050 C 
ATOM      6  C   LIG A   1      -2.139  -1.128   2.039  0.00  0.00    +0.031 C 
ATOM      7  C   LIG A   1      -1.808   0.369   2.220  0.00  0.00    +0.015 C 
ATOM      8  C   LIG A   1      -1.665   1.113   0.889  0.00  0.00    +0.010 C 
ATOM      9  C   LIG A   1      -3.623  -1.255   1.600  0.00  0.00    +0.020 C 
ATOM     10  C   LIG A   1      -1.951  -1.971   3.354  0.00  0.00    +0.219 C 
ATOM     11  O   LIG A   1      -0.622  -2.533   3.421  0.00  0.00    -0.455 OA
ATOM     12  C   LIG A   1      -0.256  -3.357   2.399  0.00  0.00    +0.312 C 
ATOM     13  O   LIG A   1       0.674  -4.147   2.515  0.00  0.00    -0.251 OA
ATOM     14  C   LIG A   1      -1.062  -3.221   1.111  0.00  0.00    +0.152 C 
ATOM     15  C   LIG A   1      -0.157  -1.604  -1.340  0.00  0.00    +0.044 C 
ATOM     16  C   LIG A   1      -0.598  -0.831  -2.597  0.00  0.00    +0.089 C 
ATOM     17  C   LIG A   1      -1.016   0.578  -2.293  0.00  0.00    +0.146 C 
ATOM     18  O   LIG A   1      -1.898   1.141  -2.938  0.00  0.00    -0.296 OA
ATOM     19  C   LIG A   1       0.532  -0.643  -3.598  0.00  0.00    +0.131 C 
ATOM     20  C   LIG A   1       1.716   0.259  -3.074  0.00  0.00    -0.004 C 
ATOM     21  C   LIG A   1       1.379   1.172  -1.773  0.00  0.00    +0.021 C 
ATOM     22  C   LIG A   1       2.178   1.234  -4.200  0.00  0.00    +0.014 C 
ATOM     23  C   LIG A   1       2.928  -0.696  -2.888  0.00  0.00    +0.014 C 
ENDROOT
BRANCH  10  24
ATOM     24  C   LIG A   1      -2.280  -1.244   4.630  0.00  0.00    +0.031 A 
ATOM     25  C   LIG A   1      -3.545  -1.170   5.285  0.00  0.00    +0.048 A 
ATOM     26  C   LIG A   1      -3.364  -0.396   6.407  0.00  0.00    +0.195 A 
ATOM     27  O   LIG A   1      -2.072   0.005   6.500  0.00  0.00    -0.471 OA
ATOM     28  C   LIG A   1      -1.419  -0.520   5.434  0.00  0.00    +0.202 A 
ENDBRANCH  10  24
BRANCH  19  29
ATOM     29  O   LIG A   1       0.003  -0.169  -4.842  0.00  0.00    -0.391 OA
ATOM     30  H   LIG A   1      -0.613   0.573  -4.680  0.00  0.00    +0.210 HD
ENDBRANCH  19  29
BRANCH  21  31
ATOM     31  C   LIG A   1       2.369   1.054  -0.583  0.00  0.00    +0.125 C 
BRANCH  31  32
ATOM     32  C   LIG A   1       3.797   1.469  -0.855  0.00  0.00    +0.307 C 
ATOM     33  O   LIG A   1       4.762   0.744  -0.678  0.00  0.00    -0.251 OA
BRANCH  32  34
ATOM     34  O   LIG A   1       3.841   2.773  -1.243  0.00  0.00    -0.468 OA
ATOM     35  C   LIG A   1       5.141   3.327  -1.441  0.00  0.00    +0.280 C 
ENDBRANCH  32  34
ENDBRANCH  31  32
ENDBRANCH  21  31
TORSDOF 5
