REMARK  Name = NuBBE_683
REMARK  12 active torsions:
REMARK  status: ('A' for Active; 'I' for Inactive)
REMARK    1  A    between atoms: C_3  and  C_5
REMARK    2  A    between atoms: C_10  and  C_11
REMARK    3  A    between atoms: C_12  and  C_13
REMARK    4  A    between atoms: C_13  and  C_15
REMARK    5  A    between atoms: C_13  and  C_16
REMARK    6  A    between atoms: C_16  and  C_17
REMARK    7  A    between atoms: C_22  and  C_23
REMARK    8  A    between atoms: C_23  and  C_24
REMARK    9  A    between atoms: C_24  and  C_26
REMARK   10  A    between atoms: C_24  and  C_27
REMARK   11  A    between atoms: C_27  and  O_29
REMARK   12  A    between atoms: C_27  and  C_30
REMARK                            x       y       z     vdW  Elec       q    Type
REMARK                         _______ _______ _______ _____ _____    ______ ____
ROOT
ATOM      1  O   LIG A   1       2.755   4.397   0.366  0.00  0.00    -0.286 OA
ATOM      2  C   LIG A   1       2.331   3.242   0.309  0.00  0.00    +0.222 C 
ATOM      3  C   LIG A   1       2.862   2.242  -0.748  0.00  0.00    +0.200 C 
ATOM      4  O   LIG A   1       3.152   2.875  -1.986  0.00  0.00    -0.442 OA
ATOM      5  C   LIG A   1       4.139   1.565  -0.248  0.00  0.00    +0.070 C 
ATOM      6  C   LIG A   1       1.781   1.289  -1.096  0.00  0.00    +0.031 C 
ATOM      7  C   LIG A   1       1.153   0.661   0.038  0.00  0.00    +0.027 C 
ATOM      8  C   LIG A   1       0.920  -0.658   0.151  0.00  0.00    +0.204 C 
ATOM      9  O   LIG A   1       0.230  -1.230   1.210  0.00  0.00    -0.463 OA
ATOM     10  C   LIG A   1      -0.417  -0.376   2.102  0.00  0.00    +0.128 C 
ATOM     11  C   LIG A   1      -0.193   0.950   2.124  0.00  0.00    +0.056 C 
ATOM     12  C   LIG A   1       0.775   1.504   1.188  0.00  0.00    +0.011 C 
ATOM     13  C   LIG A   1       1.295   2.747   1.294  0.00  0.00    +0.096 C 
ATOM     14 CL   LIG A   1       0.853   3.861   2.546  0.00  0.00    -0.079 Cl
ATOM     15  C   LIG A   1       1.400   1.399  -2.374  0.00  0.00    +0.110 C 
ATOM     16  C   LIG A   1       2.291   2.426  -2.942  0.00  0.00    +0.344 C 
ATOM     17  O   LIG A   1       2.256   2.844  -4.077  0.00  0.00    -0.245 OA
ENDROOT
BRANCH  10  18
ATOM     18  C   LIG A   1      -1.394  -1.024   2.941  0.00  0.00    +0.042 C 
ATOM     19  C   LIG A   1      -1.395  -0.953   4.282  0.00  0.00    -0.020 C 
BRANCH  19  20
ATOM     20  C   LIG A   1      -2.390  -1.633   5.193  0.00  0.00    +0.008 C 
ATOM     21  C   LIG A   1      -3.822  -1.153   4.932  0.00  0.00    +0.012 C 
BRANCH  20  22
ATOM     22  C   LIG A   1      -2.302  -3.168   5.118  0.00  0.00    +0.004 C 
ATOM     23  C   LIG A   1      -0.933  -3.707   5.518  0.00  0.00    +0.004 C 
ENDBRANCH  20  22
ENDBRANCH  19  20
ENDBRANCH  10  18
BRANCH  15  24
ATOM     24  C   LIG A   1       0.237   0.787  -3.077  0.00  0.00    +0.176 C 
ATOM     25  O   LIG A   1      -0.691   0.317  -2.413  0.00  0.00    -0.291 OA
BRANCH  24  26
ATOM     26  C   LIG A   1       0.207   0.761  -4.615  0.00  0.00    +0.085 C 
ATOM     27  C   LIG A   1       1.387  -0.050  -5.156  0.00  0.00    +0.018 C 
BRANCH  26  28
ATOM     28  C   LIG A   1      -1.143   0.228  -5.155  0.00  0.00    +0.122 C 
ATOM     29  C   LIG A   1      -1.209   0.243  -6.683  0.00  0.00    +0.038 C 
BRANCH  28  30
ATOM     30  O   LIG A   1      -1.364  -1.119  -4.738  0.00  0.00    -0.391 OA
ATOM     31  H   LIG A   1      -1.536  -1.080  -3.775  0.00  0.00    +0.210 HD
ENDBRANCH  28  30
ENDBRANCH  26  28
ENDBRANCH  24  26
ENDBRANCH  15  24
TORSDOF 7
