REMARK  Name = NuBBE_1651
REMARK  14 active torsions:
REMARK  status: ('A' for Active; 'I' for Inactive)
REMARK    1  A    between atoms: C_1  and  C_2
REMARK    2  A    between atoms: C_1  and  C_6
REMARK    3  A    between atoms: C_3  and  C_4
REMARK    4  A    between atoms: C_3  and  C_5
REMARK    5  A    between atoms: C_10  and  C_13
REMARK    6  A    between atoms: C_13  and  C_14
REMARK    7  A    between atoms: C_13  and  C_20
REMARK    8  A    between atoms: C_13  and  O_21
REMARK    9  A    between atoms: C_14  and  C_15
REMARK   10  A    between atoms: C_15  and  C_16
REMARK   11  A    between atoms: C_17  and  C_18
REMARK   12  A    between atoms: C_17  and  C_19
REMARK   13  A    between atoms: C_23  and  C_25
REMARK   14  A    between atoms: C_25  and  O_27
REMARK                            x       y       z     vdW  Elec       q    Type
REMARK                         _______ _______ _______ _____ _____    ______ ____
ROOT
ATOM      1  C   LIG A   1      -0.325   0.582  -1.839  0.00  0.00    -0.001 A 
ATOM      2  C   LIG A   1       0.837  -0.158  -1.607  0.00  0.00    +0.128 A 
ATOM      3  C   LIG A   1       2.057   0.261  -2.084  0.00  0.00    -0.001 A 
ATOM      4  C   LIG A   1       3.127  -0.678  -1.693  0.00  0.00    +0.086 C 
ATOM      5  C   LIG A   1       2.386  -1.536  -0.650  0.00  0.00    +0.209 C 
ATOM      6  O   LIG A   1       0.951  -1.279  -0.825  0.00  0.00    -0.485 OA
ATOM      7  C   LIG A   1       2.195   1.469  -2.738  0.00  0.00    +0.022 A 
ATOM      8  C   LIG A   1       1.068   2.280  -2.875  0.00  0.00    +0.060 A 
ATOM      9  C   LIG A   1      -0.202   1.815  -2.480  0.00  0.00    +0.022 A 
ENDROOT
BRANCH   5  10
ATOM     10  C   LIG A   1       2.821  -1.242   0.830  0.00  0.00    +0.101 C 
ATOM     11  C   LIG A   1       4.358  -1.393   1.038  0.00  0.00    +0.045 C 
BRANCH  10  12
ATOM     12  O   LIG A   1       2.594   0.144   1.130  0.00  0.00    -0.385 OA
ATOM     13  H   LIG A   1       1.820   0.425   0.612  0.00  0.00    +0.210 HD
ENDBRANCH  10  12
BRANCH  10  14
ATOM     14  C   LIG A   1       2.094  -2.148   1.882  0.00  0.00    +0.042 C 
BRANCH  14  15
ATOM     15  C   LIG A   1       0.592  -1.962   2.274  0.00  0.00    +0.030 C 
BRANCH  15  16
ATOM     16  C   LIG A   1      -0.539  -2.412   1.344  0.00  0.00    -0.028 C 
ATOM     17  C   LIG A   1      -1.833  -1.998   1.404  0.00  0.00    -0.080 C 
ATOM     18  C   LIG A   1      -2.311  -1.028   2.444  0.00  0.00    +0.038 C 
ATOM     19  C   LIG A   1      -2.929  -2.336   0.406  0.00  0.00    +0.038 C 
ENDBRANCH  15  16
ENDBRANCH  14  15
ENDBRANCH  10  14
ENDBRANCH   5  10
BRANCH   8  20
ATOM     20  C   LIG A   1       1.223   3.649  -3.368  0.00  0.00    +0.337 C 
ATOM     21  O   LIG A   1       0.325   4.233  -4.036  0.00  0.00    -0.245 OA
BRANCH  20  22
ATOM     22  O   LIG A   1       2.363   4.257  -3.014  0.00  0.00    -0.477 OA
ATOM     23  H   LIG A   1       2.893   3.770  -2.349  0.00  0.00    +0.295 HD
ENDBRANCH  20  22
ENDBRANCH   8  20
BRANCH   1  24
ATOM     24  C   LIG A   1      -1.665   0.169  -1.316  0.00  0.00    +0.066 C 
BRANCH  24  25
ATOM     25  C   LIG A   1      -1.930   0.775   0.046  0.00  0.00    -0.023 C 
ATOM     26  C   LIG A   1      -2.882   1.605   0.534  0.00  0.00    -0.079 C 
ATOM     27  C   LIG A   1      -3.833   2.347  -0.347  0.00  0.00    +0.038 C 
ATOM     28  C   LIG A   1      -3.118   1.959   2.004  0.00  0.00    +0.038 C 
ENDBRANCH  24  25
ENDBRANCH   1  24
TORSDOF 9
