@<TRIPOS>MOLECULE
NuBBE_406
 29 31 0 0 0
SMALL
GASTEIGER

@<TRIPOS>ATOM
      1 C          -4.5894    1.1524    0.0063 C.3     1  LIG1       -0.0396
      2 C          -3.0892    1.1474    0.0044 C.ar    1  LIG1       -0.0463
      3 C          -2.3557    2.3366    0.0021 C.ar    1  LIG1       -0.0165
      4 C          -0.9547    2.3070   -0.0001 C.ar    1  LIG1        0.1286
      5 O          -0.2861    3.4983   -0.0030 O.3     1  LIG1       -0.5060
      6 C          -2.4009   -0.0683    0.0043 C.ar    1  LIG1       -0.0471
      7 C          -0.9969   -0.0974    0.0024 C.ar    1  LIG1        0.0368
      8 C          -0.2570    1.0880    0.0005 C.ar    1  LIG1        0.0744
      9 C           1.2316    1.0159   -0.0010 C.2     1  LIG1        0.1981
     10 C           1.8926   -0.3083   -0.0019 C.ar    1  LIG1        0.0366
     11 C           1.1391   -1.4781   -0.0005 C.ar    1  LIG1        0.0333
     12 C          -0.3299   -1.4135    0.0020 C.2     1  LIG1        0.1946
     13 O          -0.9901   -2.4465    0.0036 O.2     1  LIG1       -0.2866
     14 C           1.7738   -2.7292   -0.0014 C.ar    1  LIG1       -0.0468
     15 C           3.1666   -2.8080   -0.0037 C.ar    1  LIG1       -0.0195
     16 C           3.9135   -1.6350   -0.0049 C.ar    1  LIG1        0.1176
     17 O           5.2757   -1.6654   -0.0070 O.3     1  LIG1       -0.5067
     18 C           3.2917   -0.3895   -0.0040 C.ar    1  LIG1       -0.0087
     19 O           1.9401    2.0144   -0.0015 O.2     1  LIG1       -0.2865
     20 H          -4.9892    2.1714    0.0079 H       1  LIG1        0.0278
     21 H          -4.9659    0.6415    0.8984 H       1  LIG1        0.0278
     22 H          -4.9680    0.6433   -0.8860 H       1  LIG1        0.0278
     23 H          -2.8834    3.2876    0.0020 H       1  LIG1        0.0657
     24 H          -0.9079    4.2426   -0.0074 H       1  LIG1        0.2922
     25 H          -2.9612   -1.0035    0.0058 H       1  LIG1        0.0627
     26 H           1.1833   -3.6441   -0.0004 H       1  LIG1        0.0626
     27 H           3.6440   -3.7834   -0.0044 H       1  LIG1        0.0654
     28 H           5.5745   -2.5899   -0.0072 H       1  LIG1        0.2921
     29 H           3.8988    0.5137   -0.0051 H       1  LIG1        0.0661
@<TRIPOS>BOND
     1     1     2    1
     2     2     3   ar
     3     3     4   ar
     4     4     5    1
     5     2     6   ar
     6     6     7   ar
     7     7     8   ar
     8     4     8   ar
     9     8     9    1
    10     9    10    1
    11    10    11   ar
    12    11    12    1
    13     7    12    1
    14    12    13    2
    15    11    14   ar
    16    14    15   ar
    17    15    16   ar
    18    16    17    1
    19    16    18   ar
    20    10    18   ar
    21     9    19    2
    22     1    20    1
    23     1    21    1
    24     1    22    1
    25     3    23    1
    26     5    24    1
    27     6    25    1
    28    14    26    1
    29    15    27    1
    30    17    28    1
    31    18    29    1
