REMARK  Name = NuBBE_2450
REMARK  5 active torsions:
REMARK  status: ('A' for Active; 'I' for Inactive)
REMARK    1  A    between atoms: C_6  and  O_10
REMARK    2  A    between atoms: C_7  and  O_9
REMARK    3  A    between atoms: C_13  and  C_14
REMARK    4  A    between atoms: C_17  and  O_20
REMARK    5  A    between atoms: O_20  and  C_21
REMARK                            x       y       z     vdW  Elec       q    Type
REMARK                         _______ _______ _______ _____ _____    ______ ____
ROOT
ATOM      1  O   LIG A   1      -1.455   1.185   0.013  0.00  0.00    -0.286 OA
ATOM      2  C   LIG A   1      -0.230   1.132  -0.027  0.00  0.00    +0.200 A 
ATOM      3  C   LIG A   1       0.554   2.378  -0.019  0.00  0.00    +0.068 A 
ATOM      4  C   LIG A   1       1.945   2.305  -0.099  0.00  0.00    +0.142 A 
ATOM      5  C   LIG A   1       2.718   3.468  -0.114  0.00  0.00    +0.096 A 
ATOM      6  C   LIG A   1       2.077   4.700  -0.041  0.00  0.00    +0.162 A 
ATOM      7  C   LIG A   1       0.687   4.770   0.046  0.00  0.00    +0.159 A 
ATOM      8  C   LIG A   1      -0.086   3.619   0.057  0.00  0.00    +0.064 A 
ATOM      9  O   LIG A   1       2.616   1.113  -0.164  0.00  0.00    -0.462 OA
ATOM     10  C   LIG A   1       1.873  -0.043  -0.144  0.00  0.00    +0.208 A 
ATOM     11  C   LIG A   1       0.534  -0.154  -0.092  0.00  0.00    +0.064 A 
ENDROOT
BRANCH  11  12
ATOM     12  C   LIG A   1      -0.126  -1.483  -0.089  0.00  0.00    -0.011 A 
ATOM     13  C   LIG A   1       0.418  -2.577  -0.783  0.00  0.00    +0.012 A 
ATOM     14  C   LIG A   1      -0.226  -3.821  -0.791  0.00  0.00    +0.046 A 
ATOM     15  C   LIG A   1      -1.437  -4.000  -0.126  0.00  0.00    +0.120 A 
ATOM     16  C   LIG A   1      -1.991  -2.927   0.565  0.00  0.00    +0.046 A 
ATOM     17  C   LIG A   1      -1.337  -1.688   0.588  0.00  0.00    +0.012 A 
BRANCH  15  18
ATOM     18  O   LIG A   1      -1.973  -5.253  -0.228  0.00  0.00    -0.495 OA
ATOM     19  C   LIG A   1      -3.232  -5.458   0.401  0.00  0.00    +0.277 C 
ENDBRANCH  15  18
ENDBRANCH  11  12
BRANCH   7  20
ATOM     20  O   LIG A   1       0.070   5.985   0.118  0.00  0.00    -0.503 OA
ATOM     21  H   LIG A   1       0.797   6.639   0.088  0.00  0.00    +0.292 HD
ENDBRANCH   7  20
BRANCH   6  22
ATOM     22  O   LIG A   1       2.772   5.877  -0.050  0.00  0.00    -0.503 OA
ATOM     23  H   LIG A   1       3.722   5.675  -0.108  0.00  0.00    +0.292 HD
ENDBRANCH   6  22
TORSDOF 4
