REMARK  Name = NuBBE_1207
REMARK  12 active torsions:
REMARK  status: ('A' for Active; 'I' for Inactive)
REMARK    1  A    between atoms: O_1  and  C_2
REMARK    2  A    between atoms: C_4  and  O_37
REMARK    3  A    between atoms: C_7  and  C_36
REMARK    4  A    between atoms: C_9  and  C_10
REMARK    5  A    between atoms: C_9  and  C_11
REMARK    6  A    between atoms: C_11  and  O_12
REMARK    7  A    between atoms: C_15  and  C_35
REMARK    8  A    between atoms: C_20  and  C_34
REMARK    9  A    between atoms: C_23  and  C_31
REMARK   10  A    between atoms: C_26  and  C_27
REMARK   11  A    between atoms: C_26  and  C_30
REMARK   12  A    between atoms: C_31  and  O_32
REMARK                            x       y       z     vdW  Elec       q    Type
REMARK                         _______ _______ _______ _____ _____    ______ ____
ROOT
ATOM      1  C   LIG A   1       2.091  -4.663   2.334  0.00  0.00    +0.151 C 
ATOM      2  C   LIG A   1       2.002  -3.453   3.274  0.00  0.00    +0.144 C 
ATOM      3  C   LIG A   1       1.076  -2.365   2.736  0.00  0.00    +0.041 C 
ATOM      4  C   LIG A   1       1.444  -1.874   1.303  0.00  0.00    -0.022 C 
ATOM      5  C   LIG A   1       1.536  -3.152   0.376  0.00  0.00    +0.006 C 
ATOM      6  C   LIG A   1       2.517  -4.293   0.881  0.00  0.00    +0.023 C 
ATOM      7  C   LIG A   1       2.328  -5.561   0.001  0.00  0.00    +0.016 C 
ATOM      8  C   LIG A   1       1.639  -2.781  -1.119  0.00  0.00    +0.005 C 
ATOM      9  C   LIG A   1       0.481  -1.879  -1.585  0.00  0.00    +0.008 C 
ATOM     10  C   LIG A   1       0.338  -0.570  -0.768  0.00  0.00    -0.019 C 
ATOM     11  C   LIG A   1       0.262  -0.966   0.758  0.00  0.00    +0.006 C 
ATOM     12  C   LIG A   1      -0.129   0.226   1.682  0.00  0.00    +0.031 C 
ATOM     13  C   LIG A   1      -0.630   1.471   0.995  0.00  0.00    -0.026 C 
ATOM     14  C   LIG A   1      -0.962   1.545  -0.310  0.00  0.00    -0.063 C 
ATOM     15  C   LIG A   1      -1.006   0.245  -1.131  0.00  0.00    -0.005 C 
ATOM     16  C   LIG A   1      -1.142   0.566  -2.648  0.00  0.00    +0.012 C 
ATOM     17  C   LIG A   1      -2.285   1.546  -2.965  0.00  0.00    +0.019 C 
ATOM     18  C   LIG A   1      -2.242   2.861  -2.122  0.00  0.00    +0.074 C 
ATOM     19  C   LIG A   1      -1.064   2.858  -1.105  0.00  0.00    +0.033 C 
ATOM     20  C   LIG A   1      -1.008   4.187  -0.301  0.00  0.00    +0.015 C 
ATOM     21  C   LIG A   1      -2.364   4.697   0.244  0.00  0.00    -0.034 C 
ATOM     22  C   LIG A   1      -2.232   5.004   1.750  0.00  0.00    +0.011 C 
ATOM     23  C   LIG A   1      -3.475   3.654   0.043  0.00  0.00    +0.007 C 
ATOM     24  C   LIG A   1      -3.594   3.100  -1.384  0.00  0.00    +0.019 C 
ATOM     25  C   LIG A   1      -2.745   6.024  -0.447  0.00  0.00    +0.011 C 
ATOM     26  C   LIG A   1      -2.302  -0.533  -0.737  0.00  0.00    +0.016 C 
ATOM     27  C   LIG A   1       1.578   0.320  -1.098  0.00  0.00    +0.012 C 
ATOM     28  C   LIG A   1       2.765  -1.073   1.392  0.00  0.00    +0.012 C 
ENDROOT
BRANCH   1  29
ATOM     29  O   LIG A   1       2.994  -5.600   2.942  0.00  0.00    -0.389 OA
ATOM     30  H   LIG A   1       2.844  -6.465   2.522  0.00  0.00    +0.210 HD
ENDBRANCH   1  29
BRANCH  18  31
ATOM     31  C   LIG A   1      -1.969   3.960  -3.162  0.00  0.00    +0.311 C 
ATOM     32  O   LIG A   1      -0.872   4.394  -3.497  0.00  0.00    -0.250 OA
BRANCH  31  33
ATOM     33  O   LIG A   1      -3.060   4.395  -3.816  0.00  0.00    -0.480 OA
ATOM     34  H   LIG A   1      -2.708   5.052  -4.452  0.00  0.00    +0.295 HD
ENDBRANCH  31  33
ENDBRANCH  18  31
BRANCH   2  35
ATOM     35  O   LIG A   1       1.492  -3.896   4.539  0.00  0.00    -0.389 OA
ATOM     36  H   LIG A   1       2.039  -4.672   4.771  0.00  0.00    +0.210 HD
ENDBRANCH   2  35
BRANCH   6  37
ATOM     37  C   LIG A   1       4.030  -3.959   0.844  0.00  0.00    +0.165 C 
BRANCH  37  38
ATOM     38  O   LIG A   1       4.465  -3.622  -0.466  0.00  0.00    -0.394 OA
ATOM     39  H   LIG A   1       5.426  -3.473  -0.419  0.00  0.00    +0.209 HD
ENDBRANCH  37  38
ENDBRANCH   6  37
TORSDOF 6
