REMARK  Name = NuBBE_1107
REMARK  6 active torsions:
REMARK  status: ('A' for Active; 'I' for Inactive)
REMARK    1  A    between atoms: N_9  and  C_10
REMARK    2  A    between atoms: N_12  and  C_13
REMARK    3  A    between atoms: C_13  and  C_14
REMARK    4  A    between atoms: C_14  and  C_15
REMARK    5  A    between atoms: C_25  and  C_26
REMARK    6  A    between atoms: C_25  and  C_27
REMARK                            x       y       z     vdW  Elec       q    Type
REMARK                         _______ _______ _______ _____ _____    ______ ____
ROOT
ATOM      1  C   LIG A   1      -2.424   0.878  -0.009  0.00  0.00    -0.020 A 
ATOM      2  C   LIG A   1      -3.760   0.972  -0.358  0.00  0.00    +0.087 A 
ATOM      3  N   LIG A   1      -4.104   2.288  -0.426  0.00  0.00    -0.360 N 
ATOM      4  C   LIG A   1      -3.019   3.080  -0.136  0.00  0.00    +0.048 A 
ATOM      5  C   LIG A   1      -1.930   2.236   0.138  0.00  0.00    +0.013 A 
ATOM      6  C   LIG A   1      -0.697   2.870   0.471  0.00  0.00    +0.026 A 
ATOM      7  C   LIG A   1      -0.619   4.274   0.510  0.00  0.00    +0.130 A 
ATOM      8  C   LIG A   1      -1.726   5.062   0.220  0.00  0.00    +0.048 A 
ATOM      9  C   LIG A   1      -2.947   4.479  -0.102  0.00  0.00    +0.030 A 
ATOM     10  O   LIG A   1       0.526   4.966   0.801  0.00  0.00    -0.482 OA
ATOM     11  C   LIG A   1       1.647   4.244   1.346  0.00  0.00    +0.123 C 
ATOM     12  C   LIG A   1       1.739   4.614   2.831  0.00  0.00    +0.060 C 
ATOM     13  C   LIG A   1       2.884   4.770   0.607  0.00  0.00    +0.060 C 
ATOM     14  C   LIG A   1       1.584   2.746   1.190  0.00  0.00    +0.020 C 
ATOM     15  C   LIG A   1       0.496   2.096   0.765  0.00  0.00    +0.012 C 
ATOM     16  H   LIG A   1      -5.022   2.642  -0.656  0.00  0.00    +0.165 HD
ENDROOT
BRANCH   1  17
ATOM     17  C   LIG A   1      -1.707  -0.435   0.162  0.00  0.00    +0.059 C 
BRANCH  17  18
ATOM     18  C   LIG A   1      -1.053  -0.921  -1.141  0.00  0.00    +0.134 C 
BRANCH  18  30
ATOM     19  O   LIG A   1      -2.248  -3.389  -1.534  0.00  0.00    -0.267 OA
ATOM     20  C   LIG A   1      -1.055  -3.363  -1.250  0.00  0.00    +0.264 A 
ATOM     21  C   LIG A   1      -0.304  -4.630  -1.179  0.00  0.00    +0.063 A 
ATOM     22  C   LIG A   1       1.031  -4.611  -0.787  0.00  0.00    +0.058 A 
ATOM     23  C   LIG A   1       1.725  -5.832  -0.730  0.00  0.00    +0.026 A 
ATOM     24  C   LIG A   1       1.093  -7.036  -1.063  0.00  0.00    +0.002 A 
ATOM     25  C   LIG A   1      -0.240  -7.038  -1.456  0.00  0.00    +0.001 A 
ATOM     26  C   LIG A   1      -0.942  -5.835  -1.513  0.00  0.00    +0.015 A 
ATOM     27  N   LIG A   1       1.647  -3.373  -0.461  0.00  0.00    -0.296 N 
ATOM     28  C   LIG A   1       3.039  -3.358  -0.026  0.00  0.00    +0.154 C 
ATOM     29  C   LIG A   1       0.978  -2.158  -0.567  0.00  0.00    +0.332 A 
ATOM     30  N   LIG A   1      -0.345  -2.197  -0.991  0.00  0.00    -0.260 N 
ATOM     31  O   LIG A   1       1.534  -1.091  -0.295  0.00  0.00    -0.246 OA
ENDBRANCH  18  30
ENDBRANCH  17  18
ENDBRANCH   1  17
TORSDOF 3
