REMARK  Name = NuBBE_224
REMARK  25 active torsions:
REMARK  status: ('A' for Active; 'I' for Inactive)
REMARK    1  A    between atoms: C_1  and  C_2
REMARK    2  A    between atoms: C_4  and  O_6
REMARK    3  A    between atoms: O_6  and  C_7
REMARK    4  A    between atoms: C_7  and  C_8
REMARK    5  A    between atoms: C_8  and  C_9
REMARK    6  A    between atoms: C_9  and  C_10
REMARK    7  A    between atoms: C_10  and  C_11
REMARK    8  A    between atoms: C_11  and  C_12
REMARK    9  A    between atoms: C_12  and  C_13
REMARK   10  A    between atoms: C_13  and  C_14
REMARK   11  A    between atoms: C_14  and  C_15
REMARK   12  A    between atoms: C_15  and  C_16
REMARK   13  A    between atoms: C_18  and  O_20
REMARK   14  A    between atoms: C_23  and  O_25
REMARK   15  A    between atoms: O_25  and  C_26
REMARK   16  A    between atoms: C_26  and  C_27
REMARK   17  A    between atoms: C_29  and  O_31
REMARK   18  A    between atoms: O_31  and  C_32
REMARK   19  A    between atoms: C_32  and  C_33
REMARK   20  A    between atoms: C_36  and  O_38
REMARK   21  A    between atoms: C_42  and  C_43
REMARK   22  A    between atoms: C_42  and  C_44
REMARK   23  A    between atoms: C_44  and  C_45
REMARK   24  A    between atoms: C_46  and  C_47
REMARK   25  A    between atoms: C_46  and  C_49
REMARK                            x       y       z     vdW  Elec       q    Type
REMARK                         _______ _______ _______ _____ _____    ______ ____
ROOT
ATOM      1  C   LIG A   1      -0.184   0.586   2.136  0.00  0.00    +0.012 C 
ATOM      2  C   LIG A   1       0.319   0.538   0.695  0.00  0.00    +0.036 C 
ATOM      3  C   LIG A   1      -0.394  -0.596  -0.065  0.00  0.00    +0.209 C 
ATOM      4  C   LIG A   1       0.397  -1.861  -0.242  0.00  0.00    +0.172 C 
ATOM      5  C   LIG A   1       1.658  -1.732  -1.131  0.00  0.00    +0.091 C 
ATOM      6  C   LIG A   1       1.433  -2.003  -2.622  0.00  0.00    -0.001 C 
ATOM      7  C   LIG A   1       0.881  -3.418  -2.774  0.00  0.00    +0.282 C 
ATOM      8  O   LIG A   1       1.535  -4.113  -1.707  0.00  0.00    -0.308 OA
ATOM      9  C   LIG A   1       2.372  -3.159  -0.999  0.00  0.00    +0.326 C 
ATOM     10  C   LIG A   1       2.058  -1.337  -3.611  0.00  0.00    +0.009 C 
ATOM     11  C   LIG A   1       2.764  -0.036  -3.446  0.00  0.00    +0.138 C 
ATOM     12  C   LIG A   1       3.164   0.354  -1.986  0.00  0.00    +0.040 C 
ATOM     13  C   LIG A   1       2.492  -0.387  -0.745  0.00  0.00    +0.017 C 
ATOM     14  C   LIG A   1       1.893   0.596   0.558  0.00  0.00    -0.019 C 
ATOM     15  C   LIG A   1       2.156   2.144   0.453  0.00  0.00    +0.012 C 
ENDROOT
BRANCH  11  16
ATOM     16  O   LIG A   1       3.924   0.007  -4.292  0.00  0.00    -0.388 OA
ATOM     17  H   LIG A   1       3.770  -0.522  -5.100  0.00  0.00    +0.210 HD
ENDBRANCH  11  16
BRANCH   4  18
ATOM     18  O   LIG A   1       0.762  -2.374   1.053  0.00  0.00    -0.387 OA
ATOM     19  H   LIG A   1      -0.053  -2.658   1.506  0.00  0.00    +0.210 HD
ENDBRANCH   4  18
BRANCH   7  20
ATOM     20  O   LIG A   1       1.155  -3.943  -4.065  0.00  0.00    -0.348 OA
BRANCH  20  21
ATOM     21  C   LIG A   1       0.556  -5.187  -4.412  0.00  0.00    +0.160 C 
ATOM     22  C   LIG A   1       1.112  -6.399  -3.683  0.00  0.00    +0.034 C 
ENDBRANCH  20  21
ENDBRANCH   7  20
BRANCH   9  23
ATOM     23  O   LIG A   1       3.766  -3.137  -1.391  0.00  0.00    -0.434 OA
BRANCH  23  24
ATOM     24  C   LIG A   1       4.144  -3.424  -2.676  0.00  0.00    +0.306 C 
ATOM     25  C   LIG A   1       5.165  -2.421  -3.097  0.00  0.00    +0.136 C 
ATOM     26  O   LIG A   1       3.708  -4.276  -3.447  0.00  0.00    -0.251 OA
ENDBRANCH  23  24
ENDBRANCH   9  23
BRANCH  14  27
ATOM     27  C   LIG A   1       2.707   0.153   1.916  0.00  0.00    +0.034 C 
BRANCH  27  28
ATOM     28  C   LIG A   1       2.554   0.826   3.311  0.00  0.00    -0.023 C 
ATOM     29  C   LIG A   1       1.955   0.442   4.475  0.00  0.00    -0.055 C 
ATOM     30  C   LIG A   1       2.027   1.333   5.710  0.00  0.00    +0.043 C 
BRANCH  29  31
ATOM     31  C   LIG A   1       1.200  -0.797   4.662  0.00  0.00    -0.005 C 
ATOM     32  C   LIG A   1       0.109  -0.925   5.439  0.00  0.00    +0.008 C 
ENDBRANCH  29  31
ENDBRANCH  27  28
ENDBRANCH  14  27
BRANCH   3  33
ATOM     33  O   LIG A   1      -1.077  -0.079  -1.211  0.00  0.00    -0.458 OA
BRANCH  33  34
ATOM     34  C   LIG A   1      -2.275   0.409  -0.947  0.00  0.00    +0.307 C 
ATOM     35  O   LIG A   1      -2.851   0.319   0.244  0.00  0.00    -0.251 OA
BRANCH  34  36
ATOM     36  C   LIG A   1      -2.983   1.044  -2.114  0.00  0.00    +0.120 C 
BRANCH  36  37
ATOM     37  C   LIG A   1      -3.968   2.198  -1.726  0.00  0.00    +0.011 C 
BRANCH  37  38
ATOM     38  C   LIG A   1      -3.300   3.512  -1.319  0.00  0.00    +0.000 C 
BRANCH  38  39
ATOM     39  C   LIG A   1      -4.319   4.545  -0.760  0.00  0.00    +0.000 C 
BRANCH  39  40
ATOM     40  C   LIG A   1      -4.952   4.182   0.613  0.00  0.00    -0.000 C 
BRANCH  40  41
ATOM     41  C   LIG A   1      -3.839   4.217   1.676  0.00  0.00    -0.000 C 
BRANCH  41  42
ATOM     42  C   LIG A   1      -3.993   3.580   3.070  0.00  0.00    -0.000 C 
BRANCH  42  43
ATOM     43  C   LIG A   1      -4.672   2.220   3.236  0.00  0.00    -0.003 C 
ATOM     44  C   LIG A   1      -4.036   1.129   2.403  0.00  0.00    +0.004 C 
ENDBRANCH  42  43
ENDBRANCH  41  42
ENDBRANCH  40  41
ENDBRANCH  39  40
ENDBRANCH  38  39
ENDBRANCH  37  38
ENDBRANCH  36  37
ENDBRANCH  34  36
ENDBRANCH  33  34
ENDBRANCH   3  33
TORSDOF 19
