REMARK  Name = NuBBE_2045
REMARK  14 active torsions:
REMARK  status: ('A' for Active; 'I' for Inactive)
REMARK    1  A    between atoms: O_1  and  C_2
REMARK    2  A    between atoms: O_1  and  C_3
REMARK    3  A    between atoms: C_4  and  O_5
REMARK    4  A    between atoms: O_5  and  C_6
REMARK    5  A    between atoms: C_7  and  C_24
REMARK    6  A    between atoms: C_9  and  C_12
REMARK    7  A    between atoms: C_14  and  O_15
REMARK    8  A    between atoms: O_15  and  C_16
REMARK    9  A    between atoms: C_17  and  O_22
REMARK   10  A    between atoms: C_18  and  O_20
REMARK   11  A    between atoms: O_20  and  C_21
REMARK   12  A    between atoms: O_22  and  C_23
REMARK   13  A    between atoms: C_26  and  C_30
REMARK   14  A    between atoms: C_30  and  C_31
REMARK                            x       y       z     vdW  Elec       q    Type
REMARK                         _______ _______ _______ _____ _____    ______ ____
ROOT
ATOM      1  C   LIG A   1       0.766   1.624   0.090  0.00  0.00    +0.211 C 
ATOM      2  C   LIG A   1       1.557   0.642   1.025  0.00  0.00    +0.147 C 
ATOM      3  C   LIG A   1       0.722  -0.624   0.799  0.00  0.00    +0.060 C 
ATOM      4  C   LIG A   1       0.555  -0.547  -0.735  0.00  0.00    +0.158 C 
ATOM      5  O   LIG A   1       0.566   0.866  -1.115  0.00  0.00    -0.337 OA
ATOM      6  C   LIG A   1       1.276  -1.945   1.321  0.00  0.00    +0.014 C 
ATOM      7  C   LIG A   1       1.561   1.274   2.398  0.00  0.00    +0.020 C 
ATOM      8  C   LIG A   1       1.673   2.617   2.560  0.00  0.00    -0.002 C 
ATOM      9  C   LIG A   1       1.839   3.468   1.333  0.00  0.00    +0.165 C 
ATOM     10  O   LIG A   1       2.198   4.670   1.453  0.00  0.00    -0.292 OA
ATOM     11  C   LIG A   1       1.585   2.901  -0.046  0.00  0.00    +0.147 C 
ENDROOT
BRANCH   4  12
ATOM     12  C   LIG A   1      -0.615  -1.286  -1.286  0.00  0.00    -0.011 A 
ATOM     13  C   LIG A   1      -0.526  -2.625  -1.658  0.00  0.00    +0.056 A 
ATOM     14  C   LIG A   1      -1.663  -3.313  -2.083  0.00  0.00    +0.166 A 
ATOM     15  C   LIG A   1      -2.914  -2.643  -2.126  0.00  0.00    +0.203 A 
ATOM     16  C   LIG A   1      -2.968  -1.259  -1.839  0.00  0.00    +0.166 A 
ATOM     17  C   LIG A   1      -1.813  -0.623  -1.420  0.00  0.00    +0.056 A 
BRANCH  14  18
ATOM     18  O   LIG A   1      -1.595  -4.648  -2.377  0.00  0.00    -0.491 OA
ATOM     19  C   LIG A   1      -0.391  -5.168  -2.929  0.00  0.00    +0.277 C 
ENDBRANCH  14  18
BRANCH  16  20
ATOM     20  O   LIG A   1      -4.151  -0.557  -1.943  0.00  0.00    -0.491 OA
ATOM     21  C   LIG A   1      -4.064   0.850  -1.671  0.00  0.00    +0.277 C 
ENDBRANCH  16  20
BRANCH  15  22
ATOM     22  O   LIG A   1      -4.129  -3.218  -2.416  0.00  0.00    -0.488 OA
ATOM     23  C   LIG A   1      -4.189  -4.622  -2.630  0.00  0.00    +0.277 C 
ENDBRANCH  15  22
ENDBRANCH   4  12
BRANCH   1  24
ATOM     24  O   LIG A   1      -0.542   1.908   0.656  0.00  0.00    -0.349 OA
ATOM     25  C   LIG A   1      -1.360   2.823  -0.061  0.00  0.00    +0.197 C 
ENDBRANCH   1  24
BRANCH   2  26
ATOM     26  O   LIG A   1       2.962   0.460   0.718  0.00  0.00    -0.367 OA
ATOM     27  C   LIG A   1       3.368  -0.019  -0.559  0.00  0.00    +0.195 C 
ENDBRANCH   2  26
BRANCH   8  28
ATOM     28  C   LIG A   1       1.573   3.329   3.885  0.00  0.00    +0.065 C 
BRANCH  28  29
ATOM     29  C   LIG A   1       2.911   3.521   4.541  0.00  0.00    -0.030 C 
ATOM     30  C   LIG A   1       3.441   4.711   4.854  0.00  0.00    +0.004 C 
ENDBRANCH  28  29
ENDBRANCH   8  28
TORSDOF 8
