REMARK  Name = NuBBE_925
REMARK  4 active torsions:
REMARK  status: ('A' for Active; 'I' for Inactive)
REMARK    1  A    between atoms: C_1  and  C_2
REMARK    2  A    between atoms: C_3  and  C_4
REMARK    3  A    between atoms: C_3  and  C_5
REMARK    4  A    between atoms: C_9  and  O_11
REMARK                            x       y       z     vdW  Elec       q    Type
REMARK                         _______ _______ _______ _____ _____    ______ ____
ROOT
ATOM      1  C   LIG A   1      -2.169   0.037  -0.537  0.00  0.00    +0.014 C 
ATOM      2  C   LIG A   1      -0.653   0.032  -0.475  0.00  0.00    -0.001 C 
ATOM      3  C   LIG A   1      -0.002   0.001   0.942  0.00  0.00    -0.024 C 
ATOM      4  C   LIG A   1      -0.313   1.214   1.843  0.00  0.00    +0.012 C 
ATOM      5  C   LIG A   1      -0.306  -1.248   1.793  0.00  0.00    +0.012 C 
ATOM      6  C   LIG A   1       1.424   0.018   0.328  0.00  0.00    -0.002 C 
ATOM      7  C   LIG A   1       1.430  -1.200  -0.628  0.00  0.00    +0.036 C 
ATOM      8  C   LIG A   1      -0.017  -1.218  -1.158  0.00  0.00    +0.121 C 
ATOM      9  C   LIG A   1       1.415   1.276  -0.571  0.00  0.00    +0.005 C 
ATOM     10  C   LIG A   1      -0.027   1.305  -1.108  0.00  0.00    +0.010 C 
ENDROOT
BRANCH   8  11
ATOM     11  O   LIG A   1      -0.077  -1.183  -2.574  0.00  0.00    -0.391 OA
ATOM     12  H   LIG A   1       0.611  -0.582  -2.902  0.00  0.00    +0.210 HD
ENDBRANCH   8  11
TORSDOF 1
