@<TRIPOS>MOLECULE
NuBBE_2516
 48 51 0 0 0
SMALL
GASTEIGER

@<TRIPOS>ATOM
      1 C           1.6491    0.6518    2.1802 C.3     1  LIG1       -0.0549
      2 C           0.8416    0.6233    0.8822 C.3     1  LIG1        0.0219
      3 H          -0.2142    0.4804    1.1314 H       1  LIG1        0.0383
      4 C           1.3460   -0.4283   -0.0430 C.2     1  LIG1       -0.0001
      5 C           1.1327   -1.7466   -0.0468 C.2     1  LIG1       -0.0378
      6 C           1.7571   -2.6871   -1.0672 C.3     1  LIG1        0.1528
      7 C           2.6823   -1.9062   -2.0772 C.2     1  LIG1        0.1953
      8 O           3.2777   -2.4678   -3.0006 O.2     1  LIG1       -0.2891
      9 C           2.8302   -0.4293   -1.9688 C.2     1  LIG1        0.0261
     10 C           2.1685    0.2177   -1.0153 C.2     1  LIG1        0.1277
     11 O           2.1829    1.5901   -0.8587 O.2     1  LIG1       -0.4875
     12 C           1.0802    1.8893    0.0385 C.3     1  LIG1        0.1107
     13 H           1.3981    2.7289    0.6687 H       1  LIG1        0.0742
     14 C          -0.1317    2.3259   -0.8108 C.3     1  LIG1        0.0102
     15 C          -1.3569    2.6765    0.0010 C.ar    1  LIG1       -0.0402
     16 C          -1.3230    3.7219    0.9383 C.ar    1  LIG1       -0.0128
     17 C          -2.4665    3.9807    1.6654 C.ar    1  LIG1        0.1665
     18 C          -3.6187    3.2524    1.4906 C.ar    1  LIG1        0.1662
     19 C          -3.6940    2.2247    0.5778 C.ar    1  LIG1       -0.0159
     20 C          -2.5512    1.9394   -0.1758 C.ar    1  LIG1       -0.0548
     21 O          -4.6254    3.6680    2.3041 O.3     1  LIG1       -0.4526
     22 C          -3.9777    4.7500    3.0047 C.3     1  LIG1        0.2332
     23 O          -2.6025    4.9463    2.6134 O.3     1  LIG1       -0.4526
     24 C           0.6291   -3.3533   -1.9138 C.3     1  LIG1        0.0052
     25 C          -0.3608   -4.1786   -1.1224 C.2     1  LIG1       -0.0876
     26 C          -1.6784   -3.9436   -1.0896 C.2     1  LIG1       -0.1025
     27 O           2.4652   -3.6459   -0.2680 O.3     1  LIG1       -0.3643
     28 C           3.1761   -4.6581   -0.9678 C.3     1  LIG1        0.0382
     29 H           2.7233    0.7663    1.9964 H       1  LIG1        0.0237
     30 H           1.5020   -0.2743    2.7465 H       1  LIG1        0.0237
     31 H           1.3258    1.4850    2.8136 H       1  LIG1        0.0237
     32 H           0.5095   -2.1936    0.7239 H       1  LIG1        0.0609
     33 H           3.4566    0.0710   -2.6967 H       1  LIG1        0.0690
     34 H          -0.3747    1.5460   -1.5444 H       1  LIG1        0.0349
     35 H           0.1469    3.1974   -1.4188 H       1  LIG1        0.0349
     36 H          -0.4314    4.3184    1.1000 H       1  LIG1        0.0658
     37 H          -4.6088    1.6572    0.4501 H       1  LIG1        0.0655
     38 H          -2.5924    1.1298   -0.9025 H       1  LIG1        0.0621
     39 H          -4.0099    4.5395    4.0799 H       1  LIG1        0.1166
     40 H          -4.5327    5.6751    2.8106 H       1  LIG1        0.1166
     41 H           1.0677   -4.0197   -2.6669 H       1  LIG1        0.0343
     42 H           0.1004   -2.5808   -2.4888 H       1  LIG1        0.0343
     43 H           0.0432   -5.0123   -0.5498 H       1  LIG1        0.0567
     44 H          -2.1264   -3.1252   -1.6439 H       1  LIG1        0.0532
     45 H          -2.3390   -4.5726   -0.5005 H       1  LIG1        0.0532
     46 H           3.5273   -5.3873   -0.2319 H       1  LIG1        0.0524
     47 H           4.0544   -4.2479   -1.4705 H       1  LIG1        0.0524
     48 H           2.5423   -5.1946   -1.6772 H       1  LIG1        0.0524
@<TRIPOS>BOND
     1     2     4    1
     2     4     5    2
     3     5     6    1
     4     6     7    1
     5     7     8    2
     6     7     9    1
     7     9    10    2
     8     4    10    1
     9    10    11    1
    10    11    12    1
    11    12    13    1
    12     2    12    1
    13    12    14    1
    14    14    15    1
    15    15    16   ar
    16    16    17   ar
    17    17    18   ar
    18    18    19   ar
    19    19    20   ar
    20    15    20   ar
    21    18    21    1
    22    21    22    1
    23    22    23    1
    24    17    23    1
    25     6    24    1
    26    24    25    1
    27    25    26    2
    28     6    27    1
    29    27    28    1
    30     2     3    1
    31     2     1    1
    32     1    29    1
    33     1    30    1
    34     1    31    1
    35     5    32    1
    36     9    33    1
    37    14    34    1
    38    14    35    1
    39    16    36    1
    40    19    37    1
    41    20    38    1
    42    22    39    1
    43    22    40    1
    44    24    41    1
    45    24    42    1
    46    25    43    1
    47    26    44    1
    48    26    45    1
    49    28    46    1
    50    28    47    1
    51    28    48    1
