@<TRIPOS>MOLECULE
NuBBE_196
 20 20 0 0 0
SMALL
GASTEIGER

@<TRIPOS>ATOM
      1 O          -0.2226   -3.4058    1.4907 O.3     1  LIG1       -0.4771
      2 C          -0.5611   -2.1101    1.6058 C.2     1  LIG1        0.3369
      3 C          -0.0434   -1.2755    0.4945 C.ar    1  LIG1        0.0625
      4 C          -0.3378    0.0988    0.5115 C.ar    1  LIG1       -0.0023
      5 C           0.1270    0.9245   -0.5114 C.ar    1  LIG1        0.1620
      6 O          -0.0843    2.2749   -0.6210 O.3     1  LIG1       -0.4914
      7 C          -0.8529    2.8854    0.4104 C.3     1  LIG1        0.0790
      8 C           0.8855    0.3588   -1.5436 C.ar    1  LIG1        0.1585
      9 O           1.3561    1.1435   -2.5610 O.3     1  LIG1       -0.5033
     10 C           1.1839   -0.9981   -1.5730 C.ar    1  LIG1       -0.0157
     11 C           0.7175   -1.8211   -0.5490 C.ar    1  LIG1       -0.0441
     12 O          -1.2256   -1.7098    2.5438 O.2     1  LIG1       -0.2451
     13 H          -0.6246   -3.8276    2.2789 H       1  LIG1        0.2954
     14 H          -0.9293    0.4914    1.3331 H       1  LIG1        0.0663
     15 H          -0.9335    3.9520    0.1797 H       1  LIG1        0.0660
     16 H          -0.3551    2.7910    1.3811 H       1  LIG1        0.0660
     17 H          -1.8672    2.4740    0.4426 H       1  LIG1        0.0660
     18 H           1.0413    2.0450   -2.3532 H       1  LIG1        0.2923
     19 H           1.7745   -1.4086   -2.3869 H       1  LIG1        0.0655
     20 H           0.9516   -2.8826   -0.5731 H       1  LIG1        0.0627
@<TRIPOS>BOND
     1     1     2    1
     2     2     3    1
     3     3     4   ar
     4     4     5   ar
     5     5     6    1
     6     6     7    1
     7     5     8   ar
     8     8     9    1
     9     8    10   ar
    10    10    11   ar
    11     3    11   ar
    12     2    12    2
    13     1    13    1
    14     4    14    1
    15     7    15    1
    16     7    16    1
    17     7    17    1
    18     9    18    1
    19    10    19    1
    20    11    20    1
