@<TRIPOS>MOLECULE
NuBBE_1834
 54 56 0 0 0
SMALL
GASTEIGER

@<TRIPOS>ATOM
      1 C          -3.7946    0.6623   -0.7087 C.3     1  LIG1       -0.0546
      2 C          -2.3370    0.5295   -0.2754 C.3     1  LIG1        0.0258
      3 H          -2.3205    0.3840    0.8107 H       1  LIG1        0.0387
      4 C          -1.6362   -0.5625   -1.0197 C.2     1  LIG1        0.0003
      5 C          -1.5605   -1.8780   -0.7794 C.2     1  LIG1       -0.0378
      6 C          -0.8001   -2.8429   -1.6878 C.3     1  LIG1        0.1528
      7 C          -0.1943   -2.0925   -2.9327 C.2     1  LIG1        0.1953
      8 O           0.3841   -2.6847   -3.8538 O.2     1  LIG1       -0.2891
      9 C          -0.2312   -0.6139   -3.0123 C.2     1  LIG1        0.0261
     10 C          -0.9074    0.0631   -2.0752 C.2     1  LIG1        0.1282
     11 O          -0.9447    1.4388   -2.0105 O.2     1  LIG1       -0.4832
     12 C          -1.5146    1.7577   -0.7144 C.3     1  LIG1        0.1320
     13 H          -2.1718    2.6255   -0.8538 H       1  LIG1        0.0790
     14 C          -0.3950    2.1652    0.2304 C.ar    1  LIG1        0.0004
     15 C           0.0229    3.4957    0.2979 C.ar    1  LIG1       -0.0094
     16 C           1.1126    3.8668    1.0989 C.ar    1  LIG1        0.1655
     17 O           1.5413    5.1724    1.1942 O.3     1  LIG1       -0.4913
     18 C           1.2963    5.9933    0.0537 C.3     1  LIG1        0.0790
     19 C           1.7905    2.8915    1.8712 C.ar    1  LIG1        0.2035
     20 C           1.3079    1.5715    1.8874 C.ar    1  LIG1        0.1655
     21 C           0.2610    1.2265    1.0319 C.ar    1  LIG1       -0.0094
     22 O           1.8887    0.6361    2.7091 O.3     1  LIG1       -0.4913
     23 C           1.0520   -0.4426    3.1251 C.3     1  LIG1        0.0790
     24 O           2.8840    3.3321    2.5808 O.3     1  LIG1       -0.4885
     25 C           3.9516    2.4007    2.7500 C.3     1  LIG1        0.0791
     26 C           0.4060   -3.4790   -0.9282 C.3     1  LIG1        0.0052
     27 C           0.0516   -4.3225    0.2756 C.2     1  LIG1       -0.0876
     28 C           0.5502   -4.1251    1.5018 C.2     1  LIG1       -0.1025
     29 O          -1.7817   -3.8294   -2.0440 O.3     1  LIG1       -0.3643
     30 C          -1.3465   -4.8657   -2.9160 C.3     1  LIG1        0.0382
     31 H          -4.3595   -0.2358   -0.4397 H       1  LIG1        0.0237
     32 H          -3.8893    0.8156   -1.7891 H       1  LIG1        0.0237
     33 H          -4.2611    1.5166   -0.2057 H       1  LIG1        0.0237
     34 H          -2.0825   -2.3043    0.0729 H       1  LIG1        0.0609
     35 H           0.3093   -0.1330   -3.8105 H       1  LIG1        0.0690
     36 H          -0.5169    4.2317   -0.2890 H       1  LIG1        0.0659
     37 H           1.7977    6.9532    0.2089 H       1  LIG1        0.0660
     38 H           0.2297    6.2095   -0.0743 H       1  LIG1        0.0660
     39 H           1.7133    5.5372   -0.8507 H       1  LIG1        0.0660
     40 H          -0.0493    0.1937    0.9671 H       1  LIG1        0.0659
     41 H           1.6326   -1.0884    3.7890 H       1  LIG1        0.0660
     42 H           0.7388   -1.0706    2.2861 H       1  LIG1        0.0660
     43 H           0.1822   -0.0694    3.6760 H       1  LIG1        0.0660
     44 H           3.9109    1.9768    3.7587 H       1  LIG1        0.0660
     45 H           4.8962    2.9452    2.6546 H       1  LIG1        0.0660
     46 H           3.9761    1.6056    1.9959 H       1  LIG1        0.0660
     47 H           0.9650   -4.1318   -1.6113 H       1  LIG1        0.0343
     48 H           1.1175   -2.6925   -0.6432 H       1  LIG1        0.0343
     49 H          -0.6296   -5.1567    0.1110 H       1  LIG1        0.0567
     50 H           1.2531   -3.3252    1.7064 H       1  LIG1        0.0532
     51 H           0.2765   -4.7777    2.3255 H       1  LIG1        0.0532
     52 H          -2.1573   -5.5931   -3.0067 H       1  LIG1        0.0524
     53 H          -0.4774   -5.3969   -2.5216 H       1  LIG1        0.0524
     54 H          -1.1406   -4.4836   -3.9171 H       1  LIG1        0.0524
@<TRIPOS>BOND
     1     1     2    1
     2     2     3    1
     3     2     4    1
     4     4     5    2
     5     5     6    1
     6     6     7    1
     7     7     8    2
     8     7     9    1
     9     9    10    2
    10     4    10    1
    11    10    11    1
    12    11    12    1
    13     2    12    1
    14    14    15   ar
    15    15    16   ar
    16    16    17    1
    17    17    18    1
    18    16    19   ar
    19    19    20   ar
    20    20    21   ar
    21    14    21   ar
    22    20    22    1
    23    22    23    1
    24    19    24    1
    25    24    25    1
    26    26    27    1
    27    27    28    2
    28    29    30    1
    29    12    14    1
    30    12    13    1
    31     6    29    1
    32     6    26    1
    33     1    31    1
    34     1    32    1
    35     1    33    1
    36     5    34    1
    37     9    35    1
    38    15    36    1
    39    18    37    1
    40    18    38    1
    41    18    39    1
    42    21    40    1
    43    23    41    1
    44    23    42    1
    45    23    43    1
    46    25    44    1
    47    25    45    1
    48    25    46    1
    49    26    47    1
    50    26    48    1
    51    27    49    1
    52    28    50    1
    53    28    51    1
    54    30    52    1
    55    30    53    1
    56    30    54    1
