REMARK  Name = NuBBE_2382
REMARK  11 active torsions:
REMARK  status: ('A' for Active; 'I' for Inactive)
REMARK    1  A    between atoms: C_1  and  C_24
REMARK    2  A    between atoms: C_1  and  C_25
REMARK    3  A    between atoms: C_3  and  C_4
REMARK    4  A    between atoms: C_4  and  O_5
REMARK    5  A    between atoms: C_7  and  O_19
REMARK    6  A    between atoms: C_8  and  O_9
REMARK    7  A    between atoms: O_9  and  C_10
REMARK    8  A    between atoms: C_11  and  C_16
REMARK    9  A    between atoms: C_16  and  C_17
REMARK   10  A    between atoms: C_16  and  C_18
REMARK   11  A    between atoms: O_19  and  C_20
REMARK                            x       y       z     vdW  Elec       q    Type
REMARK                         _______ _______ _______ _____ _____    ______ ____
ROOT
ATOM      1  C   LIG A   1      -1.535   2.802   2.173  0.00  0.00    -0.031 C 
ATOM      2  C   LIG A   1      -1.006   1.374   1.698  0.00  0.00    +0.008 C 
ATOM      3  C   LIG A   1      -0.119   1.354   0.353  0.00  0.00    +0.026 C 
ATOM      4  C   LIG A   1       0.138  -0.114  -0.180  0.00  0.00    +0.010 A 
ATOM      5  C   LIG A   1       0.922  -0.414  -1.340  0.00  0.00    +0.166 A 
ATOM      6  C   LIG A   1       1.241  -1.744  -1.702  0.00  0.00    +0.165 A 
ATOM      7  C   LIG A   1       0.740  -2.820  -0.933  0.00  0.00    +0.001 A 
ATOM      8  C   LIG A   1      -0.122  -2.520   0.121  0.00  0.00    +0.011 A 
ATOM      9  C   LIG A   1      -0.470  -1.210   0.473  0.00  0.00    -0.040 A 
ATOM     10  C   LIG A   1      -1.512  -1.059   1.539  0.00  0.00    +0.036 C 
ATOM     11  C   LIG A   1      -2.123   0.325   1.577  0.00  0.00    +0.009 C 
ATOM     12  C   LIG A   1      -0.850   2.159  -0.766  0.00  0.00    +0.014 C 
ATOM     13  C   LIG A   1      -1.902   3.172  -0.305  0.00  0.00    +0.001 C 
ATOM     14  C   LIG A   1      -1.555   3.826   1.018  0.00  0.00    +0.007 C 
ATOM     15  C   LIG A   1      -2.960   2.763   2.793  0.00  0.00    +0.011 C 
ATOM     16  C   LIG A   1      -0.641   3.351   3.316  0.00  0.00    +0.011 C 
ENDROOT
BRANCH   7  17
ATOM     17  C   LIG A   1       1.092  -4.273  -1.226  0.00  0.00    +0.017 C 
ATOM     18  C   LIG A   1      -0.154  -5.108  -1.525  0.00  0.00    +0.012 C 
ATOM     19  C   LIG A   1       1.887  -4.892  -0.063  0.00  0.00    +0.012 C 
ENDBRANCH   7  17
BRANCH   6  20
ATOM     20  O   LIG A   1       1.897  -2.079  -2.859  0.00  0.00    -0.491 OA
ATOM     21  C   LIG A   1       3.293  -1.794  -2.875  0.00  0.00    +0.277 C 
ENDBRANCH   6  20
BRANCH   5  22
ATOM     22  O   LIG A   1       1.373   0.696  -2.011  0.00  0.00    -0.491 OA
ATOM     23  C   LIG A   1       1.557   0.698  -3.416  0.00  0.00    +0.277 C 
ENDBRANCH   5  22
BRANCH   3  24
ATOM     24  C   LIG A   1       1.261   2.002   0.763  0.00  0.00    +0.167 C 
BRANCH  24  25
ATOM     25  O   LIG A   1       2.237   2.221  -0.243  0.00  0.00    -0.394 OA
ATOM     26  H   LIG A   1       2.373   1.368  -0.696  0.00  0.00    +0.209 HD
ENDBRANCH  24  25
ENDBRANCH   3  24
TORSDOF 5
