REMARK  Name = NuBBE_1922
REMARK  3 active torsions:
REMARK  status: ('A' for Active; 'I' for Inactive)
REMARK    1  A    between atoms: C_1  and  C_2
REMARK    2  A    between atoms: C_11  and  C_13
REMARK    3  A    between atoms: C_13  and  C_14
REMARK                            x       y       z     vdW  Elec       q    Type
REMARK                         _______ _______ _______ _____ _____    ______ ____
ROOT
ATOM      1  C   LIG A   1       0.016  -1.322  -1.831  0.00  0.00    +0.012 C 
ATOM      2  C   LIG A   1       0.733  -1.115  -0.473  0.00  0.00    -0.025 C 
ATOM      3  C   LIG A   1      -0.235  -0.590   0.632  0.00  0.00    +0.021 C 
ATOM      4  C   LIG A   1      -1.300  -1.635   0.943  0.00  0.00    -0.073 C 
ATOM      5  C   LIG A   1      -0.726  -2.961   1.392  0.00  0.00    +0.030 C 
ATOM      6  C   LIG A   1       0.278  -3.508   0.377  0.00  0.00    +0.005 C 
ATOM      7  C   LIG A   1       1.337  -2.471  -0.011  0.00  0.00    +0.007 C 
ATOM      8  C   LIG A   1      -2.627  -1.454   0.841  0.00  0.00    +0.008 C 
ATOM      9  C   LIG A   1      -0.745   0.834   0.329  0.00  0.00    +0.016 C 
ATOM     10  C   LIG A   1       0.422   1.825   0.144  0.00  0.00    +0.015 C 
ATOM     11  C   LIG A   1       1.396   1.326  -0.941  0.00  0.00    +0.008 C 
ATOM     12  C   LIG A   1       1.886  -0.096  -0.657  0.00  0.00    +0.008 C 
ENDROOT
BRANCH  10  13
ATOM     13  C   LIG A   1      -0.101   3.245  -0.067  0.00  0.00    -0.077 C 
ATOM     14  C   LIG A   1      -0.511   3.975   1.189  0.00  0.00    +0.038 C 
ATOM     15  C   LIG A   1      -0.192   3.859  -1.259  0.00  0.00    +0.007 C 
ENDBRANCH  10  13
TORSDOF 1
