@<TRIPOS>MOLECULE
NuBBE_1905
 58 59 0 0 0
SMALL
GASTEIGER

@<TRIPOS>ATOM
      1 O          -3.0490    1.4133   -4.3524 O.2     1  LIG1       -0.2512
      2 C          -3.1341    0.3198   -3.8292 C.2     1  LIG1        0.3043
      3 C          -4.4210   -0.4615   -3.7279 C.3     1  LIG1        0.0332
      4 O          -2.1132   -0.3702   -3.2413 O.3     1  LIG1       -0.4600
      5 C          -0.8397    0.2857   -3.2556 C.3     1  LIG1        0.1178
      6 C          -0.5774    0.9842   -1.9322 C.ar    1  LIG1       -0.0064
      7 C          -1.0393    2.2995   -1.8009 C.ar    1  LIG1       -0.0547
      8 C          -0.7859    3.0380   -0.6492 C.ar    1  LIG1       -0.0553
      9 C          -0.0525    2.4972    0.4233 C.ar    1  LIG1       -0.0111
     10 C           0.1799    3.4051    1.6126 C.3     1  LIG1        0.0730
     11 O           1.4207    4.1019    1.4993 O.3     1  LIG1       -0.3784
     12 C           1.6351    4.9340    2.6387 C.3     1  LIG1        0.0369
     13 C           0.4057    1.1638    0.3092 C.ar    1  LIG1        0.0301
     14 C           0.1054    0.3858   -0.8400 C.ar    1  LIG1       -0.0295
     15 C           0.4940   -1.0798   -0.9387 C.3     1  LIG1       -0.0164
     16 C           1.1075   -1.7470    0.3160 C.3     1  LIG1        0.0468
     17 H           1.7758   -2.5342   -0.0627 H       1  LIG1        0.0383
     18 C           0.0346   -2.5152    1.1930 C.3     1  LIG1        0.1148
     19 C          -0.5891   -3.6687    0.3719 C.3     1  LIG1       -0.0247
     20 C           0.6748   -3.2366    2.4084 C.3     1  LIG1       -0.0247
     21 O          -0.9375   -1.5720    1.7494 O.3     1  LIG1       -0.4584
     22 C          -2.2953   -1.6517    1.5012 C.2     1  LIG1        0.3045
     23 C          -3.0971   -0.7171    2.3191 C.3     1  LIG1        0.0333
     24 O          -2.8337   -2.3880    0.6821 O.2     1  LIG1       -0.2511
     25 C           2.0142   -0.7190    1.0098 C.3     1  LIG1        0.1717
     26 H           2.4924   -1.1037    1.9144 H       1  LIG1        0.0823
     27 O           3.0390   -0.2208    0.1067 O.3     1  LIG1       -0.4530
     28 C           4.1715   -0.9314    0.0113 C.2     1  LIG1        0.3046
     29 C           5.1885   -0.2819   -0.8983 C.3     1  LIG1        0.0333
     30 O           4.3724   -2.0118    0.5664 O.2     1  LIG1       -0.2511
     31 C           1.2118    0.5061    1.3968 C.2     1  LIG1        0.2044
     32 O           1.2738    0.9600    2.5195 O.2     1  LIG1       -0.2881
     33 H          -5.0204   -0.2827   -4.6228 H       1  LIG1        0.0342
     34 H          -4.9642   -0.1322   -2.8403 H       1  LIG1        0.0342
     35 H          -4.2234   -1.5341   -3.6673 H       1  LIG1        0.0342
     36 H          -0.7401    0.9923   -4.0901 H       1  LIG1        0.0749
     37 H          -0.0783   -0.4766   -3.4539 H       1  LIG1        0.0749
     38 H          -1.6039    2.7662   -2.6085 H       1  LIG1        0.0622
     39 H          -1.1620    4.0589   -0.5973 H       1  LIG1        0.0621
     40 H           0.1060    2.8722    2.5627 H       1  LIG1        0.0610
     41 H          -0.6221    4.1546    1.6409 H       1  LIG1        0.0610
     42 H           2.4884    5.5905    2.4450 H       1  LIG1        0.0524
     43 H           1.8570    4.3227    3.5191 H       1  LIG1        0.0524
     44 H           0.7591    5.5622    2.8355 H       1  LIG1        0.0524
     45 H           1.2230   -1.1819   -1.7531 H       1  LIG1        0.0319
     46 H          -0.3982   -1.6257   -1.2516 H       1  LIG1        0.0319
     47 H           0.1724   -4.3376   -0.0429 H       1  LIG1        0.0268
     48 H          -1.1879   -3.3208   -0.4721 H       1  LIG1        0.0268
     49 H          -1.2502   -4.2698    1.0095 H       1  LIG1        0.0268
     50 H           1.1972   -4.1515    2.0970 H       1  LIG1        0.0268
     51 H          -0.1027   -3.5353    3.1245 H       1  LIG1        0.0268
     52 H           1.3854   -2.6242    2.9674 H       1  LIG1        0.0268
     53 H          -3.0786    0.2691    1.8689 H       1  LIG1        0.0342
     54 H          -2.7676   -0.7227    3.3487 H       1  LIG1        0.0342
     55 H          -4.1341   -1.0962    2.2986 H       1  LIG1        0.0342
     56 H           5.2929    0.7710   -0.6344 H       1  LIG1        0.0342
     57 H           4.8619   -0.3910   -1.9314 H       1  LIG1        0.0342
     58 H           6.1579   -0.7611   -0.7728 H       1  LIG1        0.0342
@<TRIPOS>BOND
     1     1     2    2
     2     2     3    1
     3     2     4    1
     4     4     5    1
     5     5     6    1
     6     6     7   ar
     7     7     8   ar
     8     8     9   ar
     9     9    10    1
    10    10    11    1
    11    11    12    1
    12     9    13   ar
    13    13    14   ar
    14     6    14   ar
    15    14    15    1
    16    15    16    1
    17    16    17    1
    18    16    18    1
    19    18    19    1
    20    18    20    1
    21    18    21    1
    22    21    22    1
    23    22    23    1
    24    22    24    2
    25    16    25    1
    26    25    26    1
    27    25    27    1
    28    27    28    1
    29    28    29    1
    30    28    30    2
    31    25    31    1
    32    13    31    1
    33    31    32    2
    34     3    33    1
    35     3    34    1
    36     3    35    1
    37     5    36    1
    38     5    37    1
    39     7    38    1
    40     8    39    1
    41    10    40    1
    42    10    41    1
    43    12    42    1
    44    12    43    1
    45    12    44    1
    46    15    45    1
    47    15    46    1
    48    19    47    1
    49    19    48    1
    50    19    49    1
    51    20    50    1
    52    20    51    1
    53    20    52    1
    54    23    53    1
    55    23    54    1
    56    23    55    1
    57    29    56    1
    58    29    57    1
    59    29    58    1
