@<TRIPOS>MOLECULE
NuBBE_1809
 53 52 0 0 0
SMALL
GASTEIGER

@<TRIPOS>ATOM
      1 C          -1.1623    4.7168    0.6910 C.3     1  LIG1       -0.0653
      2 C          -0.4848    3.7230    1.6115 C.3     1  LIG1       -0.0557
      3 C          -1.3469    3.2218    2.7800 C.3     1  LIG1       -0.0507
      4 C          -0.6794    2.2105    3.7582 C.3     1  LIG1       -0.0439
      5 C          -1.6209    1.9783    4.9592 C.3     1  LIG1       -0.0624
      6 C          -0.3410    0.8046    3.1859 C.3     1  LIG1       -0.0505
      7 C           0.7050    0.8158    2.0885 C.3     1  LIG1       -0.0528
      8 C           1.0119   -0.5184    1.4303 C.3     1  LIG1       -0.0530
      9 C           1.9183   -0.3044    0.2022 C.3     1  LIG1       -0.0531
     10 C           1.3683    0.6135   -0.9227 C.3     1  LIG1       -0.0531
     11 C           0.0180    0.2120   -1.5465 C.3     1  LIG1       -0.0531
     12 C           0.1758   -1.0442   -2.3892 C.3     1  LIG1       -0.0531
     13 C          -1.1264   -1.6498   -2.9079 C.3     1  LIG1       -0.0531
     14 C          -0.9431   -2.9441   -3.7270 C.3     1  LIG1       -0.0531
     15 C          -0.4549   -4.1817   -2.9492 C.3     1  LIG1       -0.0533
     16 C           0.9619   -4.1447   -2.3667 C.3     1  LIG1       -0.0559
     17 C           2.0310   -3.7243   -3.3633 C.3     1  LIG1       -0.0653
     18 H          -0.4236    5.1137   -0.0148 H       1  LIG1        0.0230
     19 H          -1.6029    5.5509    1.2527 H       1  LIG1        0.0230
     20 H          -1.9359    4.2150    0.0990 H       1  LIG1        0.0230
     21 H           0.4621    4.1219    1.9888 H       1  LIG1        0.0263
     22 H          -0.2549    2.9316    0.9156 H       1  LIG1        0.0263
     23 H          -2.2824    2.7959    2.3934 H       1  LIG1        0.0268
     24 H          -1.6328    4.1088    3.3648 H       1  LIG1        0.0268
     25 H           0.2539    2.6661    4.1429 H       1  LIG1        0.0298
     26 H          -2.4760    1.3441    4.6804 H       1  LIG1        0.0232
     27 H          -2.0186    2.9159    5.3583 H       1  LIG1        0.0232
     28 H          -1.0925    1.4690    5.7751 H       1  LIG1        0.0232
     29 H          -1.2610    0.3388    2.8069 H       1  LIG1        0.0268
     30 H           0.0189    0.1627    3.9984 H       1  LIG1        0.0268
     31 H           1.6216    1.3152    2.4233 H       1  LIG1        0.0265
     32 H           0.2874    1.3702    1.2764 H       1  LIG1        0.0265
     33 H           0.0803   -1.0066    1.1233 H       1  LIG1        0.0265
     34 H           1.5022   -1.1833    2.1496 H       1  LIG1        0.0265
     35 H           2.1861   -1.2821   -0.2095 H       1  LIG1        0.0265
     36 H           2.8600    0.1427    0.5515 H       1  LIG1        0.0265
     37 H           2.1236    0.6595   -1.7190 H       1  LIG1        0.0265
     38 H           1.2846    1.6402   -0.5510 H       1  LIG1        0.0265
     39 H          -0.3374    1.0290   -2.1844 H       1  LIG1        0.0265
     40 H          -0.7382    0.0606   -0.7696 H       1  LIG1        0.0265
     41 H           0.6617   -1.7487   -1.7359 H       1  LIG1        0.0265
     42 H           0.8569   -0.8464   -3.2265 H       1  LIG1        0.0265
     43 H          -1.6304   -0.9100   -3.5429 H       1  LIG1        0.0265
     44 H          -1.7985   -1.8597   -2.0694 H       1  LIG1        0.0265
     45 H          -0.3025   -2.7551   -4.5979 H       1  LIG1        0.0265
     46 H          -1.9265   -3.2034   -4.1442 H       1  LIG1        0.0265
     47 H          -0.5102   -5.0467   -3.6235 H       1  LIG1        0.0265
     48 H          -1.1610   -4.3888   -2.1351 H       1  LIG1        0.0265
     49 H           1.2173   -5.1348   -1.9728 H       1  LIG1        0.0263
     50 H           0.9897   -3.5172   -1.4762 H       1  LIG1        0.0263
     51 H           2.2143   -4.5250   -4.0839 H       1  LIG1        0.0230
     52 H           2.9706   -3.5018   -2.8484 H       1  LIG1        0.0230
     53 H           1.7636   -2.8268   -3.9299 H       1  LIG1        0.0230
@<TRIPOS>BOND
     1     1     2    1
     2     2     3    1
     3     3     4    1
     4     4     5    1
     5     4     6    1
     6     6     7    1
     7     7     8    1
     8     8     9    1
     9     9    10    1
    10    10    11    1
    11    11    12    1
    12    12    13    1
    13    13    14    1
    14    14    15    1
    15    15    16    1
    16    16    17    1
    17     1    18    1
    18     1    19    1
    19     1    20    1
    20     2    21    1
    21     2    22    1
    22     3    23    1
    23     3    24    1
    24     4    25    1
    25     5    26    1
    26     5    27    1
    27     5    28    1
    28     6    29    1
    29     6    30    1
    30     7    31    1
    31     7    32    1
    32     8    33    1
    33     8    34    1
    34     9    35    1
    35     9    36    1
    36    10    37    1
    37    10    38    1
    38    11    39    1
    39    11    40    1
    40    12    41    1
    41    12    42    1
    42    13    43    1
    43    13    44    1
    44    14    45    1
    45    14    46    1
    46    15    47    1
    47    15    48    1
    48    16    49    1
    49    16    50    1
    50    17    51    1
    51    17    52    1
    52    17    53    1
