REMARK  Name = NuBBE_376
REMARK  4 active torsions:
REMARK  status: ('A' for Active; 'I' for Inactive)
REMARK    1  A    between atoms: O_1  and  C_2
REMARK    2  A    between atoms: C_4  and  C_5
REMARK    3  A    between atoms: C_5  and  O_6
REMARK    4  A    between atoms: C_17  and  O_18
REMARK                            x       y       z     vdW  Elec       q    Type
REMARK                         _______ _______ _______ _____ _____    ______ ____
ROOT
ATOM      1  C   LIG A   1      -1.436   1.900  -0.040  0.00  0.00    +0.129 A 
ATOM      2  C   LIG A   1      -0.692   3.086  -0.049  0.00  0.00    +0.052 A 
ATOM      3  C   LIG A   1       0.707   3.050  -0.075  0.00  0.00    -0.018 A 
ATOM      4  C   LIG A   1       1.346   1.808  -0.093  0.00  0.00    +0.018 A 
ATOM      5  C   LIG A   1       0.599   0.617  -0.084  0.00  0.00    +0.037 A 
ATOM      6  C   LIG A   1      -0.799   0.649  -0.058  0.00  0.00    +0.074 A 
ATOM      7  C   LIG A   1      -1.556  -0.633  -0.050  0.00  0.00    +0.198 C 
ATOM      8  C   LIG A   1      -0.816  -1.913  -0.067  0.00  0.00    +0.037 A 
ATOM      9  C   LIG A   1       0.576  -1.929  -0.091  0.00  0.00    +0.033 A 
ATOM     10  C   LIG A   1       1.330  -0.666  -0.099  0.00  0.00    +0.195 C 
ATOM     11  O   LIG A   1       2.556  -0.680  -0.117  0.00  0.00    -0.287 OA
ATOM     12  C   LIG A   1       1.268  -3.149  -0.106  0.00  0.00    +0.016 A 
ATOM     13  C   LIG A   1       0.564  -4.354  -0.097  0.00  0.00    +0.046 A 
ATOM     14  C   LIG A   1      -0.826  -4.330  -0.073  0.00  0.00    +0.118 A 
ATOM     15  C   LIG A   1      -1.521  -3.124  -0.059  0.00  0.00    +0.057 A 
ATOM     16  O   LIG A   1      -2.780  -0.675  -0.030  0.00  0.00    -0.286 OA
ENDROOT
BRANCH   1  17
ATOM     17  O   LIG A   1      -2.797   1.996  -0.011  0.00  0.00    -0.506 OA
ATOM     18  H   LIG A   1      -3.079   2.924   0.000  0.00  0.00    +0.292 HD
ENDBRANCH   1  17
BRANCH  14  19
ATOM     19  O   LIG A   1      -1.554  -5.482  -0.064  0.00  0.00    -0.507 OA
ATOM     20  H   LIG A   1      -0.951  -6.243  -0.076  0.00  0.00    +0.292 HD
ENDBRANCH  14  19
BRANCH   3  21
ATOM     21  C   LIG A   1       1.498   4.330  -0.086  0.00  0.00    +0.191 C 
BRANCH  21  22
ATOM     22  O   LIG A   1       1.230   5.074   1.094  0.00  0.00    -0.390 OA
ATOM     23  H   LIG A   1       1.228   4.447   1.837  0.00  0.00    +0.210 HD
ENDBRANCH  21  22
ENDBRANCH   3  21
TORSDOF 4
