REMARK  Name = NuBBE_1045
REMARK  1 active torsions:
REMARK  status: ('A' for Active; 'I' for Inactive)
REMARK    1  A    between atoms: C_10  and  C_11
REMARK                            x       y       z     vdW  Elec       q    Type
REMARK                         _______ _______ _______ _____ _____    ______ ____
ROOT
ATOM      1  O   LIG A   1      -3.495  -0.881  -0.242  0.00  0.00    -0.287 OA
ATOM      2  C   LIG A   1      -2.277  -0.811  -0.146  0.00  0.00    +0.193 A 
ATOM      3  C   LIG A   1      -1.426  -2.003  -0.021  0.00  0.00    +0.064 A 
ATOM      4  C   LIG A   1      -1.984  -3.284  -0.010  0.00  0.00    +0.015 A 
ATOM      5  C   LIG A   1      -1.149  -4.397   0.109  0.00  0.00    +0.001 A 
ATOM      6  C   LIG A   1       0.233  -4.226   0.214  0.00  0.00    +0.004 A 
ATOM      7  C   LIG A   1       0.784  -2.943   0.202  0.00  0.00    +0.047 A 
ATOM      8  C   LIG A   1      -0.048  -1.830   0.084  0.00  0.00    +0.139 A 
ATOM      9  O   LIG A   1       0.551  -0.596   0.077  0.00  0.00    -0.455 OA
ATOM     10  C   LIG A   1      -0.254   0.528  -0.031  0.00  0.00    +0.139 A 
ATOM     11  C   LIG A   1      -1.590   0.490  -0.148  0.00  0.00    +0.098 A 
ENDROOT
BRANCH  10  12
ATOM     12  C   LIG A   1       0.488   1.804  -0.037  0.00  0.00    +0.017 A 
ATOM     13  C   LIG A   1       1.687   1.914  -0.758  0.00  0.00    +0.011 A 
ATOM     14  C   LIG A   1       2.409   3.111  -0.769  0.00  0.00    +0.001 A 
ATOM     15  C   LIG A   1       1.944   4.211  -0.052  0.00  0.00    +0.000 A 
ATOM     16  C   LIG A   1       0.762   4.116   0.677  0.00  0.00    +0.001 A 
ATOM     17  C   LIG A   1       0.039   2.919   0.687  0.00  0.00    +0.011 A 
ENDBRANCH  10  12
TORSDOF 1
