REMARK  Name = NuBBE_192
REMARK  13 active torsions:
REMARK  status: ('A' for Active; 'I' for Inactive)
REMARK    1  A    between atoms: O_1  and  C_2
REMARK    2  A    between atoms: C_5  and  C_6
REMARK    3  A    between atoms: C_6  and  O_7
REMARK    4  A    between atoms: C_12  and  O_14
REMARK    5  A    between atoms: O_14  and  C_15
REMARK    6  A    between atoms: C_18  and  C_20
REMARK    7  A    between atoms: C_20  and  O_21
REMARK    8  A    between atoms: C_22  and  O_24
REMARK    9  A    between atoms: C_25  and  O_27
REMARK   10  A    between atoms: C_28  and  O_30
REMARK   11  A    between atoms: C_33  and  C_34
REMARK   12  A    between atoms: C_34  and  O_35
REMARK   13  A    between atoms: O_35  and  C_36
REMARK                            x       y       z     vdW  Elec       q    Type
REMARK                         _______ _______ _______ _____ _____    ______ ____
ROOT
ATOM      1  C   LIG A   1      -2.179   3.647   0.017  0.00  0.00    +0.146 C 
ATOM      2  C   LIG A   1      -3.397   2.800  -0.118  0.00  0.00    +0.006 C 
ATOM      3  C   LIG A   1      -3.154   1.511   0.155  0.00  0.00    -0.036 C 
ATOM      4  C   LIG A   1      -1.020   2.619   0.147  0.00  0.00    +0.075 C 
ATOM      5  C   LIG A   1      -1.711   1.293   0.572  0.00  0.00    +0.096 C 
ATOM      6  C   LIG A   1      -0.982   0.061  -0.015  0.00  0.00    +0.317 C 
ATOM      7  O   LIG A   1      -0.813   0.170  -1.441  0.00  0.00    -0.470 OA
ATOM      8  C   LIG A   1      -0.193   1.335  -1.821  0.00  0.00    +0.201 C 
ATOM      9  C   LIG A   1      -0.199   2.467  -1.107  0.00  0.00    +0.077 C 
ENDROOT
BRANCH   1  10
ATOM     10  O   LIG A   1      -2.086   4.479  -1.127  0.00  0.00    -0.387 OA
ATOM     11  H   LIG A   1      -2.762   5.171  -1.042  0.00  0.00    +0.210 HD
ENDBRANCH   1  10
BRANCH   9  12
ATOM     12  C   LIG A   1       0.646   3.598  -1.573  0.00  0.00    +0.338 C 
ATOM     13  O   LIG A   1       1.100   3.708  -2.694  0.00  0.00    -0.245 OA
BRANCH  12  14
ATOM     14  O   LIG A   1       0.887   4.427  -0.520  0.00  0.00    -0.465 OA
ATOM     15  C   LIG A   1       1.735   5.544  -0.785  0.00  0.00    +0.280 C 
ENDBRANCH  12  14
ENDBRANCH   9  12
BRANCH   3  16
ATOM     16  C   LIG A   1      -4.161   0.415   0.122  0.00  0.00    +0.187 C 
BRANCH  16  17
ATOM     17  O   LIG A   1      -3.779  -0.551  -0.841  0.00  0.00    -0.391 OA
ATOM     18  H   LIG A   1      -3.494  -0.067  -1.637  0.00  0.00    +0.210 HD
ENDBRANCH  16  17
ENDBRANCH   3  16
BRANCH   6  19
ATOM     19  O   LIG A   1       0.276  -0.107   0.671  0.00  0.00    -0.309 OA
BRANCH  19  20
ATOM     20  C   LIG A   1       0.994  -1.279   0.242  0.00  0.00    +0.286 C 
ATOM     21  O   LIG A   1       0.189  -2.432   0.507  0.00  0.00    -0.340 OA
ATOM     22  C   LIG A   1       0.833  -3.666   0.197  0.00  0.00    +0.178 C 
ATOM     23  C   LIG A   1       2.037  -3.864   1.127  0.00  0.00    +0.177 C 
ATOM     24  C   LIG A   1       3.014  -2.715   0.897  0.00  0.00    +0.179 C 
ATOM     25  C   LIG A   1       2.345  -1.341   1.008  0.00  0.00    +0.201 C 
BRANCH  23  26
ATOM     26  O   LIG A   1       2.745  -5.085   0.879  0.00  0.00    -0.387 OA
ATOM     27  H   LIG A   1       2.068  -5.796   0.825  0.00  0.00    +0.210 HD
ENDBRANCH  23  26
BRANCH  24  28
ATOM     28  O   LIG A   1       4.092  -2.799   1.848  0.00  0.00    -0.386 OA
ATOM     29  H   LIG A   1       4.361  -3.741   1.841  0.00  0.00    +0.210 HD
ENDBRANCH  24  28
BRANCH  25  30
ATOM     30  O   LIG A   1       3.284  -0.368   0.509  0.00  0.00    -0.384 OA
ATOM     31  H   LIG A   1       4.105  -0.527   1.018  0.00  0.00    +0.210 HD
ENDBRANCH  25  30
BRANCH  22  32
ATOM     32  C   LIG A   1      -0.191  -4.795   0.362  0.00  0.00    +0.190 C 
BRANCH  32  33
ATOM     33  O   LIG A   1       0.393  -6.066   0.083  0.00  0.00    -0.392 OA
ATOM     34  H   LIG A   1       0.353  -6.193  -0.884  0.00  0.00    +0.209 HD
ENDBRANCH  32  33
ENDBRANCH  22  32
ENDBRANCH  19  20
ENDBRANCH   6  19
TORSDOF 12
