REMARK  Name = NuBBE_1994
REMARK  14 active torsions:
REMARK  status: ('A' for Active; 'I' for Inactive)
REMARK    1  A    between atoms: C_1  and  O_2
REMARK    2  A    between atoms: O_2  and  C_3
REMARK    3  A    between atoms: C_5  and  O_6
REMARK    4  A    between atoms: O_6  and  C_7
REMARK    5  A    between atoms: C_8  and  C_9
REMARK    6  A    between atoms: C_9  and  C_11
REMARK    7  A    between atoms: C_12  and  O_13
REMARK    8  A    between atoms: O_13  and  C_14
REMARK    9  A    between atoms: C_16  and  O_17
REMARK   10  A    between atoms: O_17  and  C_18
REMARK   11  A    between atoms: C_19  and  C_20
REMARK   12  A    between atoms: C_21  and  O_22
REMARK   13  A    between atoms: C_23  and  O_24
REMARK   14  A    between atoms: C_25  and  C_26
REMARK                            x       y       z     vdW  Elec       q    Type
REMARK                         _______ _______ _______ _____ _____    ______ ____
ROOT
ATOM      1  C   LIG A   1      -1.301   0.144  -0.483  0.00  0.00    +0.207 C 
ATOM      2  O   LIG A   1      -2.503   0.335  -0.813  0.00  0.00    -0.286 OA
ENDROOT
BRANCH   1   6
ATOM      3  C   LIG A   1      -0.051   2.283   3.099  0.00  0.00    +0.130 A 
ATOM      4  C   LIG A   1       0.865   2.030   2.064  0.00  0.00    +0.092 A 
ATOM      5  C   LIG A   1       0.484   1.419   0.847  0.00  0.00    +0.138 A 
ATOM      6  C   LIG A   1      -0.839   0.988   0.678  0.00  0.00    +0.106 A 
ATOM      7  C   LIG A   1      -1.767   1.307   1.712  0.00  0.00    +0.138 A 
ATOM      8  C   LIG A   1      -1.381   1.879   2.947  0.00  0.00    +0.034 A 
ATOM      9  C   LIG A   1      -2.380   1.975   4.071  0.00  0.00    +0.051 C 
BRANCH   3  11
ATOM     10  C   LIG A   1      -0.264   3.883   4.853  0.00  0.00    +0.277 C 
ATOM     11  O   LIG A   1       0.501   2.856   4.219  0.00  0.00    -0.495 OA
ENDBRANCH   3  11
BRANCH   5  12
ATOM     12  O   LIG A   1       1.357   1.149  -0.174  0.00  0.00    -0.494 OA
ATOM     13  C   LIG A   1       2.658   1.722  -0.091  0.00  0.00    +0.277 C 
ENDBRANCH   5  12
BRANCH   7  14
ATOM     14  O   LIG A   1      -3.114   1.046   1.577  0.00  0.00    -0.505 OA
ATOM     15  H   LIG A   1      -3.288   0.767   0.654  0.00  0.00    +0.292 HD
ENDBRANCH   7  14
ENDBRANCH   1   6
BRANCH   1  16
ATOM     16  C   LIG A   1      -0.545  -0.869  -1.329  0.00  0.00    +0.106 A 
ATOM     17  C   LIG A   1       0.279  -1.937  -0.908  0.00  0.00    +0.138 A 
ATOM     18  C   LIG A   1       0.830  -2.840  -1.866  0.00  0.00    +0.092 A 
ATOM     19  C   LIG A   1       0.578  -2.747  -3.232  0.00  0.00    +0.130 A 
ATOM     20  C   LIG A   1      -0.294  -1.753  -3.682  0.00  0.00    +0.034 A 
ATOM     21  C   LIG A   1      -0.656  -1.701  -5.149  0.00  0.00    +0.051 C 
ATOM     22  C   LIG A   1      -0.851  -0.853  -2.733  0.00  0.00    +0.138 A 
BRANCH  17  23
ATOM     23  O   LIG A   1       0.560  -2.433   0.338  0.00  0.00    -0.494 OA
ATOM     24  C   LIG A   1       0.692  -1.567   1.435  0.00  0.00    +0.277 C 
ENDBRANCH  17  23
BRANCH  19  25
ATOM     25  O   LIG A   1       1.067  -3.626  -4.165  0.00  0.00    -0.495 OA
ATOM     26  C   LIG A   1       2.342  -4.207  -3.898  0.00  0.00    +0.277 C 
ENDBRANCH  19  25
BRANCH  22  27
ATOM     27  O   LIG A   1      -1.762   0.048  -3.253  0.00  0.00    -0.505 OA
ATOM     28  H   LIG A   1      -2.341   0.349  -2.522  0.00  0.00    +0.292 HD
ENDBRANCH  22  27
ENDBRANCH   1  16
TORSDOF 8
