REMARK  Name = NuBBE_78
REMARK  13 active torsions:
REMARK  status: ('A' for Active; 'I' for Inactive)
REMARK    1  A    between atoms: C_1  and  C_2
REMARK    2  A    between atoms: C_11  and  C_12
REMARK    3  A    between atoms: C_17  and  O_21
REMARK    4  A    between atoms: C_24  and  C_26
REMARK    5  A    between atoms: C_26  and  C_28
REMARK    6  A    between atoms: C_26  and  C_37
REMARK    7  A    between atoms: C_28  and  C_29
REMARK    8  A    between atoms: C_29  and  C_30
REMARK    9  A    between atoms: C_30  and  C_32
REMARK   10  A    between atoms: C_30  and  C_35
REMARK   11  A    between atoms: C_32  and  C_33
REMARK   12  A    between atoms: C_32  and  C_34
REMARK   13  A    between atoms: C_35  and  C_36
REMARK                            x       y       z     vdW  Elec       q    Type
REMARK                         _______ _______ _______ _____ _____    ______ ____
ROOT
ATOM      1  C   LIG A   1       1.374  -0.868   1.761  0.00  0.00    +0.012 C 
ATOM      2  C   LIG A   1       1.089   0.349   0.824  0.00  0.00    -0.026 C 
ATOM      3  C   LIG A   1       0.966   1.670   1.604  0.00  0.00    -0.001 C 
ATOM      4  C   LIG A   1      -0.308   1.892   2.436  0.00  0.00    +0.000 C 
ATOM      5  C   LIG A   1      -1.599   1.427   1.692  0.00  0.00    +0.003 C 
ATOM      6  C   LIG A   1      -1.317   1.030   0.224  0.00  0.00    +0.005 C 
ATOM      7  C   LIG A   1      -0.200   0.008   0.059  0.00  0.00    +0.007 C 
ATOM      8  C   LIG A   1      -2.623   0.496   2.457  0.00  0.00    -0.008 C 
ATOM      9  C   LIG A   1      -4.038   0.937   1.969  0.00  0.00    +0.016 C 
ATOM     10  C   LIG A   1      -2.513   0.642   3.971  0.00  0.00    -0.065 C 
ATOM     11  C   LIG A   1      -1.456   1.172   4.596  0.00  0.00    -0.027 C 
ATOM     12  C   LIG A   1      -0.197   1.604   3.926  0.00  0.00    +0.031 C 
ATOM     13  C   LIG A   1      -3.541  -0.116   4.781  0.00  0.00    +0.062 C 
ATOM     14  C   LIG A   1      -3.373  -1.614   4.490  0.00  0.00    +0.119 C 
ATOM     15  C   LIG A   1      -3.412  -1.921   2.990  0.00  0.00    +0.032 C 
ATOM     16  C   LIG A   1      -2.470  -1.023   2.172  0.00  0.00    +0.013 C 
ATOM     17  C   LIG A   1       2.361   1.879   2.192  0.00  0.00    +0.004 C 
ATOM     18  C   LIG A   1       3.310   1.300   1.116  0.00  0.00    +0.004 C 
ATOM     19  C   LIG A   1       2.406   0.642   0.017  0.00  0.00    -0.002 C 
ENDROOT
BRANCH  14  20
ATOM     20  O   LIG A   1      -4.386  -2.363   5.156  0.00  0.00    -0.392 OA
ATOM     21  H   LIG A   1      -5.246  -2.087   4.796  0.00  0.00    +0.210 HD
ENDBRANCH  14  20
BRANCH  19  22
ATOM     22  C   LIG A   1       2.425   1.519  -1.290  0.00  0.00    -0.010 C 
ATOM     23  C   LIG A   1       2.117   3.021  -1.137  0.00  0.00    +0.008 C 
BRANCH  22  24
ATOM     24  C   LIG A   1       1.617   1.006  -2.502  0.00  0.00    +0.004 C 
BRANCH  24  25
ATOM     25  C   LIG A   1       1.806  -0.481  -2.834  0.00  0.00    +0.004 C 
BRANCH  25  26
ATOM     26  C   LIG A   1       0.949  -0.976  -4.034  0.00  0.00    -0.009 C 
BRANCH  26  27
ATOM     27  C   LIG A   1       1.177  -2.499  -4.305  0.00  0.00    -0.014 C 
ATOM     28  C   LIG A   1       0.965  -3.363  -3.052  0.00  0.00    +0.007 C 
ATOM     29  C   LIG A   1       0.259  -3.036  -5.411  0.00  0.00    +0.007 C 
ENDBRANCH  26  27
BRANCH  26  30
ATOM     30  C   LIG A   1       1.149  -0.102  -5.297  0.00  0.00    +0.000 C 
ATOM     31  C   LIG A   1       2.548  -0.155  -5.899  0.00  0.00    +0.004 C 
ENDBRANCH  26  30
ENDBRANCH  25  26
ENDBRANCH  24  25
ENDBRANCH  22  24
ENDBRANCH  19  22
TORSDOF 7
