@<TRIPOS>MOLECULE
NuBBE_549
 38 41 0 0 0
SMALL
GASTEIGER

@<TRIPOS>ATOM
      1 O          -2.2133    0.0612    0.4407 O.2     1  LIG1       -0.2897
      2 C          -1.0709   -0.2965    0.7406 C.2     1  LIG1        0.1876
      3 C          -0.6619   -1.6848    0.3864 C.ar    1  LIG1        0.0199
      4 C           0.2715   -2.4051    1.1372 C.ar    1  LIG1       -0.0477
      5 C           0.5970   -3.7144    0.7709 C.ar    1  LIG1       -0.0193
      6 C           0.0056   -4.3124   -0.3438 C.ar    1  LIG1        0.1201
      7 O           0.3802   -5.6065   -0.5757 O.3     1  LIG1       -0.4951
      8 C           0.3306   -6.0298   -1.9336 C.3     1  LIG1        0.0788
      9 C          -0.9393   -3.6031   -1.0835 C.ar    1  LIG1       -0.0193
     10 C          -1.2732   -2.2947   -0.7175 C.ar    1  LIG1       -0.0477
     11 C          -0.0527    0.6126    1.4545 C.3     1  LIG1        0.1096
     12 C           0.1900    1.8963    0.6677 C.ar    1  LIG1       -0.0089
     13 C           0.8339    1.8353   -0.5833 C.ar    1  LIG1       -0.0102
     14 C           1.0094    3.0112   -1.2790 C.ar    1  LIG1        0.1666
     15 C           0.5828    4.2193   -0.7823 C.ar    1  LIG1        0.1668
     16 O           0.8482    5.2500   -1.6297 O.3     1  LIG1       -0.4526
     17 C           1.4558    4.5452   -2.7319 C.3     1  LIG1        0.2332
     18 O           1.5978    3.1283   -2.4992 O.3     1  LIG1       -0.4526
     19 C          -0.0403    4.3248    0.4428 C.ar    1  LIG1       -0.0086
     20 C          -0.2389    3.1500    1.1814 C.ar    1  LIG1       -0.0148
     21 C          -0.8982    3.2104    2.4880 C.2     1  LIG1       -0.0406
     22 C          -0.9983    2.0959    3.2180 C.2     1  LIG1       -0.0093
     23 N          -0.5050    0.8702    2.8359 N.pl3   1  LIG1       -0.3363
     24 H           0.7397   -1.9915    2.0261 H       1  LIG1        0.0626
     25 H           1.3159   -4.2779    1.3619 H       1  LIG1        0.0654
     26 H           0.7311   -7.0473   -1.9778 H       1  LIG1        0.0660
     27 H           0.9609   -5.3917   -2.5621 H       1  LIG1        0.0660
     28 H          -0.6951   -6.0666   -2.3121 H       1  LIG1        0.0660
     29 H          -1.4566   -4.0479   -1.9270 H       1  LIG1        0.0654
     30 H          -2.0257   -1.7560   -1.2930 H       1  LIG1        0.0626
     31 H           0.9204    0.1173    1.5290 H       1  LIG1        0.0631
     32 H           1.1793    0.8978   -1.0051 H       1  LIG1        0.0659
     33 H           2.4481    4.9716   -2.9172 H       1  LIG1        0.1166
     34 H           0.8375    4.6922   -3.6252 H       1  LIG1        0.1166
     35 H          -0.3639    5.2920    0.8102 H       1  LIG1        0.0661
     36 H          -1.3033    4.1522    2.8382 H       1  LIG1        0.0636
     37 H          -1.4957    2.0989    4.1850 H       1  LIG1        0.0778
     38 H          -1.0034    0.0932    3.2646 H       1  LIG1        0.1465
@<TRIPOS>BOND
     1     1     2    2
     2     2     3    1
     3     3     4   ar
     4     4     5   ar
     5     5     6   ar
     6     6     7    1
     7     7     8    1
     8     6     9   ar
     9     9    10   ar
    10     3    10   ar
    11     2    11    1
    12    11    12    1
    13    12    13   ar
    14    13    14   ar
    15    14    15   ar
    16    15    16    1
    17    16    17    1
    18    17    18    1
    19    14    18    1
    20    15    19   ar
    21    19    20   ar
    22    12    20   ar
    23    20    21    1
    24    21    22    2
    25    22    23    1
    26    11    23    1
    27     4    24    1
    28     5    25    1
    29     8    26    1
    30     8    27    1
    31     8    28    1
    32     9    29    1
    33    10    30    1
    34    11    31    1
    35    13    32    1
    36    17    33    1
    37    17    34    1
    38    19    35    1
    39    21    36    1
    40    22    37    1
    41    23    38    1
