REMARK  Name = NuBBE_466
REMARK  18 active torsions:
REMARK  status: ('A' for Active; 'I' for Inactive)
REMARK    1  A    between atoms: C_1  and  C_2
REMARK    2  A    between atoms: C_5  and  C_23
REMARK    3  A    between atoms: C_7  and  C_8
REMARK    4  A    between atoms: C_7  and  O_9
REMARK    5  A    between atoms: O_9  and  C_10
REMARK    6  A    between atoms: C_10  and  C_11
REMARK    7  A    between atoms: C_13  and  O_15
REMARK    8  A    between atoms: O_15  and  C_16
REMARK    9  A    between atoms: C_16  and  C_17
REMARK   10  A    between atoms: C_23  and  C_24
REMARK   11  A    between atoms: C_27  and  O_29
REMARK   12  A    between atoms: O_29  and  C_30
REMARK   13  A    between atoms: C_30  and  C_31
REMARK   14  A    between atoms: C_33  and  C_34
REMARK   15  A    between atoms: C_33  and  O_35
REMARK   16  A    between atoms: O_35  and  C_36
REMARK   17  A    between atoms: C_36  and  C_37
REMARK   18  A    between atoms: C_43  and  C_44
REMARK                            x       y       z     vdW  Elec       q    Type
REMARK                         _______ _______ _______ _____ _____    ______ ____
ROOT
ATOM      1  C   LIG A   1      -1.437   0.517   0.818  0.00  0.00    +0.078 C 
ENDROOT
BRANCH   1   6
ATOM      2  C   LIG A   1      -5.910  -2.284  -1.228  0.00  0.00    +0.086 C 
ATOM      3  C   LIG A   1      -4.689  -2.528  -0.410  0.00  0.00    +0.102 C 
ATOM      4  C   LIG A   1      -3.819  -1.553  -0.056  0.00  0.00    +0.050 C 
ATOM      5  C   LIG A   1      -2.449  -1.911   0.346  0.00  0.00    -0.005 C 
ATOM      6  C   LIG A   1      -1.462  -1.010   0.594  0.00  0.00    +0.011 C 
ATOM      7  C   LIG A   1      -0.156  -1.644   0.717  0.00  0.00    +0.207 C 
ATOM      8  C   LIG A   1       0.140  -2.842  -0.245  0.00  0.00    +0.213 C 
ATOM      9  C   LIG A   1       1.596  -3.278  -0.021  0.00  0.00    +0.069 C 
ATOM     10  C   LIG A   1      -0.761  -3.900   0.414  0.00  0.00    +0.261 C 
ATOM     11  C   LIG A   1      -2.170  -3.396   0.364  0.00  0.00    +0.040 C 
ATOM     12  C   LIG A   1      -3.164  -4.262   0.097  0.00  0.00    +0.203 C 
ATOM     13  O   LIG A   1      -4.444  -3.881  -0.214  0.00  0.00    -0.468 OA
ATOM     14  O   LIG A   1       0.696  -1.236   1.546  0.00  0.00    -0.288 OA
BRANCH   8  15
ATOM     15  O   LIG A   1      -0.031  -2.866  -1.758  0.00  0.00    -0.446 OA
BRANCH  15  16
ATOM     16  C   LIG A   1      -0.231  -1.932  -2.748  0.00  0.00    +0.305 C 
ATOM     17  C   LIG A   1       0.145  -2.443  -4.134  0.00  0.00    +0.136 C 
ATOM     18  O   LIG A   1      -0.617  -0.773  -2.614  0.00  0.00    -0.251 OA
ENDBRANCH  15  16
ENDBRANCH   8  15
BRANCH  10  19
ATOM     19  O   LIG A   1      -0.268  -4.358   1.722  0.00  0.00    -0.452 OA
BRANCH  19  20
ATOM     20  C   LIG A   1      -0.385  -3.674   2.893  0.00  0.00    +0.305 C 
ATOM     21  C   LIG A   1       0.589  -4.187   3.923  0.00  0.00    +0.136 C 
ATOM     22  O   LIG A   1      -1.132  -2.730   3.101  0.00  0.00    -0.251 OA
ENDBRANCH  19  20
ENDBRANCH  10  19
ENDBRANCH   1   6
BRANCH   1  23
ATOM     23  C   LIG A   1      -0.235   1.458   0.343  0.00  0.00    +0.011 C 
ATOM     24  C   LIG A   1       0.963   1.257  -0.297  0.00  0.00    -0.005 C 
ATOM     25  C   LIG A   1       2.006   2.272  -0.417  0.00  0.00    +0.040 C 
ATOM     26  C   LIG A   1       1.883   3.533   0.352  0.00  0.00    +0.261 C 
ATOM     27  C   LIG A   1       0.450   4.043   0.360  0.00  0.00    +0.213 C 
ATOM     28  C   LIG A   1       0.337   5.286   1.262  0.00  0.00    +0.069 C 
ATOM     29  C   LIG A   1      -0.516   2.917   0.793  0.00  0.00    +0.207 C 
ATOM     30  O   LIG A   1      -1.536   3.179   1.441  0.00  0.00    -0.288 OA
ATOM     31  C   LIG A   1       3.101   2.051  -1.170  0.00  0.00    +0.203 C 
ATOM     32  O   LIG A   1       3.413   0.853  -1.785  0.00  0.00    -0.468 OA
ATOM     33  C   LIG A   1       2.503  -0.173  -1.641  0.00  0.00    +0.102 C 
ATOM     34  C   LIG A   1       2.922  -1.380  -2.440  0.00  0.00    +0.086 C 
ATOM     35  C   LIG A   1       1.372   0.023  -0.947  0.00  0.00    +0.050 C 
BRANCH  26  36
ATOM     36  O   LIG A   1       2.580   3.371   1.621  0.00  0.00    -0.452 OA
BRANCH  36  37
ATOM     37  C   LIG A   1       2.099   2.620   2.651  0.00  0.00    +0.305 C 
ATOM     38  C   LIG A   1       3.170   2.230   3.596  0.00  0.00    +0.136 C 
ATOM     39  O   LIG A   1       0.934   2.260   2.790  0.00  0.00    -0.251 OA
ENDBRANCH  36  37
ENDBRANCH  26  36
BRANCH  27  40
ATOM     40  O   LIG A   1      -0.043   4.414  -0.968  0.00  0.00    -0.446 OA
BRANCH  40  41
ATOM     41  C   LIG A   1       0.435   5.561  -1.514  0.00  0.00    +0.305 C 
ATOM     42  C   LIG A   1      -0.700   6.459  -1.879  0.00  0.00    +0.136 C 
ATOM     43  O   LIG A   1       1.614   5.862  -1.588  0.00  0.00    -0.251 OA
ENDBRANCH  40  41
ENDBRANCH  27  40
ENDBRANCH   1  23
TORSDOF 10
