@<TRIPOS>MOLECULE
NuBBE_149
 27 28 0 0 0
SMALL
GASTEIGER

@<TRIPOS>ATOM
      1 O          -3.5426   -2.7611    2.4431 O.3     1  LIG1       -0.4771
      2 C          -2.1997   -2.8634    2.3575 C.2     1  LIG1        0.3368
      3 C          -1.5726   -1.7087    1.6759 C.ar    1  LIG1        0.0596
      4 C          -1.9883   -0.3975    1.9325 C.ar    1  LIG1       -0.0443
      5 C          -1.3720    0.6617    1.2649 C.ar    1  LIG1       -0.0185
      6 C          -0.3397    0.4157    0.3559 C.ar    1  LIG1        0.1289
      7 O           0.1955    1.5181   -0.2460 O.3     1  LIG1       -0.4816
      8 C           1.2574    1.3453   -1.2084 C.3     1  LIG1        0.1235
      9 C           0.7414    1.9242   -2.5311 C.3     1  LIG1       -0.0215
     10 C           1.7190   -0.0771   -1.4334 C.2     1  LIG1       -0.0409
     11 C           1.1802   -1.1325   -0.8170 C.2     1  LIG1       -0.0513
     12 C           0.0934   -0.8908    0.1165 C.ar    1  LIG1        0.0173
     13 C          -0.5226   -1.9551    0.7834 C.ar    1  LIG1       -0.0371
     14 C           2.4362    2.1850   -0.7022 C.3     1  LIG1       -0.0215
     15 O          -1.5681   -3.8274    2.7512 O.2     1  LIG1       -0.2451
     16 H          -3.9290   -2.0262    1.9310 H       1  LIG1        0.2954
     17 H          -2.7631   -0.1852    2.6647 H       1  LIG1        0.0627
     18 H          -1.6846    1.6851    1.4587 H       1  LIG1        0.0654
     19 H          -0.1310    1.3639   -2.8885 H       1  LIG1        0.0271
     20 H           1.5068    1.9046   -3.3147 H       1  LIG1        0.0271
     21 H           0.4088    2.9607   -2.4005 H       1  LIG1        0.0271
     22 H           2.5329   -0.2348   -2.1367 H       1  LIG1        0.0611
     23 H           1.5306   -2.1430   -0.9943 H       1  LIG1        0.0623
     24 H          -0.1919   -2.9786    0.6146 H       1  LIG1        0.0633
     25 H           2.1328    3.2259   -0.5394 H       1  LIG1        0.0271
     26 H           3.2775    2.1778   -1.4040 H       1  LIG1        0.0271
     27 H           2.7926    1.8134    0.2662 H       1  LIG1        0.0271
@<TRIPOS>BOND
     1     1     2    1
     2     2     3    1
     3     3     4   ar
     4     4     5   ar
     5     5     6   ar
     6     6     7    1
     7     7     8    1
     8     8     9    1
     9     8    10    1
    10    10    11    2
    11    11    12    1
    12     6    12   ar
    13    12    13   ar
    14     3    13   ar
    15     8    14    1
    16     2    15    2
    17     1    16    1
    18     4    17    1
    19     5    18    1
    20     9    19    1
    21     9    20    1
    22     9    21    1
    23    10    22    1
    24    11    23    1
    25    13    24    1
    26    14    25    1
    27    14    26    1
    28    14    27    1
