REMARK  Name = NuBBE_1497
REMARK  16 active torsions:
REMARK  status: ('A' for Active; 'I' for Inactive)
REMARK    1  A    between atoms: C_1  and  C_2
REMARK    2  A    between atoms: C_1  and  C_12
REMARK    3  A    between atoms: C_2  and  C_3
REMARK    4  A    between atoms: C_3  and  C_4
REMARK    5  A    between atoms: C_4  and  C_5
REMARK    6  A    between atoms: C_5  and  C_6
REMARK    7  A    between atoms: C_6  and  C_7
REMARK    8  A    between atoms: C_7  and  C_8
REMARK    9  A    between atoms: C_8  and  C_9
REMARK   10  A    between atoms: C_9  and  C_10
REMARK   11  A    between atoms: C_10  and  C_11
REMARK   12  A    between atoms: C_12  and  C_13
REMARK   13  A    between atoms: C_13  and  C_14
REMARK   14  A    between atoms: C_14  and  C_15
REMARK   15  A    between atoms: C_15  and  C_16
REMARK   16  A    between atoms: C_16  and  O_18
REMARK                            x       y       z     vdW  Elec       q    Type
REMARK                         _______ _______ _______ _____ _____    ______ ____
ROOT
ATOM      1  C   LIG A   1      -0.412  -3.400   0.410  0.00  0.00    -0.000 C 
ENDROOT
BRANCH   1   2
ATOM      2  C   LIG A   1      -0.979  -3.106  -0.994  0.00  0.00    -0.000 C 
BRANCH   2   3
ATOM      3  C   LIG A   1      -1.279  -1.634  -1.228  0.00  0.00    +0.000 C 
BRANCH   3   4
ATOM      4  C   LIG A   1      -1.808  -1.244  -2.603  0.00  0.00    +0.000 C 
BRANCH   4   5
ATOM      5  C   LIG A   1      -2.074   0.279  -2.662  0.00  0.00    +0.011 C 
BRANCH   5   6
ATOM      6  C   LIG A   1      -0.789   1.083  -2.458  0.00  0.00    +0.120 C 
BRANCH   6   7
ATOM      7  C   LIG A   1      -0.936   2.572  -2.665  0.00  0.00    +0.305 C 
ATOM      8  O   LIG A   1      -0.817   3.116  -3.736  0.00  0.00    -0.251 OA
BRANCH   7   9
ATOM      9  O   LIG A   1      -1.182   3.261  -1.522  0.00  0.00    -0.481 OA
ATOM     10  H   LIG A   1      -1.227   2.723  -0.712  0.00  0.00    +0.295 HD
ENDBRANCH   7   9
ENDBRANCH   6   7
ENDBRANCH   5   6
ENDBRANCH   4   5
ENDBRANCH   3   4
ENDBRANCH   2   3
ENDBRANCH   1   2
BRANCH   1  11
ATOM     11  C   LIG A   1      -1.285  -3.046   1.631  0.00  0.00    -0.000 C 
BRANCH  11  12
ATOM     12  C   LIG A   1      -1.587  -1.573   1.955  0.00  0.00    -0.000 C 
BRANCH  12  13
ATOM     13  C   LIG A   1      -0.369  -0.662   2.082  0.00  0.00    -0.000 C 
BRANCH  13  14
ATOM     14  C   LIG A   1      -0.784   0.802   2.258  0.00  0.00    -0.000 C 
BRANCH  14  15
ATOM     15  C   LIG A   1       0.361   1.808   2.406  0.00  0.00    -0.000 C 
BRANCH  15  16
ATOM     16  C   LIG A   1       1.309   1.996   1.212  0.00  0.00    -0.000 C 
BRANCH  16  17
ATOM     17  C   LIG A   1       2.284   0.854   0.891  0.00  0.00    -0.000 C 
BRANCH  17  18
ATOM     18  C   LIG A   1       3.258   1.175  -0.248  0.00  0.00    -0.003 C 
ATOM     19  C   LIG A   1       4.156   2.351   0.079  0.00  0.00    +0.004 C 
ENDBRANCH  17  18
ENDBRANCH  16  17
ENDBRANCH  15  16
ENDBRANCH  14  15
ENDBRANCH  13  14
ENDBRANCH  12  13
ENDBRANCH  11  12
ENDBRANCH   1  11
TORSDOF 15
