@<TRIPOS>MOLECULE
NuBBE_1369
 73 77 0 0 0
SMALL
GASTEIGER

@<TRIPOS>ATOM
      1 O          -5.9653    2.7855    1.1260 O.2     1  LIG1       -0.2456
      2 C          -5.1373    2.3078    0.3602 C.2     1  LIG1        0.3329
      3 C          -4.0801    1.4170    0.8700 C.2     1  LIG1        0.0298
      4 C          -3.0748    0.9981    0.0904 C.2     1  LIG1        0.0109
      5 C          -1.8785    0.3332    0.5818 C.2     1  LIG1        0.1282
      6 C          -0.9696   -0.1988   -0.2372 C.2     1  LIG1       -0.0151
      7 C           0.3822   -0.1675    0.4334 C.3     1  LIG1        0.0617
      8 C           1.0785   -1.5660    0.5233 C.3     1  LIG1       -0.0064
      9 H           0.3346   -2.2905    0.1589 H       1  LIG1        0.0323
     10 C           2.3114   -1.8080   -0.3827 C.3     1  LIG1        0.0494
     11 C           2.0924   -1.8533   -1.9258 C.2     1  LIG1        0.3071
     12 O           3.0357   -1.0390   -2.5183 O.3     1  LIG1       -0.4679
     13 C           3.2645   -1.2183   -3.9264 C.3     1  LIG1        0.0817
     14 O           1.3144   -2.5752   -2.5029 O.2     1  LIG1       -0.2509
     15 C           1.2627   -1.8925    2.0971 C.3     1  LIG1        0.0222
     16 C           2.7148   -1.6639    2.7412 C.3     1  LIG1        0.1659
     17 H           3.4206   -2.3073    2.1979 H       1  LIG1        0.0820
     18 O           3.1295   -0.3170    2.4627 O.3     1  LIG1       -0.4533
     19 C           4.2181    0.1879    3.0993 C.2     1  LIG1        0.3046
     20 C           4.8015    1.2884    2.2877 C.3     1  LIG1        0.0333
     21 O           4.7523   -0.2461    4.1196 O.2     1  LIG1       -0.2511
     22 C           2.8203   -2.0578    4.2589 C.2     1  LIG1        0.1711
     23 C           3.9433   -2.9842    4.7052 C.3     1  LIG1       -0.0023
     24 O           2.0729   -1.5668    5.1089 O.2     1  LIG1       -0.2937
     25 C           0.8171   -3.3577    2.3422 C.3     1  LIG1       -0.0553
     26 C           0.1597   -1.0071    2.7523 C.3     1  LIG1        0.0231
     27 C           1.1804    0.9702   -0.2253 C.3     1  LIG1       -0.0494
     28 C          -0.0541    0.2198    1.8781 C.3     1  LIG1        0.2203
     29 O           0.6763    1.3197    2.3976 O.3     1  LIG1       -0.3547
     30 O          -1.4498    0.6007    1.8691 O.2     1  LIG1       -0.4601
     31 C          -1.1752   -0.4132   -1.6998 C.3     1  LIG1       -0.0263
     32 C          -2.5458    0.0910   -2.1627 C.3     1  LIG1       -0.0359
     33 C          -3.0329    1.3567   -1.3980 C.3     1  LIG1        0.0382
     34 C          -2.0647    2.5601   -1.5518 C.3     1  LIG1       -0.0517
     35 C          -4.4623    1.7344   -1.8828 C.3     1  LIG1        0.1406
     36 H          -5.0986    0.8379   -1.9008 H       1  LIG1        0.0795
     37 C          -4.4984    2.3197   -3.2832 C.ar    1  LIG1        0.0313
     38 C          -4.4128    3.6524   -3.6498 C.ar    1  LIG1        0.0984
     39 O          -4.4814    3.7989   -4.9971 O.2     1  LIG1       -0.4706
     40 C          -4.6179    2.5574   -5.5219 C.ar    1  LIG1        0.0921
     41 C          -4.6292    1.6151   -4.5199 C.ar    1  LIG1       -0.0172
     42 O          -5.0933    2.6411   -0.9523 O.3     1  LIG1       -0.4525
     43 H          -4.1095    1.2248    1.9369 H       1  LIG1        0.0693
     44 H           3.1026   -1.0893   -0.1693 H       1  LIG1        0.0381
     45 H           2.7225   -2.8019   -0.1625 H       1  LIG1        0.0381
     46 H           3.9862   -2.0307   -4.0623 H       1  LIG1        0.0661
     47 H           3.7237   -0.3018   -4.3163 H       1  LIG1        0.0661
     48 H           2.3545   -1.4178   -4.5001 H       1  LIG1        0.0661
     49 H           4.0766    2.0912    2.1503 H       1  LIG1        0.0342
     50 H           5.1004    0.8554    1.3288 H       1  LIG1        0.0342
     51 H           5.6943    1.6821    2.7820 H       1  LIG1        0.0342
     52 H           4.8180   -2.4200    5.0427 H       1  LIG1        0.0307
     53 H           4.2464   -3.6705    3.9129 H       1  LIG1        0.0307
     54 H           3.5891   -3.5771    5.5551 H       1  LIG1        0.0307
     55 H          -0.1990   -3.5204    1.9551 H       1  LIG1        0.0236
     56 H           0.7711   -3.5869    3.4122 H       1  LIG1        0.0236
     57 H           1.4696   -4.0830    1.8501 H       1  LIG1        0.0236
     58 H           0.4138   -0.7123    3.7716 H       1  LIG1        0.0335
     59 H          -0.7836   -1.5620    2.8286 H       1  LIG1        0.0335
     60 H           1.4562    0.7405   -1.2561 H       1  LIG1        0.0240
     61 H           2.0853    1.2210    0.3296 H       1  LIG1        0.0240
     62 H           0.5840    1.8898   -0.2737 H       1  LIG1        0.0240
     63 H           0.2375    1.5281    3.2411 H       1  LIG1        0.2138
     64 H          -1.0786   -1.4771   -1.9423 H       1  LIG1        0.0312
     65 H          -0.4094    0.1184   -2.2711 H       1  LIG1        0.0312
     66 H          -3.2769   -0.7191   -2.0185 H       1  LIG1        0.0278
     67 H          -2.4966    0.2691   -3.2417 H       1  LIG1        0.0278
     68 H          -1.3139    2.6038   -0.7593 H       1  LIG1        0.0239
     69 H          -2.5883    3.5187   -1.4781 H       1  LIG1        0.0239
     70 H          -1.5312    2.5302   -2.5066 H       1  LIG1        0.0239
     71 H          -4.2984    4.5744   -3.0950 H       1  LIG1        0.1033
     72 H          -4.6913    2.5115   -6.6003 H       1  LIG1        0.1029
     73 H          -4.7164    0.5478   -4.6667 H       1  LIG1        0.0653
@<TRIPOS>BOND
     1     2     3    1
     2     3     4    2
     3     4     5    1
     4     5     6    2
     5     6     7    1
     6     7     8    1
     7    10    11    1
     8    11    12    1
     9    12    13    1
    10    11    14    2
    11     8    15    1
    12    16    17    1
    13    16    18    1
    14    18    19    1
    15    19    20    1
    16    19    21    2
    17    16    22    1
    18    22    23    1
    19    22    24    2
    20    15    26    1
    21     7    28    1
    22    26    28    1
    23    28    30    1
    24     5    30    1
    25     6    31    1
    26    31    32    1
    27    32    33    1
    28     4    33    1
    29    33    35    1
    30    37    38   ar
    31    38    39   ar
    32    39    40   ar
    33    40    41   ar
    34    37    41   ar
    35    35    42    1
    36     2    42    1
    37     1     2    2
    38     7    27    1
    39    28    29    1
    40    33    34    1
    41     8    10    1
    42     8     9    1
    43    15    25    1
    44    15    16    1
    45    35    37    1
    46    35    36    1
    47     3    43    1
    48    10    44    1
    49    10    45    1
    50    13    46    1
    51    13    47    1
    52    13    48    1
    53    20    49    1
    54    20    50    1
    55    20    51    1
    56    23    52    1
    57    23    53    1
    58    23    54    1
    59    25    55    1
    60    25    56    1
    61    25    57    1
    62    26    58    1
    63    26    59    1
    64    27    60    1
    65    27    61    1
    66    27    62    1
    67    29    63    1
    68    31    64    1
    69    31    65    1
    70    32    66    1
    71    32    67    1
    72    34    68    1
    73    34    69    1
    74    34    70    1
    75    38    71    1
    76    40    72    1
    77    41    73    1
