REMARK  Name = NuBBE_1650
REMARK  15 active torsions:
REMARK  status: ('A' for Active; 'I' for Inactive)
REMARK    1  A    between atoms: C_1  and  C_2
REMARK    2  A    between atoms: C_1  and  C_11
REMARK    3  A    between atoms: C_3  and  C_4
REMARK    4  A    between atoms: C_3  and  C_10
REMARK    5  A    between atoms: C_4  and  C_5
REMARK    6  A    between atoms: C_5  and  C_6
REMARK    7  A    between atoms: C_7  and  C_8
REMARK    8  A    between atoms: C_7  and  C_9
REMARK    9  A    between atoms: C_12  and  O_13
REMARK   10  A    between atoms: C_14  and  C_15
REMARK   11  A    between atoms: C_15  and  C_16
REMARK   12  A    between atoms: C_17  and  C_18
REMARK   13  A    between atoms: C_17  and  C_19
REMARK   14  A    between atoms: C_21  and  C_23
REMARK   15  A    between atoms: C_23  and  O_25
REMARK                            x       y       z     vdW  Elec       q    Type
REMARK                         _______ _______ _______ _____ _____    ______ ____
ROOT
ATOM      1  C   LIG A   1      -0.255  -2.333  -1.375  0.00  0.00    -0.001 A 
ATOM      2  C   LIG A   1       0.512  -1.283  -0.870  0.00  0.00    +0.124 A 
ATOM      3  C   LIG A   1       1.903  -1.363  -0.661  0.00  0.00    -0.001 A 
ATOM      4  C   LIG A   1       2.540  -2.545  -0.978  0.00  0.00    +0.022 A 
ATOM      5  C   LIG A   1       1.809  -3.642  -1.462  0.00  0.00    +0.060 A 
ATOM      6  C   LIG A   1       0.421  -3.523  -1.664  0.00  0.00    +0.022 A 
ENDROOT
BRANCH   2   7
ATOM      7  O   LIG A   1      -0.144  -0.148  -0.539  0.00  0.00    -0.506 OA
ATOM      8  H   LIG A   1       0.043   0.525  -1.214  0.00  0.00    +0.292 HD
ENDBRANCH   2   7
BRANCH   5   9
ATOM      9  C   LIG A   1       2.557  -4.873  -1.762  0.00  0.00    +0.337 C 
ATOM     10  O   LIG A   1       3.830  -4.922  -1.652  0.00  0.00    -0.245 OA
BRANCH   9  11
ATOM     11  O   LIG A   1       1.872  -5.931  -2.161  0.00  0.00    -0.477 OA
ATOM     12  H   LIG A   1       0.898  -5.854  -2.095  0.00  0.00    +0.295 HD
ENDBRANCH   9  11
ENDBRANCH   5   9
BRANCH   1  13
ATOM     13  C   LIG A   1      -1.766  -2.256  -1.558  0.00  0.00    +0.066 C 
BRANCH  13  14
ATOM     14  C   LIG A   1      -2.303  -0.919  -2.028  0.00  0.00    -0.023 C 
ATOM     15  C   LIG A   1      -2.823   0.046  -1.240  0.00  0.00    -0.076 C 
ATOM     16  C   LIG A   1      -2.921  -0.129   0.238  0.00  0.00    +0.038 C 
BRANCH  15  17
ATOM     17  C   LIG A   1      -3.150   1.435  -1.782  0.00  0.00    +0.034 C 
BRANCH  17  18
ATOM     18  C   LIG A   1      -2.894   2.681  -0.898  0.00  0.00    +0.031 C 
BRANCH  18  19
ATOM     19  C   LIG A   1      -1.459   3.018  -0.617  0.00  0.00    -0.028 C 
ATOM     20  C   LIG A   1      -0.769   2.837   0.525  0.00  0.00    -0.080 C 
ATOM     21  C   LIG A   1      -1.335   2.099   1.743  0.00  0.00    +0.038 C 
ATOM     22  C   LIG A   1       0.630   3.447   0.571  0.00  0.00    +0.038 C 
ENDBRANCH  18  19
ENDBRANCH  17  18
ENDBRANCH  15  17
ENDBRANCH  13  14
ENDBRANCH   1  13
BRANCH   3  23
ATOM     23  C   LIG A   1       2.748  -0.218  -0.154  0.00  0.00    +0.066 C 
BRANCH  23  24
ATOM     24  C   LIG A   1       2.017   0.625   0.830  0.00  0.00    -0.023 C 
ATOM     25  C   LIG A   1       1.990   0.701   2.175  0.00  0.00    -0.079 C 
ATOM     26  C   LIG A   1       2.721  -0.247   3.034  0.00  0.00    +0.038 C 
ATOM     27  C   LIG A   1       1.211   1.648   3.055  0.00  0.00    +0.038 C 
ENDBRANCH  23  24
ENDBRANCH   3  23
TORSDOF 10
