@<TRIPOS>MOLECULE
NuBBE_623
 31 32 0 0 0
SMALL
GASTEIGER

@<TRIPOS>ATOM
      1 C           1.0530    2.5219    1.5702 C.3     1  LIG1       -0.0521
      2 C          -0.2640    1.7587    1.2916 C.3     1  LIG1        0.0146
      3 C          -0.7680    1.0546    2.5697 C.2     1  LIG1       -0.0809
      4 C          -0.1796    0.9842    3.7734 C.2     1  LIG1       -0.1018
      5 C          -1.3667    2.7907    0.9576 C.3     1  LIG1       -0.0521
      6 C          -0.0610    0.7516    0.1279 C.ar    1  LIG1        0.0470
      7 C          -0.2153   -0.5832    0.2450 C.ar    1  LIG1       -0.0403
      8 C           0.0020   -1.4952   -0.8671 C.ar    1  LIG1        0.0181
      9 C          -0.2133   -2.8728   -0.7621 C.ar    1  LIG1       -0.0476
     10 C           0.0396   -3.7098   -1.8557 C.ar    1  LIG1       -0.0194
     11 C           0.5134   -3.1628   -3.0465 C.ar    1  LIG1        0.1204
     12 O           0.7796   -3.9447   -4.1308 O.3     1  LIG1       -0.5066
     13 C           0.7265   -1.7959   -3.1659 C.ar    1  LIG1        0.0229
     14 C           0.4582   -0.9795   -2.0705 C.ar    1  LIG1        0.1425
     15 O           0.6485    0.4005   -2.2212 O.2     1  LIG1       -0.4218
     16 C           0.3477    1.3060   -1.2070 C.ar    1  LIG1        0.3413
     17 O           0.4389    2.5072   -1.4229 O.2     1  LIG1       -0.2449
     18 H           0.9340    3.2325    2.3978 H       1  LIG1        0.0241
     19 H           1.3859    3.1139    0.7125 H       1  LIG1        0.0241
     20 H           1.8690    1.8362    1.8275 H       1  LIG1        0.0241
     21 H          -1.7383    0.5636    2.4727 H       1  LIG1        0.0575
     22 H           0.7758    1.4485    3.9930 H       1  LIG1        0.0532
     23 H          -0.6596    0.4526    4.5906 H       1  LIG1        0.0532
     24 H          -1.5607    3.4499    1.8138 H       1  LIG1        0.0241
     25 H          -2.3127    2.3003    0.6981 H       1  LIG1        0.0241
     26 H          -1.0965    3.4459    0.1248 H       1  LIG1        0.0241
     27 H          -0.4937   -1.0467    1.1852 H       1  LIG1        0.0630
     28 H          -0.5785   -3.3083    0.1649 H       1  LIG1        0.0626
     29 H          -0.1349   -4.7773   -1.7589 H       1  LIG1        0.0654
     30 H           0.5792   -4.8694   -3.9114 H       1  LIG1        0.2921
     31 H           1.0913   -1.3734   -4.0966 H       1  LIG1        0.0691
@<TRIPOS>BOND
     1     1     2    1
     2     2     3    1
     3     3     4    2
     4     2     5    1
     5     2     6    1
     6     6     7   ar
     7     7     8   ar
     8     8     9   ar
     9     9    10   ar
    10    10    11   ar
    11    11    12    1
    12    11    13   ar
    13    13    14   ar
    14     8    14   ar
    15    14    15   ar
    16    15    16   ar
    17     6    16   ar
    18    16    17    2
    19     1    18    1
    20     1    19    1
    21     1    20    1
    22     3    21    1
    23     4    22    1
    24     4    23    1
    25     5    24    1
    26     5    25    1
    27     5    26    1
    28     7    27    1
    29     9    28    1
    30    10    29    1
    31    12    30    1
    32    13    31    1
