@<TRIPOS>MOLECULE
NuBBE_362
 46 47 0 0 0
SMALL
GASTEIGER

@<TRIPOS>ATOM
      1 O           6.3326   -2.4805    3.0569 O.3     1  LIG1       -0.5033
      2 C           5.0163   -2.1829    2.8459 C.ar    1  LIG1        0.1582
      3 C           4.5903   -1.7380    1.5993 C.ar    1  LIG1       -0.0160
      4 C           3.2406   -1.4394    1.3974 C.ar    1  LIG1       -0.0509
      5 C           2.3086   -1.5655    2.4399 C.ar    1  LIG1       -0.0211
      6 C           2.7504   -2.0309    3.6880 C.ar    1  LIG1       -0.0094
      7 C           4.1005   -2.3303    3.8869 C.ar    1  LIG1        0.1588
      8 O           4.5414   -2.7711    5.1040 O.3     1  LIG1       -0.5033
      9 C           0.8802   -1.2701    2.2436 C.2     1  LIG1       -0.0477
     10 C           0.4284   -0.3572    1.3661 C.2     1  LIG1        0.0231
     11 C          -1.0129   -0.1161    1.1996 C.2     1  LIG1        0.3323
     12 O          -1.1709    1.0274    0.4896 O.3     1  LIG1       -0.4555
     13 C          -2.5254    1.4023    0.1665 C.3     1  LIG1        0.1346
     14 H          -3.1518    1.3142    1.0646 H       1  LIG1        0.0762
     15 C          -2.5335    2.8717   -0.2867 C.3     1  LIG1        0.1180
     16 H          -2.0873    3.5157    0.4799 H       1  LIG1        0.0656
     17 C          -1.7608    3.0524   -1.6032 C.3     1  LIG1        0.0877
     18 H          -0.6949    2.8497   -1.4568 H       1  LIG1        0.0621
     19 C          -2.3295    2.1649   -2.7085 C.3     1  LIG1        0.0153
     20 C          -2.4396    0.6920   -2.3065 C.3     1  LIG1        0.1678
     21 O          -3.3080    0.0738   -3.2819 O.3     1  LIG1       -0.3772
     22 C          -3.0904    0.4912   -0.9330 C.3     1  LIG1        0.0264
     23 C          -1.0655   -0.0136   -2.4065 C.2     1  LIG1        0.3391
     24 O          -1.2678   -1.3312   -2.7193 O.3     1  LIG1       -0.4659
     25 C          -0.1356   -2.0267   -3.2426 C.3     1  LIG1        0.0818
     26 O           0.0263    0.5199   -2.2749 O.2     1  LIG1       -0.2476
     27 O          -1.8937    4.4171   -2.0252 O.3     1  LIG1       -0.3890
     28 O          -3.8834    3.3205   -0.4664 O.3     1  LIG1       -0.3856
     29 O          -1.9040   -0.8517    1.6072 O.2     1  LIG1       -0.2456
     30 H           6.8240   -2.3433    2.2327 H       1  LIG1        0.2923
     31 H           5.2859   -1.6197    0.7748 H       1  LIG1        0.0655
     32 H           2.9306   -1.1137    0.4074 H       1  LIG1        0.0625
     33 H           2.0424   -2.1516    4.5031 H       1  LIG1        0.0661
     34 H           3.8039   -2.7699    5.7326 H       1  LIG1        0.2923
     35 H           0.1809   -1.8243    2.8678 H       1  LIG1        0.0626
     36 H           1.0860    0.2341    0.7415 H       1  LIG1        0.0689
     37 H          -1.7159    2.2731   -3.6134 H       1  LIG1        0.0324
     38 H          -3.3169    2.5397   -3.0129 H       1  LIG1        0.0324
     39 H          -3.2251   -0.8911   -3.1493 H       1  LIG1        0.2109
     40 H          -2.9931   -0.5621   -0.6453 H       1  LIG1        0.0335
     41 H          -4.1702    0.6689   -1.0196 H       1  LIG1        0.0335
     42 H          -0.2540   -3.0897   -3.0162 H       1  LIG1        0.0661
     43 H           0.8148   -1.6829   -2.8257 H       1  LIG1        0.0661
     44 H          -0.1374   -1.9041   -4.3299 H       1  LIG1        0.0661
     45 H          -1.2799    4.9493   -1.4873 H       1  LIG1        0.2099
     46 H          -3.8364    4.0797   -1.0841 H       1  LIG1        0.2100
@<TRIPOS>BOND
     1     1     2    1
     2     2     3   ar
     3     3     4   ar
     4     4     5   ar
     5     5     6   ar
     6     6     7   ar
     7     2     7   ar
     8     7     8    1
     9     5     9    1
    10     9    10    2
    11    10    11    1
    12    11    12    1
    13    12    13    1
    14    13    14    1
    15    13    15    1
    16    15    17    1
    17    17    18    1
    18    17    19    1
    19    19    20    1
    20    20    22    1
    21    13    22    1
    22    23    24    1
    23    24    25    1
    24    23    26    2
    25    17    27    1
    26    11    29    2
    27    15    28    1
    28    15    16    1
    29    20    23    1
    30    20    21    1
    31     1    30    1
    32     3    31    1
    33     4    32    1
    34     6    33    1
    35     8    34    1
    36     9    35    1
    37    10    36    1
    38    19    37    1
    39    19    38    1
    40    21    39    1
    41    22    40    1
    42    22    41    1
    43    25    42    1
    44    25    43    1
    45    25    44    1
    46    27    45    1
    47    28    46    1
