@<TRIPOS>MOLECULE
NuBBE_1829
 29 30 0 0 0
SMALL
GASTEIGER

@<TRIPOS>ATOM
      1 O          -1.9269   -0.5172    0.4103 O.2     1  LIG1       -0.2448
      2 C          -0.7590   -0.6401    0.7360 C.2     1  LIG1        0.3431
      3 O           0.0716    0.3417    1.1638 O.3     1  LIG1       -0.4563
      4 C          -0.5233    1.6352    1.3017 C.3     1  LIG1        0.1179
      5 C          -0.4878    2.3706   -0.0125 C.ar    1  LIG1       -0.0103
      6 C           0.7280    2.6264   -0.6627 C.ar    1  LIG1       -0.0554
      7 C           0.7430    3.2708   -1.9007 C.ar    1  LIG1       -0.0614
      8 C          -0.4534    3.6733   -2.4925 C.ar    1  LIG1       -0.0617
      9 C          -1.6649    3.4385   -1.8454 C.ar    1  LIG1       -0.0614
     10 C          -1.6824    2.7883   -0.6124 C.ar    1  LIG1       -0.0554
     11 C          -0.0235   -1.9246    0.6346 C.ar    1  LIG1        0.1003
     12 C          -0.3673   -2.7838   -0.4214 C.ar    1  LIG1       -0.0442
     13 C           0.2589   -4.0247   -0.5540 C.ar    1  LIG1       -0.0608
     14 C           1.2262   -4.4176    0.3697 C.ar    1  LIG1       -0.0583
     15 C           1.5731   -3.5717    1.4245 C.ar    1  LIG1       -0.0194
     16 C           0.9472   -2.3301    1.5601 C.ar    1  LIG1        0.1308
     17 O           1.2710   -1.5407    2.6283 O.3     1  LIG1       -0.5059
     18 H           0.0608    2.1948    2.0415 H       1  LIG1        0.0749
     19 H          -1.5401    1.5594    1.7077 H       1  LIG1        0.0749
     20 H           1.6665    2.3108   -0.2116 H       1  LIG1        0.0621
     21 H           1.6871    3.4533   -2.4069 H       1  LIG1        0.0618
     22 H          -0.4434    4.1669   -3.4602 H       1  LIG1        0.0618
     23 H          -2.5992    3.7515   -2.3030 H       1  LIG1        0.0618
     24 H          -2.6359    2.5903   -0.1270 H       1  LIG1        0.0621
     25 H          -1.1264   -2.4858   -1.1430 H       1  LIG1        0.0627
     26 H          -0.0119   -4.6864   -1.3737 H       1  LIG1        0.0618
     27 H           1.7058   -5.3889    0.2732 H       1  LIG1        0.0619
     28 H           2.3219   -3.9022    2.1383 H       1  LIG1        0.0654
     29 H           1.9842   -1.9581    3.1374 H       1  LIG1        0.2922
@<TRIPOS>BOND
     1     1     2    2
     2     2     3    1
     3     3     4    1
     4     4     5    1
     5     5     6   ar
     6     6     7   ar
     7     7     8   ar
     8     8     9   ar
     9     9    10   ar
    10     5    10   ar
    11     2    11    1
    12    11    12   ar
    13    12    13   ar
    14    13    14   ar
    15    14    15   ar
    16    15    16   ar
    17    11    16   ar
    18    16    17    1
    19     4    18    1
    20     4    19    1
    21     6    20    1
    22     7    21    1
    23     8    22    1
    24     9    23    1
    25    10    24    1
    26    12    25    1
    27    13    26    1
    28    14    27    1
    29    15    28    1
    30    17    29    1
