REMARK  Name = NuBBE_2218
REMARK  16 active torsions:
REMARK  status: ('A' for Active; 'I' for Inactive)
REMARK    1  A    between atoms: C_1  and  C_3
REMARK    2  A    between atoms: C_1  and  O_18
REMARK    3  A    between atoms: C_1  and  C_19
REMARK    4  A    between atoms: C_3  and  O_5
REMARK    5  A    between atoms: C_3  and  C_17
REMARK    6  A    between atoms: O_5  and  C_6
REMARK    7  A    between atoms: C_7  and  O_8
REMARK    8  A    between atoms: O_8  and  C_9
REMARK    9  A    between atoms: C_11  and  C_14
REMARK   10  A    between atoms: C_15  and  C_16
REMARK   11  A    between atoms: C_21  and  O_22
REMARK   12  A    between atoms: O_22  and  C_23
REMARK   13  A    between atoms: C_24  and  O_29
REMARK   14  A    between atoms: C_25  and  O_27
REMARK   15  A    between atoms: O_27  and  C_28
REMARK   16  A    between atoms: O_29  and  C_30
REMARK                            x       y       z     vdW  Elec       q    Type
REMARK                         _______ _______ _______ _____ _____    ______ ____
ROOT
ATOM      1  C   LIG A   1       1.346  -1.574   1.350  0.00  0.00    +0.185 C 
ENDROOT
BRANCH   1   2
ATOM      2  C   LIG A   1       1.323  -0.322   2.197  0.00  0.00    -0.009 A 
ATOM      3  C   LIG A   1       0.435  -0.199   3.266  0.00  0.00    +0.056 A 
ATOM      4  C   LIG A   1       0.559   0.860   4.179  0.00  0.00    +0.166 A 
ATOM      5  C   LIG A   1       1.504   1.889   3.959  0.00  0.00    +0.203 A 
ATOM      6  C   LIG A   1       2.301   1.844   2.805  0.00  0.00    +0.166 A 
ATOM      7  C   LIG A   1       2.249   0.704   2.002  0.00  0.00    +0.056 A 
BRANCH   4   8
ATOM      8  O   LIG A   1      -0.212   0.932   5.319  0.00  0.00    -0.491 OA
ATOM      9  C   LIG A   1      -0.613  -0.329   5.851  0.00  0.00    +0.277 C 
ENDBRANCH   4   8
BRANCH   6  10
ATOM     10  O   LIG A   1       3.167   2.871   2.518  0.00  0.00    -0.491 OA
ATOM     11  C   LIG A   1       3.454   3.074   1.133  0.00  0.00    +0.277 C 
ENDBRANCH   6  10
BRANCH   5  12
ATOM     12  O   LIG A   1       1.556   2.869   4.921  0.00  0.00    -0.488 OA
ATOM     13  C   LIG A   1       2.822   3.482   5.145  0.00  0.00    +0.277 C 
ENDBRANCH   5  12
ENDBRANCH   1   2
BRANCH   1  14
ATOM     14  C   LIG A   1       1.064  -1.423  -0.170  0.00  0.00    +0.203 C 
ATOM     15  C   LIG A   1       2.184  -0.753  -0.983  0.00  0.00    +0.055 C 
BRANCH  14  16
ATOM     16  O   LIG A   1      -0.200  -0.773  -0.356  0.00  0.00    -0.482 OA
BRANCH  16  17
ATOM     17  C   LIG A   1      -0.915  -1.026  -1.506  0.00  0.00    +0.163 A 
ATOM     18  C   LIG A   1      -2.142  -0.348  -1.658  0.00  0.00    +0.162 A 
ATOM     19  C   LIG A   1      -2.889  -0.522  -2.843  0.00  0.00    +0.057 A 
ATOM     20  C   LIG A   1      -2.425  -1.350  -3.862  0.00  0.00    -0.022 A 
ATOM     21  C   LIG A   1      -1.217  -2.056  -3.693  0.00  0.00    +0.012 A 
ATOM     22  C   LIG A   1      -0.485  -1.886  -2.514  0.00  0.00    +0.050 A 
BRANCH  20  23
ATOM     23  C   LIG A   1      -3.235  -1.529  -5.081  0.00  0.00    +0.003 C 
ATOM     24  C   LIG A   1      -2.707  -1.739  -6.298  0.00  0.00    -0.030 C 
ATOM     25  C   LIG A   1      -3.512  -1.960  -7.536  0.00  0.00    +0.035 C 
ENDBRANCH  20  23
BRANCH  18  26
ATOM     26  O   LIG A   1      -2.578   0.409  -0.600  0.00  0.00    -0.491 OA
ATOM     27  C   LIG A   1      -3.405   1.528  -0.908  0.00  0.00    +0.277 C 
ENDBRANCH  18  26
ENDBRANCH  16  17
ENDBRANCH  14  16
ENDBRANCH   1  14
BRANCH   1  28
ATOM     28  O   LIG A   1       2.618  -2.202   1.563  0.00  0.00    -0.384 OA
ATOM     29  H   LIG A   1       2.561  -3.103   1.205  0.00  0.00    +0.210 HD
ENDBRANCH   1  28
TORSDOF 10
