@<TRIPOS>MOLECULE
NuBBE_361
 114 120 0 0 0
SMALL
GASTEIGER

@<TRIPOS>ATOM
      1 O          -1.5932    8.9029    3.7638 O.3     1  LIG1       -0.5065
      2 C          -0.5997    8.0815    4.2047 C.ar    1  LIG1        0.1239
      3 C           0.7415    8.4806    4.2273 C.ar    1  LIG1        0.0223
      4 C           1.7527    7.5505    4.5332 C.ar    1  LIG1        0.1348
      5 O           3.0626    7.9317    4.4496 O.3     1  LIG1       -0.5058
      6 C           1.4349    6.2094    4.7504 C.ar    1  LIG1        0.1092
      7 C           2.3291    5.0416    4.6840 C.ar    1  LIG1        0.2382
      8 C           1.9816    3.9059    3.7711 C.ar    1  LIG1        0.2138
      9 O           2.9361    3.1175    3.1679 O.3     1  LIG1       -0.4532
     10 C           2.7717    1.6767    3.4258 C.3     1  LIG1        0.2315
     11 H           2.2113    1.5503    4.3610 H       1  LIG1        0.1084
     12 C           2.0169    1.0080    2.2356 C.3     1  LIG1        0.1519
     13 H           1.1027    1.5903    2.0970 H       1  LIG1        0.0687
     14 O           1.5894   -0.3399    2.5310 O.3     1  LIG1       -0.3366
     15 C           0.7960   -0.9008    1.4688 C.3     1  LIG1        0.1885
     16 H           1.3751   -0.9622    0.5490 H       1  LIG1        0.0938
     17 C           0.4293   -2.3657    1.7840 C.3     1  LIG1        0.1345
     18 H           0.2353   -2.4878    2.8530 H       1  LIG1        0.0671
     19 O           1.5295   -3.2395    1.4986 O.3     1  LIG1       -0.3841
     20 C          -0.8089   -2.7128    0.9597 C.3     1  LIG1        0.1205
     21 H          -1.1189   -3.7357    1.1794 H       1  LIG1        0.0651
     22 O          -0.5604   -2.6283   -0.4805 O.3     1  LIG1       -0.3401
     23 C           0.4612   -3.5259   -1.0930 C.3     1  LIG1        0.1884
     24 H           1.4180   -3.2298   -0.6791 H       1  LIG1        0.0938
     25 C           0.1356   -5.0740   -0.8537 C.3     1  LIG1        0.1341
     26 H          -0.7055   -5.1104   -0.1515 H       1  LIG1        0.0671
     27 O           1.1652   -5.8159   -0.2513 O.3     1  LIG1       -0.3841
     28 O           0.6106   -3.1192   -2.4968 O.3     1  LIG1       -0.3405
     29 C          -0.1124   -3.8523   -3.5459 C.3     1  LIG1        0.1134
     30 H           0.6629   -4.4578   -4.0463 H       1  LIG1        0.0647
     31 C          -0.4035   -2.6231   -4.8112 C.3     1  LIG1        0.0796
     32 O          -1.1869   -2.7788   -6.0590 O.3     1  LIG1       -0.3461
     33 C          -2.6092   -3.1247   -6.2167 C.3     1  LIG1        0.1879
     34 H          -2.8769   -2.9805   -7.2602 H       1  LIG1        0.0937
     35 C          -2.8941   -4.5998   -5.9764 C.3     1  LIG1        0.1341
     36 H          -2.5007   -5.3114   -6.7194 H       1  LIG1        0.0671
     37 O          -4.2258   -4.9489   -5.5919 O.3     1  LIG1       -0.3841
     38 C          -2.1249   -4.7766   -4.7610 C.3     1  LIG1        0.1140
     39 H          -1.0767   -4.7565   -5.0609 H       1  LIG1        0.0648
     40 O          -2.1343   -6.2464   -4.5990 O.3     1  LIG1       -0.3864
     41 C          -2.6977   -3.3754   -3.5903 C.3     1  LIG1        0.1095
     42 H          -3.5415   -3.7137   -2.9892 H       1  LIG1        0.0646
     43 O          -1.9873   -2.6726   -2.5263 O.3     1  LIG1       -0.3866
     44 C          -3.1335   -2.0911   -4.2131 C.3     1  LIG1        0.0873
     45 H          -2.3266   -1.3786   -4.3207 H       1  LIG1        0.0621
     46 C          -3.9526   -1.2978   -3.1780 C.3     1  LIG1       -0.0361
     47 O          -3.5958   -2.3429   -5.4936 O.3     1  LIG1       -0.3431
     48 C          -1.2935   -4.9417   -2.5808 C.3     1  LIG1        0.1119
     49 H          -1.6456   -4.3849   -1.7266 H       1  LIG1        0.0647
     50 O          -2.6199   -5.6973   -2.6232 O.3     1  LIG1       -0.3865
     51 C          -0.3282   -5.9002   -2.0540 C.3     1  LIG1        0.1141
     52 H           0.4320   -6.1974   -2.7818 H       1  LIG1        0.0648
     53 O          -1.0593   -7.0825   -1.6951 O.3     1  LIG1       -0.3864
     54 C          -1.9612   -1.7699    1.5128 C.3     1  LIG1        0.1098
     55 H          -2.8198   -1.7375    0.8362 H       1  LIG1        0.0646
     56 O          -2.4099   -2.3442    2.7654 O.3     1  LIG1       -0.3866
     57 C          -1.4775   -0.3325    1.8679 C.3     1  LIG1        0.0873
     58 H          -1.2567   -0.2509    2.9436 H       1  LIG1        0.0621
     59 C          -2.4903    0.7807    1.5530 C.3     1  LIG1       -0.0361
     60 O          -0.2938   -0.0365    1.1421 O.3     1  LIG1       -0.3431
     61 O           4.0478    1.0213    3.6700 O.3     1  LIG1       -0.3313
     62 C           4.6906    0.4312    2.5215 C.3     1  LIG1        0.1140
     63 H           4.3240   -0.5998    2.3895 H       1  LIG1        0.0647
     64 C           6.2029    0.3333    2.7445 C.3     1  LIG1        0.0731
     65 O           6.8937   -0.2730    1.6505 O.3     1  LIG1       -0.3924
     66 C           4.3738    1.2559    1.2842 C.3     1  LIG1        0.1120
     67 H           4.5388    2.3185    1.4819 H       1  LIG1        0.0647
     68 O           5.1670    0.9280    0.1411 O.3     1  LIG1       -0.3865
     69 C           2.9204    1.0002    0.9705 C.3     1  LIG1        0.1155
     70 H           2.8574    0.0740    0.4060 H       1  LIG1        0.0648
     71 O           2.5121    1.9489    0.0124 O.3     1  LIG1       -0.3863
     72 C           0.7118    4.1446    3.3156 C.ar    1  LIG1        0.1810
     73 C           0.2038    4.2424    1.9130 C.ar    1  LIG1        0.0247
     74 C           1.0212    4.0155    0.8181 C.ar    1  LIG1       -0.0473
     75 C           0.4957    3.8391   -0.4780 C.ar    1  LIG1       -0.0159
     76 C          -0.7958    4.2100   -0.7420 C.ar    1  LIG1        0.1583
     77 O          -1.3288    4.1053   -1.9904 O.3     1  LIG1       -0.5033
     78 C          -1.5382    4.7604    0.2819 C.ar    1  LIG1        0.1589
     79 O          -2.7134    5.3864   -0.0109 O.3     1  LIG1       -0.5033
     80 C          -1.0847    4.7155    1.6018 C.ar    1  LIG1       -0.0057
     81 O          -0.2120    4.5870    4.2653 O.2     1  LIG1       -0.4507
     82 C           0.0783    5.8700    4.6455 C.ar    1  LIG1        0.1465
     83 C          -0.9536    6.7860    4.4949 C.ar    1  LIG1        0.0231
     84 O           3.4922    5.0220    5.3836 O.2     1  LIG1       -0.2830
     85 H          -1.2298    9.4910    3.0802 H       1  LIG1        0.2921
     86 H           0.9895    9.4979    3.9454 H       1  LIG1        0.0691
     87 H           3.1159    8.8612    4.1725 H       1  LIG1        0.2922
     88 H           1.2286   -4.1658    1.5660 H       1  LIG1        0.2101
     89 H           0.8323   -6.7344   -0.3595 H       1  LIG1        0.2101
     90 H           0.5894   -2.3210   -5.1999 H       1  LIG1        0.0587
     91 H          -0.6079   -1.6536   -4.3388 H       1  LIG1        0.0587
     92 H          -4.6066   -4.1360   -5.2134 H       1  LIG1        0.2101
     93 H          -2.9226   -6.5248   -4.0981 H       1  LIG1        0.2100
     94 H          -1.0460   -2.6887   -2.3019 H       1  LIG1        0.2100
     95 H          -3.3838   -1.1140   -2.2400 H       1  LIG1        0.0255
     96 H          -4.8613   -1.8172   -2.8787 H       1  LIG1        0.0255
     97 H          -4.1392   -0.3137   -3.5877 H       1  LIG1        0.0255
     98 H          -3.4422   -5.3019   -2.9790 H       1  LIG1        0.2100
     99 H          -1.8737   -7.0154   -2.2688 H       1  LIG1        0.2100
    100 H          -3.3365   -2.6249    2.6698 H       1  LIG1        0.2100
    101 H          -2.2078    1.3458    0.6569 H       1  LIG1        0.0255
    102 H          -2.5069    1.5114    2.3740 H       1  LIG1        0.0255
    103 H          -3.5174    0.4229    1.4378 H       1  LIG1        0.0255
    104 H           6.4095   -0.2715    3.6307 H       1  LIG1        0.0584
    105 H           6.6218    1.3285    2.9236 H       1  LIG1        0.0584
    106 H           6.3850   -0.0757    0.8324 H       1  LIG1        0.2095
    107 H           5.2501    1.7701   -0.3504 H       1  LIG1        0.2100
    108 H           1.5467    1.9624    0.1420 H       1  LIG1        0.2100
    109 H           2.0893    3.8854    0.9767 H       1  LIG1        0.0626
    110 H           1.0990    3.3844   -1.2611 H       1  LIG1        0.0655
    111 H          -0.6919    3.6259   -2.5522 H       1  LIG1        0.2923
    112 H          -2.7262    5.4192   -0.9895 H       1  LIG1        0.2923
    113 H          -1.7410    5.1082    2.3688 H       1  LIG1        0.0662
    114 H          -1.9796    6.4459    4.3819 H       1  LIG1        0.0691
@<TRIPOS>BOND
     1     1     2    1
     2     2     3   ar
     3     3     4   ar
     4     4     5    1
     5     4     6   ar
     6     6     7   ar
     7     7     8   ar
     8     8     9    1
     9     9    10    1
    10    10    11    1
    11    10    12    1
    12    14    15    1
    13    15    16    1
    14    15    17    1
    15    17    20    1
    16    20    21    1
    17    20    22    1
    18    23    25    1
    19    23    28    1
    20    28    29    1
    21    29    30    1
    22    29    31    1
    23    31    32    1
    24    32    33    1
    25    33    34    1
    26    33    35    1
    27    35    38    1
    28    38    39    1
    29    38    40    1
    30    38    41    1
    31    41    44    1
    32    44    45    1
    33    44    46    1
    34    44    47    1
    35    33    47    1
    36    29    48    1
    37    48    51    1
    38    51    52    1
    39    25    51    1
    40    51    53    1
    41    20    54    1
    42    54    57    1
    43    57    58    1
    44    57    59    1
    45    57    60    1
    46    15    60    1
    47    10    61    1
    48    61    62    1
    49    62    63    1
    50    62    64    1
    51    64    65    1
    52    62    66    1
    53    66    69    1
    54    69    70    1
    55    12    69    1
    56    69    71    1
    57     8    72   ar
    58    72    73    1
    59    73    74   ar
    60    74    75   ar
    61    75    76   ar
    62    76    77    1
    63    76    78   ar
    64    78    79    1
    65    78    80   ar
    66    73    80   ar
    67    72    81   ar
    68    81    82   ar
    69     6    82   ar
    70    82    83   ar
    71     2    83   ar
    72     7    84    2
    73    12    14    1
    74    12    13    1
    75    17    19    1
    76    17    18    1
    77    35    37    1
    78    35    36    1
    79    23    24    1
    80    23    22    1
    81    25    27    1
    82    25    26    1
    83    66    68    1
    84    66    67    1
    85    41    43    1
    86    41    42    1
    87    48    50    1
    88    48    49    1
    89    54    56    1
    90    54    55    1
    91     1    85    1
    92     3    86    1
    93     5    87    1
    94    19    88    1
    95    27    89    1
    96    31    90    1
    97    31    91    1
    98    37    92    1
    99    40    93    1
   100    43    94    1
   101    46    95    1
   102    46    96    1
   103    46    97    1
   104    50    98    1
   105    53    99    1
   106    56   100    1
   107    59   101    1
   108    59   102    1
   109    59   103    1
   110    64   104    1
   111    64   105    1
   112    65   106    1
   113    68   107    1
   114    71   108    1
   115    74   109    1
   116    75   110    1
   117    77   111    1
   118    79   112    1
   119    80   113    1
   120    83   114    1
