REMARK  Name = NuBBE_1228
REMARK  17 active torsions:
REMARK  status: ('A' for Active; 'I' for Inactive)
REMARK    1  A    between atoms: C_1  and  C_2
REMARK    2  A    between atoms: C_3  and  O_39
REMARK    3  A    between atoms: C_7  and  O_8
REMARK    4  A    between atoms: C_10  and  O_12
REMARK    5  A    between atoms: C_13  and  O_15
REMARK    6  A    between atoms: C_17  and  C_18
REMARK    7  A    between atoms: C_25  and  C_27
REMARK    8  A    between atoms: C_27  and  C_28
REMARK    9  A    between atoms: C_27  and  O_37
REMARK   10  A    between atoms: C_27  and  C_38
REMARK   11  A    between atoms: C_28  and  O_30
REMARK   12  A    between atoms: C_28  and  C_31
REMARK   13  A    between atoms: C_31  and  C_32
REMARK   14  A    between atoms: C_32  and  C_33
REMARK   15  A    between atoms: C_33  and  C_34
REMARK   16  A    between atoms: C_33  and  C_35
REMARK   17  A    between atoms: C_33  and  O_36
REMARK                            x       y       z     vdW  Elec       q    Type
REMARK                         _______ _______ _______ _____ _____    ______ ____
ROOT
ATOM      1  C   LIG A   1      -3.291   0.130  -1.634  0.00  0.00    +0.014 C 
ATOM      2  C   LIG A   1      -1.762   0.025  -1.274  0.00  0.00    +0.006 C 
ATOM      3  C   LIG A   1      -0.914   1.064  -2.068  0.00  0.00    +0.093 C 
ATOM      4  C   LIG A   1       0.590   0.750  -2.095  0.00  0.00    -0.031 C 
ATOM      5  C   LIG A   1       1.541   1.658  -1.804  0.00  0.00    +0.051 C 
ATOM      6  C   LIG A   1       2.984   1.405  -2.071  0.00  0.00    +0.188 C 
ATOM      7  C   LIG A   1       3.328   0.200  -2.958  0.00  0.00    +0.136 C 
ATOM      8  C   LIG A   1       4.835  -0.089  -2.997  0.00  0.00    +0.077 C 
ATOM      9  C   LIG A   1       5.148  -1.278  -3.909  0.00  0.00    +0.146 C 
ATOM     10  C   LIG A   1       4.298  -2.526  -3.614  0.00  0.00    +0.144 C 
ATOM     11  C   LIG A   1       2.806  -2.227  -3.430  0.00  0.00    +0.044 C 
ATOM     12  C   LIG A   1       2.502  -1.023  -2.483  0.00  0.00    +0.013 C 
ATOM     13  C   LIG A   1       2.919  -1.406  -1.030  0.00  0.00    +0.015 C 
ATOM     14  C   LIG A   1       0.950  -0.663  -2.572  0.00  0.00    +0.027 C 
ATOM     15  C   LIG A   1       0.098  -1.713  -1.836  0.00  0.00    +0.009 C 
ATOM     16  C   LIG A   1      -1.387  -1.400  -1.718  0.00  0.00    +0.011 C 
ATOM     17  O   LIG A   1       3.815   2.223  -1.701  0.00  0.00    -0.290 OA
ATOM     18  C   LIG A   1      -1.341   2.376  -1.403  0.00  0.00    +0.040 C 
ATOM     19  C   LIG A   1      -1.380   2.049   0.087  0.00  0.00    +0.010 C 
ATOM     20  C   LIG A   1      -1.673   0.515   0.235  0.00  0.00    +0.032 C 
ENDROOT
BRANCH   7  21
ATOM     21  O   LIG A   1       2.942   0.551  -4.303  0.00  0.00    -0.380 OA
ATOM     22  H   LIG A   1       3.391   1.391  -4.518  0.00  0.00    +0.211 HD
ENDBRANCH   7  21
BRANCH   9  23
ATOM     23  O   LIG A   1       6.529  -1.641  -3.760  0.00  0.00    -0.389 OA
ATOM     24  H   LIG A   1       7.059  -0.840  -3.918  0.00  0.00    +0.210 HD
ENDBRANCH   9  23
BRANCH  10  25
ATOM     25  O   LIG A   1       4.806  -3.184  -2.448  0.00  0.00    -0.389 OA
ATOM     26  H   LIG A   1       5.780  -3.130  -2.542  0.00  0.00    +0.210 HD
ENDBRANCH  10  25
BRANCH  20  27
ATOM     27  C   LIG A   1      -0.768  -0.138   1.332  0.00  0.00    +0.092 C 
ATOM     28  C   LIG A   1      -1.013  -1.641   1.526  0.00  0.00    +0.044 C 
BRANCH  27  29
ATOM     29  O   LIG A   1       0.597   0.021   0.932  0.00  0.00    -0.386 OA
ATOM     30  H   LIG A   1       1.144  -0.240   1.700  0.00  0.00    +0.210 HD
ENDBRANCH  27  29
BRANCH  27  31
ATOM     31  C   LIG A   1      -0.934   0.575   2.744  0.00  0.00    +0.146 C 
BRANCH  31  32
ATOM     32  O   LIG A   1       0.088   0.072   3.631  0.00  0.00    -0.389 OA
ATOM     33  H   LIG A   1      -0.247  -0.739   4.051  0.00  0.00    +0.210 HD
ENDBRANCH  31  32
BRANCH  31  34
ATOM     34  C   LIG A   1      -2.324   0.413   3.409  0.00  0.00    +0.037 C 
BRANCH  34  35
ATOM     35  C   LIG A   1      -2.416   1.123   4.774  0.00  0.00    +0.036 C 
BRANCH  35  36
ATOM     36  C   LIG A   1      -3.777   0.996   5.500  0.00  0.00    +0.061 C 
ATOM     37  C   LIG A   1      -3.716   1.738   6.842  0.00  0.00    +0.041 C 
ATOM     38  C   LIG A   1      -4.954   1.529   4.681  0.00  0.00    +0.041 C 
BRANCH  36  39
ATOM     39  O   LIG A   1      -4.036  -0.386   5.763  0.00  0.00    -0.389 OA
ATOM     40  H   LIG A   1      -3.390  -0.695   6.422  0.00  0.00    +0.210 HD
ENDBRANCH  36  39
ENDBRANCH  35  36
ENDBRANCH  34  35
ENDBRANCH  31  34
ENDBRANCH  27  31
ENDBRANCH  20  27
BRANCH   3  41
ATOM     41  O   LIG A   1      -1.332   1.099  -3.434  0.00  0.00    -0.384 OA
ATOM     42  H   LIG A   1      -0.732   1.698  -3.908  0.00  0.00    +0.211 HD
ENDBRANCH   3  41
TORSDOF 12
