@<TRIPOS>MOLECULE
NuBBE_1028
 96 100 0 0 0
SMALL
GASTEIGER

@<TRIPOS>ATOM
      1 O           3.0539   -1.2154   -4.5537 O.3     1  LIG1       -0.3912
      2 C           4.0389   -0.6743   -3.6676 C.3     1  LIG1        0.0606
      3 H           4.9594   -0.6116   -4.2609 H       1  LIG1        0.0599
      4 C           3.6186    0.7389   -3.2819 C.3     1  LIG1       -0.0258
      5 C           2.4294    0.7850   -2.3130 C.3     1  LIG1       -0.0446
      6 C           2.5972   -0.0617   -1.0089 C.3     1  LIG1       -0.0228
      7 C           3.6306    0.6722   -0.1242 C.3     1  LIG1       -0.0589
      8 C           3.0496   -1.5103   -1.4629 C.3     1  LIG1       -0.0278
      9 C           3.1388   -2.4718   -0.2685 C.3     1  LIG1       -0.0486
     10 C           1.7633   -2.6547    0.3627 C.3     1  LIG1       -0.0465
     11 C           1.1111   -1.3451    0.8852 C.3     1  LIG1       -0.0206
     12 C           1.9254   -0.9282    2.1484 C.3     1  LIG1       -0.0587
     13 C           1.1763   -0.2144   -0.2477 C.3     1  LIG1       -0.0007
     14 H           0.5357   -0.5645   -1.0659 H       1  LIG1        0.0337
     15 C           0.4783    1.0960    0.2684 C.3     1  LIG1        0.0890
     16 O           0.4124    2.0852   -0.7782 O.3     1  LIG1       -0.3697
     17 C          -0.0647    3.3669   -0.3605 C.3     1  LIG1        0.0666
     18 C          -0.0450    4.2701   -1.5527 C.2     1  LIG1       -0.0600
     19 C          -1.0679    4.5235   -2.3916 C.2     1  LIG1       -0.0775
     20 C          -2.4366    3.8993   -2.2982 C.3     1  LIG1       -0.0440
     21 C          -0.8971    5.4641   -3.5550 C.3     1  LIG1       -0.0440
     22 C          -0.9781    0.8031    0.7155 C.3     1  LIG1        0.0852
     23 O          -1.7604    0.5291   -0.4485 O.3     1  LIG1       -0.3889
     24 C          -1.1169   -0.3028    1.7649 C.3     1  LIG1       -0.0028
     25 H          -0.5061    0.0480    2.6090 H       1  LIG1        0.0335
     26 C          -0.4432   -1.6319    1.3029 C.3     1  LIG1       -0.0208
     27 C          -1.2258   -2.2720    0.1177 C.3     1  LIG1       -0.0587
     28 C          -0.5384   -2.6039    2.5135 C.3     1  LIG1       -0.0463
     29 C          -1.9711   -2.9867    2.8509 C.3     1  LIG1       -0.0468
     30 C          -2.8946   -1.7856    3.1248 C.3     1  LIG1       -0.0283
     31 C          -2.9493   -1.5655    4.6574 C.3     1  LIG1       -0.0593
     32 C          -2.5363   -0.4169    2.4349 C.3     1  LIG1       -0.0234
     33 H          -2.4697    0.3069    3.2597 H       1  LIG1        0.0315
     34 C          -3.8149    0.0201    1.6391 C.3     1  LIG1       -0.0167
     35 H          -3.7265   -0.3476    0.6104 H       1  LIG1        0.0348
     36 C          -4.2158    1.5032    1.5873 C.2     1  LIG1       -0.0763
     37 C          -5.4458    1.8016    0.7579 C.3     1  LIG1       -0.0438
     38 C          -3.5976    2.5150    2.2103 C.2     1  LIG1       -0.0994
     39 C          -4.9438   -0.7747    2.3138 C.3     1  LIG1       -0.0457
     40 C          -4.3141   -2.1162    2.6182 C.3     1  LIG1       -0.0468
     41 H           2.2036   -1.8892   -2.0591 H       1  LIG1        0.0312
     42 C           4.2752   -1.6072   -2.4469 C.3     1  LIG1       -0.0056
     43 C           4.4149   -3.0619   -2.9804 C.3     1  LIG1       -0.0572
     44 C           5.6239   -1.2656   -1.7816 C.3     1  LIG1       -0.0572
     45 H           2.1996   -1.2401   -4.0928 H       1  LIG1        0.2098
     46 H           3.3337    1.2897   -4.1876 H       1  LIG1        0.0290
     47 H           4.4728    1.2750   -2.8565 H       1  LIG1        0.0290
     48 H           1.5289    0.4602   -2.8491 H       1  LIG1        0.0271
     49 H           2.2840    1.8410   -2.0666 H       1  LIG1        0.0271
     50 H           4.3699    1.2237   -0.7103 H       1  LIG1        0.0235
     51 H           4.2043    0.0010    0.5151 H       1  LIG1        0.0235
     52 H           3.1600    1.4259    0.5124 H       1  LIG1        0.0235
     53 H           3.8735   -2.1432    0.4705 H       1  LIG1        0.0268
     54 H           3.4672   -3.4651   -0.5888 H       1  LIG1        0.0268
     55 H           1.8606   -3.3870    1.1725 H       1  LIG1        0.0271
     56 H           1.1269   -3.1249   -0.3940 H       1  LIG1        0.0271
     57 H           2.9758   -0.7449    1.9369 H       1  LIG1        0.0235
     58 H           1.9332   -1.7245    2.9000 H       1  LIG1        0.0235
     59 H           1.5480   -0.0256    2.6315 H       1  LIG1        0.0235
     60 H           1.0469    1.5164    1.1040 H       1  LIG1        0.0625
     61 H           0.5740    3.7680    0.4334 H       1  LIG1        0.0604
     62 H          -1.0821    3.3138    0.0315 H       1  LIG1        0.0604
     63 H           0.9090    4.7692   -1.7154 H       1  LIG1        0.0594
     64 H          -2.5033    3.1064   -1.5505 H       1  LIG1        0.0274
     65 H          -2.7153    3.4515   -3.2580 H       1  LIG1        0.0274
     66 H          -3.1802    4.6610   -2.0434 H       1  LIG1        0.0274
     67 H           0.1118    5.8870   -3.6011 H       1  LIG1        0.0274
     68 H          -1.6061    6.2945   -3.4797 H       1  LIG1        0.0274
     69 H          -1.0780    4.9358   -4.4970 H       1  LIG1        0.0274
     70 H          -1.3744    1.7129    1.1573 H       1  LIG1        0.0622
     71 H          -1.3939    1.0952   -1.1572 H       1  LIG1        0.2099
     72 H          -1.0066   -1.8203   -0.8503 H       1  LIG1        0.0235
     73 H          -2.3083   -2.1949    0.2481 H       1  LIG1        0.0235
     74 H          -0.9973   -3.3396    0.0230 H       1  LIG1        0.0235
     75 H          -0.0920   -2.1585    3.4098 H       1  LIG1        0.0271
     76 H           0.0147   -3.5274    2.3131 H       1  LIG1        0.0271
     77 H          -1.9554   -3.6609    3.7176 H       1  LIG1        0.0271
     78 H          -2.3660   -3.6113    2.0412 H       1  LIG1        0.0271
     79 H          -3.2969   -2.4662    5.1761 H       1  LIG1        0.0235
     80 H          -3.6349   -0.7545    4.9280 H       1  LIG1        0.0235
     81 H          -1.9593   -1.3105    5.0508 H       1  LIG1        0.0235
     82 H          -5.6110    2.8781    0.6381 H       1  LIG1        0.0274
     83 H          -6.3392    1.3915    1.2406 H       1  LIG1        0.0274
     84 H          -5.3552    1.3682   -0.2417 H       1  LIG1        0.0274
     85 H          -3.9520    3.5397    2.1136 H       1  LIG1        0.0534
     86 H          -2.7205    2.3839    2.8346 H       1  LIG1        0.0534
     87 H          -5.8124   -0.8964    1.6573 H       1  LIG1        0.0271
     88 H          -5.2840   -0.2883    3.2358 H       1  LIG1        0.0271
     89 H          -4.2801   -2.6978    1.6884 H       1  LIG1        0.0271
     90 H          -4.9062   -2.6899    3.3385 H       1  LIG1        0.0271
     91 H           3.4529   -3.4661   -3.3145 H       1  LIG1        0.0236
     92 H           4.8162   -3.7412   -2.2209 H       1  LIG1        0.0236
     93 H           5.1055   -3.1027   -3.8312 H       1  LIG1        0.0236
     94 H           5.7214   -0.2109   -1.5257 H       1  LIG1        0.0236
     95 H           6.4557   -1.4927   -2.4602 H       1  LIG1        0.0236
     96 H           5.7873   -1.8527   -0.8723 H       1  LIG1        0.0236
@<TRIPOS>BOND
     1     2     4    1
     2     4     5    1
     3     5     6    1
     4     6     8    1
     5     8     9    1
     6     9    10    1
     7    10    11    1
     8    11    13    1
     9     6    13    1
    10    13    15    1
    11    16    17    1
    12    17    18    1
    13    18    19    2
    14    19    20    1
    15    19    21    1
    16    15    22    1
    17    22    24    1
    18    24    26    1
    19    11    26    1
    20    26    28    1
    21    28    29    1
    22    29    30    1
    23    30    32    1
    24    24    32    1
    25    32    34    1
    26    36    37    1
    27    36    38    2
    28    34    39    1
    29    39    40    1
    30    30    40    1
    31     8    42    1
    32     2    42    1
    33     1     2    1
    34     2     3    1
    35     6     7    1
    36     8    41    1
    37    11    12    1
    38    13    14    1
    39    15    16    1
    40    22    23    1
    41    24    25    1
    42    26    27    1
    43    30    31    1
    44    32    33    1
    45    42    43    1
    46    42    44    1
    47    34    36    1
    48    34    35    1
    49     1    45    1
    50     4    46    1
    51     4    47    1
    52     5    48    1
    53     5    49    1
    54     7    50    1
    55     7    51    1
    56     7    52    1
    57     9    53    1
    58     9    54    1
    59    10    55    1
    60    10    56    1
    61    12    57    1
    62    12    58    1
    63    12    59    1
    64    15    60    1
    65    17    61    1
    66    17    62    1
    67    18    63    1
    68    20    64    1
    69    20    65    1
    70    20    66    1
    71    21    67    1
    72    21    68    1
    73    21    69    1
    74    22    70    1
    75    23    71    1
    76    27    72    1
    77    27    73    1
    78    27    74    1
    79    28    75    1
    80    28    76    1
    81    29    77    1
    82    29    78    1
    83    31    79    1
    84    31    80    1
    85    31    81    1
    86    37    82    1
    87    37    83    1
    88    37    84    1
    89    38    85    1
    90    38    86    1
    91    39    87    1
    92    39    88    1
    93    40    89    1
    94    40    90    1
    95    43    91    1
    96    43    92    1
    97    43    93    1
    98    44    94    1
    99    44    95    1
   100    44    96    1
