REMARK  Name = NuBBE_556
REMARK  9 active torsions:
REMARK  status: ('A' for Active; 'I' for Inactive)
REMARK    1  A    between atoms: O_1  and  C_2
REMARK    2  A    between atoms: C_2  and  C_4
REMARK    3  A    between atoms: C_2  and  C_19
REMARK    4  A    between atoms: C_4  and  C_5
REMARK    5  A    between atoms: C_5  and  O_7
REMARK    6  A    between atoms: C_5  and  C_8
REMARK    7  A    between atoms: C_8  and  C_9
REMARK    8  A    between atoms: C_10  and  C_11
REMARK    9  A    between atoms: C_20  and  C_21
REMARK                            x       y       z     vdW  Elec       q    Type
REMARK                         _______ _______ _______ _____ _____    ______ ____
ROOT
ATOM      1  C   LIG A   1      -1.226  -1.266  -1.556  0.00  0.00    +0.121 C 
ENDROOT
BRANCH   1   2
ATOM      2  O   LIG A   1      -1.935  -2.426  -2.003  0.00  0.00    -0.391 OA
ATOM      3  H   LIG A   1      -2.061  -3.004  -1.220  0.00  0.00    +0.210 HD
ENDBRANCH   1   2
BRANCH   1   4
ATOM      4  C   LIG A   1      -1.677  -0.865  -0.136  0.00  0.00    +0.067 C 
BRANCH   4   5
ATOM      5  C   LIG A   1      -1.462  -1.928   0.954  0.00  0.00    +0.140 C 
BRANCH   5   6
ATOM      6  O   LIG A   1      -2.164  -3.117   0.596  0.00  0.00    -0.388 OA
ATOM      7  H   LIG A   1      -2.148  -3.687   1.387  0.00  0.00    +0.210 HD
ENDBRANCH   5   6
BRANCH   5   8
ATOM      8  C   LIG A   1      -0.026  -2.309   1.162  0.00  0.00    +0.004 C 
ATOM      9  C   LIG A   1       0.645  -2.147   2.314  0.00  0.00    +0.006 C 
BRANCH   9  10
ATOM     10  C   LIG A   1       2.049  -2.545   2.448  0.00  0.00    -0.025 A 
ATOM     11  C   LIG A   1       2.383  -3.833   2.881  0.00  0.00    +0.008 A 
ATOM     12  C   LIG A   1       3.723  -4.207   3.011  0.00  0.00    +0.001 A 
ATOM     13  C   LIG A   1       4.736  -3.300   2.702  0.00  0.00    +0.000 A 
ATOM     14  C   LIG A   1       4.410  -2.017   2.264  0.00  0.00    +0.001 A 
ATOM     15  C   LIG A   1       3.070  -1.640   2.137  0.00  0.00    +0.008 A 
ENDBRANCH   9  10
ENDBRANCH   5   8
ENDBRANCH   4   5
ENDBRANCH   1   4
BRANCH   1  16
ATOM     16  C   LIG A   1      -1.471  -0.152  -2.596  0.00  0.00    +0.058 C 
BRANCH  16  17
ATOM     17  C   LIG A   1      -0.677   1.103  -2.344  0.00  0.00    -0.025 C 
ATOM     18  C   LIG A   1      -1.141   2.154  -1.645  0.00  0.00    +0.013 C 
BRANCH  18  19
ATOM     19  C   LIG A   1      -0.321   3.369  -1.281  0.00  0.00    +0.203 C 
ATOM     20  O   LIG A   1      -0.797   3.877  -0.008  0.00  0.00    -0.454 OA
ATOM     21  C   LIG A   1      -1.869   4.700   0.043  0.00  0.00    +0.332 C 
ATOM     22  C   LIG A   1      -2.297   5.334  -1.218  0.00  0.00    +0.087 C 
ATOM     23  C   LIG A   1      -1.554   5.257  -2.331  0.00  0.00    -0.016 C 
ATOM     24  C   LIG A   1      -0.290   4.465  -2.347  0.00  0.00    +0.076 C 
ATOM     25  O   LIG A   1      -2.463   4.945   1.094  0.00  0.00    -0.246 OA
ENDBRANCH  18  19
ENDBRANCH  16  17
ENDBRANCH   1  16
TORSDOF 9
