REMARK  Name = NuBBE_1474
REMARK  8 active torsions:
REMARK  status: ('A' for Active; 'I' for Inactive)
REMARK    1  A    between atoms: O_1  and  C_2
REMARK    2  A    between atoms: C_3  and  O_4
REMARK    3  A    between atoms: O_4  and  C_5
REMARK    4  A    between atoms: C_6  and  O_7
REMARK    5  A    between atoms: O_7  and  C_8
REMARK    6  A    between atoms: C_9  and  O_22
REMARK    7  A    between atoms: C_17  and  O_18
REMARK    8  A    between atoms: O_22  and  C_23
REMARK                            x       y       z     vdW  Elec       q    Type
REMARK                         _______ _______ _______ _____ _____    ______ ____
ROOT
ATOM      1  C   LIG A   1      -1.844   1.152  -0.015  0.00  0.00    +0.175 A 
ATOM      2  C   LIG A   1      -1.024   2.297   0.067  0.00  0.00    +0.208 A 
ATOM      3  C   LIG A   1       0.378   2.147   0.146  0.00  0.00    +0.209 A 
ATOM      4  C   LIG A   1       0.943   0.856   0.093  0.00  0.00    +0.190 A 
ATOM      5  C   LIG A   1       0.111  -0.282   0.042  0.00  0.00    +0.100 A 
ATOM      6  C   LIG A   1      -1.281  -0.130  -0.049  0.00  0.00    +0.094 A 
ATOM      7  C   LIG A   1      -2.127  -1.351  -0.176  0.00  0.00    +0.201 A 
ATOM      8  C   LIG A   1      -1.479  -2.689  -0.159  0.00  0.00    +0.049 A 
ATOM      9  C   LIG A   1      -2.241  -3.861  -0.249  0.00  0.00    +0.014 A 
ATOM     10  C   LIG A   1      -1.605  -5.104  -0.211  0.00  0.00    +0.004 A 
ATOM     11  C   LIG A   1      -0.215  -5.178  -0.090  0.00  0.00    +0.047 A 
ATOM     12  C   LIG A   1       0.533  -4.004  -0.013  0.00  0.00    +0.141 A 
ATOM     13  C   LIG A   1      -0.087  -2.750  -0.035  0.00  0.00    +0.093 A 
ATOM     14  N   LIG A   1       0.669  -1.571  -0.016  0.00  0.00    -0.348 N 
ATOM     15  O   LIG A   1      -3.341  -1.246  -0.289  0.00  0.00    -0.286 OA
ATOM     16  H   LIG A   1       1.645  -1.665   0.251  0.00  0.00    +0.166 HD
ENDROOT
BRANCH   1  17
ATOM     17  O   LIG A   1      -3.208   1.331  -0.076  0.00  0.00    -0.503 OA
ATOM     18  H   LIG A   1      -3.635   0.449  -0.164  0.00  0.00    +0.292 HD
ENDBRANCH   1  17
BRANCH   2  19
ATOM     19  O   LIG A   1      -1.715   3.483   0.129  0.00  0.00    -0.488 OA
ATOM     20  C   LIG A   1      -1.111   4.637  -0.433  0.00  0.00    +0.277 C 
ENDBRANCH   2  19
BRANCH   3  21
ATOM     21  O   LIG A   1       1.174   3.264   0.195  0.00  0.00    -0.488 OA
ATOM     22  C   LIG A   1       1.855   3.430   1.439  0.00  0.00    +0.277 C 
ENDBRANCH   3  21
BRANCH  12  23
ATOM     23  O   LIG A   1       1.898  -4.047   0.093  0.00  0.00    -0.505 OA
ATOM     24  H   LIG A   1       2.187  -4.970   0.006  0.00  0.00    +0.292 HD
ENDBRANCH  12  23
BRANCH   4  25
ATOM     25  O   LIG A   1       2.292   0.581   0.177  0.00  0.00    -0.489 OA
ATOM     26  C   LIG A   1       3.127   1.320  -0.711  0.00  0.00    +0.277 C 
ENDBRANCH   4  25
TORSDOF 5
