@<TRIPOS>MOLECULE
NuBBE_2523
 42 44 0 0 0
SMALL
GASTEIGER

@<TRIPOS>ATOM
      1 O          -1.9583    1.7432   -0.1280 O.3     1  UNL1       -0.4884
      2 C          -2.6763    0.6632    0.4468 C.3     1  UNL1        0.0791
      3 C          -0.5793    1.7185   -0.1048 C.ar    1  UNL1        0.2088
      4 C           0.1992    0.5553   -0.1100 C.ar    1  UNL1        0.1881
      5 C           1.5922    0.6677   -0.1647 C.ar    1  UNL1        0.1128
      6 C           2.2032    1.9397   -0.2386 C.ar    1  UNL1        0.1770
      7 C           1.4274    3.1183   -0.2842 C.ar    1  UNL1        0.2080
      8 C           0.0258    3.0108   -0.1988 C.ar    1  UNL1        0.2110
      9 O          -0.9159    4.0084   -0.2666 O.3     1  UNL1       -0.4883
     10 C          -0.5934    5.3770   -0.1549 C.3     1  UNL1        0.0791
     11 O           2.0442    4.2611   -0.7409 O.3     1  UNL1       -0.4884
     12 C           2.4110    5.2231    0.2466 C.3     1  UNL1        0.0791
     13 O           3.5740    2.0571   -0.3289 O.3     1  UNL1       -0.5027
     14 C           2.3813   -0.5772   -0.2146 C.ar    1  UNL1        0.1969
     15 O           3.6084   -0.5463   -0.2403 O.2     1  UNL1       -0.2869
     16 C           1.6521   -1.8572   -0.2359 C.ar    1  UNL1        0.0288
     17 C           0.3194   -1.8252   -0.2013 C.ar    1  UNL1        0.1395
     18 O          -0.4283   -0.6717   -0.1257 O.2     1  UNL1       -0.4507
     19 C          -0.4634   -3.0720   -0.2236 C.ar    1  UNL1        0.0211
     20 C          -0.7649   -3.7359    0.9763 C.ar    1  UNL1       -0.0059
     21 C          -1.4143   -4.9696    0.9430 C.ar    1  UNL1        0.1589
     22 O          -1.7020   -5.6751    2.0724 O.3     1  UNL1       -0.5033
     23 C          -1.7849   -5.5346   -0.2830 C.ar    1  UNL1        0.1583
     24 C          -1.5295   -4.8745   -1.4735 C.ar    1  UNL1       -0.0159
     25 C          -0.8647   -3.6405   -1.4449 C.ar    1  UNL1       -0.0474
     26 O          -2.3952   -6.7597   -0.3105 O.3     1  UNL1       -0.5033
     27 H          -3.7143    0.9904    0.5723 H       1  UNL1        0.0660
     28 H          -2.2868    0.4020    1.4349 H       1  UNL1        0.0660
     29 H          -2.6984   -0.1967   -0.2285 H       1  UNL1        0.0660
     30 H          -1.5330    5.9366   -0.1981 H       1  UNL1        0.0660
     31 H           0.0084    5.7143   -1.0000 H       1  UNL1        0.0660
     32 H          -0.1418    5.6062    0.8140 H       1  UNL1        0.0660
     33 H           3.4990    5.3403    0.2707 H       1  UNL1        0.0660
     34 H           2.0373    4.9988    1.2508 H       1  UNL1        0.0660
     35 H           2.0097    6.1888   -0.0736 H       1  UNL1        0.0660
     36 H           3.9742    1.1552   -0.3456 H       1  UNL1        0.2923
     37 H           2.2349   -2.7694   -0.2925 H       1  UNL1        0.0693
     38 H          -0.4748   -3.2964    1.9252 H       1  UNL1        0.0662
     39 H          -1.3764   -5.1720    2.8381 H       1  UNL1        0.2923
     40 H          -1.8263   -5.3236   -2.4166 H       1  UNL1        0.0655
     41 H          -0.6544   -3.1375   -2.3861 H       1  UNL1        0.0626
     42 H          -2.4250   -7.0411    0.6236 H       1  UNL1        0.2923
@<TRIPOS>BOND
     1     1     2    1
     2     1     3    1
     3     3     4   ar
     4     4     5   ar
     5     5     6   ar
     6     6     7   ar
     7     7     8   ar
     8     3     8   ar
     9     8     9    1
    10     9    10    1
    11     7    11    1
    12    11    12    1
    13     6    13    1
    14     5    14   ar
    15    14    15    2
    16    14    16   ar
    17    16    17   ar
    18    17    18   ar
    19     4    18   ar
    20    17    19    1
    21    19    20   ar
    22    20    21   ar
    23    21    22    1
    24    21    23   ar
    25    23    24   ar
    26    24    25   ar
    27    19    25   ar
    28    23    26    1
    29     2    27    1
    30     2    28    1
    31     2    29    1
    32    10    30    1
    33    10    31    1
    34    10    32    1
    35    12    33    1
    36    12    34    1
    37    12    35    1
    38    13    36    1
    39    16    37    1
    40    20    38    1
    41    22    39    1
    42    24    40    1
    43    25    41    1
    44    26    42    1
