@<TRIPOS>MOLECULE
NuBBE_1297
 20 20 0 0 0
SMALL
GASTEIGER

@<TRIPOS>ATOM
      1 O           0.5610   -0.7503   -2.8860 O.3     1  LIG1       -0.4795
      2 C          -0.0993   -1.0384   -1.7436 C.2     1  LIG1        0.3221
      3 C           0.5889   -0.4800   -0.5032 C.3     1  LIG1        0.1080
      4 N           0.3126    0.9641   -0.2512 N.3     1  LIG1       -0.2930
      5 C           0.7024    1.1388    1.1572 C.3     1  LIG1       -0.0006
      6 C           0.2654   -0.1315    1.8725 C.3     1  LIG1       -0.0383
      7 C           0.2151   -1.2031    0.7897 C.3     1  LIG1       -0.0258
      8 C          -1.0951    1.3274   -0.4460 C.3     1  LIG1       -0.0120
      9 O          -1.1482   -1.6632   -1.7864 O.2     1  LIG1       -0.2492
     10 H          -0.0122   -1.1144   -3.5910 H       1  LIG1        0.2951
     11 H           1.6705   -0.6011   -0.6559 H       1  LIG1        0.0578
     12 H           0.2881    2.0428    1.6172 H       1  LIG1        0.0427
     13 H           1.7946    1.2317    1.2080 H       1  LIG1        0.0427
     14 H          -0.7292   -0.0044    2.3155 H       1  LIG1        0.0278
     15 H           0.9582   -0.3992    2.6766 H       1  LIG1        0.0278
     16 H          -0.7843   -1.6511    0.7545 H       1  LIG1        0.0286
     17 H           0.9262   -2.0085    1.0048 H       1  LIG1        0.0286
     18 H          -1.3672    1.2650   -1.5050 H       1  LIG1        0.0391
     19 H          -1.2581    2.3717   -0.1555 H       1  LIG1        0.0391
     20 H          -1.7893    0.7037    0.1277 H       1  LIG1        0.0391
@<TRIPOS>BOND
     1     1     2    1
     2     2     3    1
     3     3     4    1
     4     4     5    1
     5     5     6    1
     6     6     7    1
     7     3     7    1
     8     4     8    1
     9     2     9    2
    10     1    10    1
    11     3    11    1
    12     5    12    1
    13     5    13    1
    14     6    14    1
    15     6    15    1
    16     7    16    1
    17     7    17    1
    18     8    18    1
    19     8    19    1
    20     8    20    1
