REMARK  Name = NuBBE_1842
REMARK  6 active torsions:
REMARK  status: ('A' for Active; 'I' for Inactive)
REMARK    1  A    between atoms: C_1  and  C_2
REMARK    2  A    between atoms: C_5  and  O_6
REMARK    3  A    between atoms: C_12  and  C_13
REMARK    4  A    between atoms: C_12  and  C_14
REMARK    5  A    between atoms: C_19  and  C_22
REMARK    6  A    between atoms: C_19  and  C_24
REMARK                            x       y       z     vdW  Elec       q    Type
REMARK                         _______ _______ _______ _____ _____    ______ ____
ROOT
ATOM      1  C   LIG A   1      -0.059   1.036   1.599  0.00  0.00    +0.012 C 
ATOM      2  C   LIG A   1       0.631   0.862   0.225  0.00  0.00    -0.022 C 
ATOM      3  C   LIG A   1       0.633  -0.657  -0.226  0.00  0.00    +0.034 C 
ATOM      4  C   LIG A   1      -0.737  -1.222  -0.688  0.00  0.00    +0.128 C 
ATOM      5  C   LIG A   1      -1.720  -0.207  -1.289  0.00  0.00    +0.165 C 
ATOM      6  O   LIG A   1      -2.687  -0.604  -1.953  0.00  0.00    -0.294 OA
ATOM      7  C   LIG A   1      -1.556   1.264  -1.006  0.00  0.00    +0.082 C 
ATOM      8  C   LIG A   1      -0.078   1.667  -0.922  0.00  0.00    +0.008 C 
ATOM      9  C   LIG A   1       0.155   3.224  -0.963  0.00  0.00    -0.031 C 
ATOM     10  C   LIG A   1      -0.208   3.761  -2.374  0.00  0.00    +0.011 C 
ATOM     11  C   LIG A   1      -0.703   4.029   0.034  0.00  0.00    +0.011 C 
ATOM     12  C   LIG A   1       1.653   3.544  -0.740  0.00  0.00    +0.007 C 
ATOM     13  C   LIG A   1       2.253   2.847   0.472  0.00  0.00    +0.001 C 
ATOM     14  C   LIG A   1       2.104   1.336   0.359  0.00  0.00    +0.007 C 
ATOM     15  C   LIG A   1      -1.432  -2.048   0.408  0.00  0.00    +0.053 C 
ATOM     16  C   LIG A   1      -0.599  -3.273   0.901  0.00  0.00    -0.011 C 
ATOM     17  C   LIG A   1       0.915  -3.061   0.623  0.00  0.00    +0.011 C 
ATOM     18  C   LIG A   1       1.334  -1.601   0.789  0.00  0.00    +0.008 C 
ATOM     19  C   LIG A   1      -0.814  -3.413   2.428  0.00  0.00    +0.015 C 
ENDROOT
BRANCH   4  20
ATOM     20  O   LIG A   1      -0.474  -2.106  -1.803  0.00  0.00    -0.381 OA
ATOM     21  H   LIG A   1      -1.348  -2.385  -2.147  0.00  0.00    +0.211 HD
ENDBRANCH   4  20
BRANCH  16  22
ATOM     22  C   LIG A   1      -1.163  -4.556   0.289  0.00  0.00    -0.028 C 
ATOM     23  C   LIG A   1      -0.504  -5.527  -0.357  0.00  0.00    +0.004 C 
ENDBRANCH  16  22
TORSDOF 2
