REMARK  Name = NuBBE_943
REMARK  6 active torsions:
REMARK  status: ('A' for Active; 'I' for Inactive)
REMARK    1  A    between atoms: N_7  and  C_8
REMARK    2  A    between atoms: C_9  and  O_10
REMARK    3  A    between atoms: O_10  and  C_11
REMARK    4  A    between atoms: C_12  and  O_15
REMARK    5  A    between atoms: C_17  and  C_20
REMARK    6  A    between atoms: C_17  and  C_21
REMARK                            x       y       z     vdW  Elec       q    Type
REMARK                         _______ _______ _______ _____ _____    ______ ____
ROOT
ATOM      1  O   LIG A   1       1.652   1.399  -2.677  0.00  0.00    -0.267 OA
ATOM      2  C   LIG A   1       1.019   0.784  -1.815  0.00  0.00    +0.262 A 
ATOM      3  C   LIG A   1       1.425   0.917  -0.384  0.00  0.00    +0.082 A 
ATOM      4  C   LIG A   1       0.769   0.250   0.577  0.00  0.00    +0.143 A 
ATOM      5  C   LIG A   1      -0.371  -0.618   0.245  0.00  0.00    +0.045 A 
ATOM      6  C   LIG A   1      -0.812  -0.725  -1.093  0.00  0.00    +0.101 A 
ATOM      7  N   LIG A   1      -0.065  -0.040  -2.112  0.00  0.00    -0.307 N 
ATOM      8  C   LIG A   1      -0.367  -0.244  -3.520  0.00  0.00    +0.152 C 
ATOM      9  C   LIG A   1      -1.958  -1.514  -1.342  0.00  0.00    +0.185 A 
ATOM     10  C   LIG A   1      -2.548  -2.267  -0.316  0.00  0.00    +0.161 A 
ATOM     11  C   LIG A   1      -2.096  -2.181   0.985  0.00  0.00    +0.050 A 
ATOM     12  C   LIG A   1      -1.022  -1.343   1.266  0.00  0.00    +0.017 A 
ATOM     13  O   LIG A   1       1.086   0.321   1.920  0.00  0.00    -0.481 OA
ATOM     14  C   LIG A   1       2.143   1.199   2.364  0.00  0.00    +0.123 C 
ATOM     15  C   LIG A   1       2.895   1.893   1.254  0.00  0.00    +0.020 C 
ATOM     16  C   LIG A   1       2.549   1.754  -0.030  0.00  0.00    +0.016 C 
ATOM     17  C   LIG A   1       1.492   2.247   3.273  0.00  0.00    +0.060 C 
ATOM     18  C   LIG A   1       3.111   0.333   3.178  0.00  0.00    +0.060 C 
ENDROOT
BRANCH   9  19
ATOM     19  O   LIG A   1      -2.550  -1.606  -2.582  0.00  0.00    -0.489 OA
ATOM     20  C   LIG A   1      -3.633  -0.669  -2.669  0.00  0.00    +0.277 C 
ENDBRANCH   9  19
BRANCH  10  21
ATOM     21  O   LIG A   1      -3.587  -3.117  -0.578  0.00  0.00    -0.503 OA
ATOM     22  H   LIG A   1      -3.633  -3.192  -1.550  0.00  0.00    +0.292 HD
ENDBRANCH  10  21
TORSDOF 2
