REMARK  Name = NuBBE_1211
REMARK  12 active torsions:
REMARK  status: ('A' for Active; 'I' for Inactive)
REMARK    1  A    between atoms: O_1  and  C_2
REMARK    2  A    between atoms: C_7  and  C_8
REMARK    3  A    between atoms: C_16  and  C_17
REMARK    4  A    between atoms: C_21  and  C_22
REMARK    5  A    between atoms: C_22  and  C_23
REMARK    6  A    between atoms: C_22  and  C_31
REMARK    7  A    between atoms: C_23  and  O_24
REMARK    8  A    between atoms: C_23  and  C_25
REMARK    9  A    between atoms: C_25  and  C_26
REMARK   10  A    between atoms: C_26  and  C_27
REMARK   11  A    between atoms: C_27  and  C_28
REMARK   12  A    between atoms: C_27  and  C_29
REMARK                            x       y       z     vdW  Elec       q    Type
REMARK                         _______ _______ _______ _____ _____    ______ ____
ROOT
ATOM      1  C   LIG A   1      -1.466  -0.812  -7.196  0.00  0.00    +0.119 C 
ATOM      2  C   LIG A   1       0.004  -0.722  -6.767  0.00  0.00    +0.062 C 
ATOM      3  C   LIG A   1      -2.328  -1.571  -6.190  0.00  0.00    +0.032 C 
ATOM      4  C   LIG A   1      -2.143  -1.041  -4.772  0.00  0.00    +0.013 C 
ATOM      5  C   LIG A   1      -0.659  -1.045  -4.299  0.00  0.00    -0.008 C 
ATOM      6  C   LIG A   1      -0.145  -2.510  -4.235  0.00  0.00    +0.016 C 
ATOM      7  C   LIG A   1       0.167  -0.278  -5.331  0.00  0.00    -0.065 C 
ATOM      8  C   LIG A   1       0.987   0.745  -5.001  0.00  0.00    -0.027 C 
ATOM      9  C   LIG A   1       1.231   1.217  -3.596  0.00  0.00    +0.031 C 
ATOM     10  C   LIG A   1       0.821   0.173  -2.547  0.00  0.00    +0.000 C 
ATOM     11  C   LIG A   1      -0.597  -0.358  -2.880  0.00  0.00    +0.003 C 
ATOM     12  C   LIG A   1      -1.128  -1.291  -1.792  0.00  0.00    +0.005 C 
ATOM     13  C   LIG A   1      -1.012  -0.689  -0.414  0.00  0.00    +0.007 C 
ATOM     14  C   LIG A   1       0.437  -0.306  -0.026  0.00  0.00    -0.026 C 
ATOM     15  C   LIG A   1       1.380  -1.528   0.052  0.00  0.00    +0.012 C 
ATOM     16  C   LIG A   1       1.008   0.674  -1.087  0.00  0.00    -0.001 C 
ATOM     17  C   LIG A   1       0.362   2.006  -0.707  0.00  0.00    +0.004 C 
ATOM     18  C   LIG A   1       0.276   1.992   0.828  0.00  0.00    +0.005 C 
ATOM     19  C   LIG A   1       0.466   0.529   1.304  0.00  0.00    +0.001 C 
ENDROOT
BRANCH   1  20
ATOM     20  O   LIG A   1      -1.569  -1.484  -8.450  0.00  0.00    -0.392 OA
ATOM     21  H   LIG A   1      -0.979  -1.031  -9.076  0.00  0.00    +0.210 HD
ENDBRANCH   1  20
BRANCH  19  22
ATOM     22  C   LIG A   1      -0.542   0.102   2.432  0.00  0.00    +0.018 C 
ATOM     23  C   LIG A   1      -0.443  -1.405   2.755  0.00  0.00    +0.010 C 
BRANCH  22  24
ATOM     24  C   LIG A   1      -0.475   0.955   3.753  0.00  0.00    +0.122 C 
BRANCH  24  25
ATOM     25  O   LIG A   1      -1.590   0.577   4.575  0.00  0.00    -0.391 OA
ATOM     26  H   LIG A   1      -1.408  -0.297   4.956  0.00  0.00    +0.210 HD
ENDBRANCH  24  25
BRANCH  24  27
ATOM     27  C   LIG A   1       0.858   0.835   4.542  0.00  0.00    +0.062 C 
BRANCH  27  28
ATOM     28  C   LIG A   1       0.980   1.571   5.882  0.00  0.00    -0.072 C 
ATOM     29  C   LIG A   1       1.609   2.776   5.923  0.00  0.00    +0.008 C 
BRANCH  28  30
ATOM     30  C   LIG A   1       0.511   0.857   7.156  0.00  0.00    +0.008 C 
ATOM     31  C   LIG A   1       1.658   0.108   7.855  0.00  0.00    +0.012 C 
ATOM     32  C   LIG A   1      -0.182   1.753   8.196  0.00  0.00    +0.012 C 
ENDBRANCH  28  30
ENDBRANCH  27  28
ENDBRANCH  24  27
ENDBRANCH  22  24
ENDBRANCH  19  22
TORSDOF 7
