@<TRIPOS>MOLECULE
NuBBE_441
 31 33 0 0 0
SMALL
GASTEIGER

@<TRIPOS>ATOM
      1 H          -1.7912   -0.1665    0.5405 H       1  LIG1        0.0358
      2 C          -0.8488   -0.4194    0.0335 C.3     1  LIG1        0.0053
      3 C          -1.1615   -1.5276   -0.9557 C.2     1  LIG1       -0.0806
      4 C          -0.4531   -2.6584   -0.7193 C.2     1  LIG1       -0.0538
      5 C           0.6627   -2.3818    0.2244 C.3     1  LIG1        0.1154
      6 O           1.7366   -1.9681   -0.6353 O.3     1  LIG1       -0.3818
      7 C           0.0003   -1.2403    0.9463 C.3     1  LIG1        0.0519
      8 H          -0.6914   -1.6170    1.7272 H       1  LIG1        0.0388
      9 C           1.1922   -0.6407    1.5939 C.3     1  LIG1        0.1686
     10 H           2.0501   -0.3897    0.9579 H       1  LIG1        0.0915
     11 O           1.5935   -1.7895    2.3815 O.3     1  LIG1       -0.3476
     12 C           1.2646   -2.9786    1.5138 C.3     1  LIG1        0.0834
     13 O           0.7261    0.5642    2.1651 O.3     1  LIG1       -0.3218
     14 C           0.4394    1.5035    1.0896 C.3     1  LIG1        0.1726
     15 H           1.3805    2.0222    0.8700 H       1  LIG1        0.0917
     16 O          -0.4396    2.4808    1.6250 O.3     1  LIG1       -0.3661
     17 C          -0.0936    0.8777   -0.2550 C.3     1  LIG1        0.1137
     18 C          -0.9483    1.8560   -1.0188 C.2     1  LIG1        0.3154
     19 O          -0.2010    2.9160   -1.4311 O.3     1  LIG1       -0.4676
     20 C          -0.9088    3.8411   -2.2575 C.3     1  LIG1        0.0817
     21 O          -2.1365    1.6901   -1.2836 O.2     1  LIG1       -0.2503
     22 H           0.7611    0.6291   -0.8987 H       1  LIG1        0.0470
     23 H          -1.9486   -1.4413   -1.6952 H       1  LIG1        0.0573
     24 H          -0.5540   -3.5688   -1.2933 H       1  LIG1        0.0598
     25 H           2.1149   -2.7753   -1.0268 H       1  LIG1        0.2107
     26 H           0.5602   -3.6028    2.0733 H       1  LIG1        0.0593
     27 H           2.1991   -3.5208    1.3442 H       1  LIG1        0.0593
     28 H          -1.2839    2.0396    1.8098 H       1  LIG1        0.2125
     29 H          -1.7990    4.2269   -1.7495 H       1  LIG1        0.0661
     30 H          -1.1799    3.3597   -3.2019 H       1  LIG1        0.0661
     31 H          -0.2421    4.6796   -2.4742 H       1  LIG1        0.0661
@<TRIPOS>BOND
     1     1     2    1
     2     2     3    1
     3     3     4    2
     4     4     5    1
     5     5     6    1
     6     2     7    1
     7     5     7    1
     8     7     8    1
     9     7     9    1
    10     9    10    1
    11     9    11    1
    12    11    12    1
    13     5    12    1
    14     9    13    1
    15    13    14    1
    16    14    17    1
    17    17    18    1
    18    18    19    1
    19    19    20    1
    20    18    21    2
    21     2    17    1
    22    17    22    1
    23    14    16    1
    24    14    15    1
    25     3    23    1
    26     4    24    1
    27     6    25    1
    28    12    26    1
    29    12    27    1
    30    16    28    1
    31    20    29    1
    32    20    30    1
    33    20    31    1
