REMARK  Name = NuBBE_2443
REMARK  8 active torsions:
REMARK  status: ('A' for Active; 'I' for Inactive)
REMARK    1  A    between atoms: C_1  and  O_2
REMARK    2  A    between atoms: O_2  and  C_3
REMARK    3  A    between atoms: C_6  and  C_9
REMARK    4  A    between atoms: C_16  and  C_17
REMARK    5  A    between atoms: C_18  and  O_23
REMARK    6  A    between atoms: C_19  and  C_22
REMARK    7  A    between atoms: C_20  and  O_21
REMARK    8  A    between atoms: O_23  and  C_24
REMARK                            x       y       z     vdW  Elec       q    Type
REMARK                         _______ _______ _______ _____ _____    ______ ____
ROOT
ATOM      1  C   LIG A   1      -0.448  -0.960  -0.808  0.00  0.00    +0.139 A 
ATOM      2  C   LIG A   1      -0.125  -2.234  -0.555  0.00  0.00    +0.098 A 
ATOM      3  C   LIG A   1       0.794  -2.503   0.554  0.00  0.00    +0.197 A 
ATOM      4  O   LIG A   1       1.111  -3.657   0.853  0.00  0.00    -0.287 OA
ATOM      5  C   LIG A   1       1.313  -1.350   1.305  0.00  0.00    +0.106 A 
ATOM      6  C   LIG A   1       0.872  -0.072   0.954  0.00  0.00    +0.149 A 
ATOM      7  O   LIG A   1       0.006   0.128  -0.098  0.00  0.00    -0.454 OA
ATOM      8  C   LIG A   1       1.276   1.065   1.685  0.00  0.00    +0.035 A 
ATOM      9  C   LIG A   1       0.681   2.405   1.339  0.00  0.00    +0.051 C 
ATOM     10  C   LIG A   1       2.194   0.890   2.744  0.00  0.00    +0.133 A 
ATOM     11  C   LIG A   1       2.681  -0.399   3.074  0.00  0.00    +0.034 A 
ATOM     12  C   LIG A   1       2.211  -1.513   2.364  0.00  0.00    +0.138 A 
ATOM     13  C   LIG A   1       3.655  -0.577   4.212  0.00  0.00    +0.051 C 
ENDROOT
BRANCH   1  17
ATOM     14  C   LIG A   1      -3.179   0.015  -3.943  0.00  0.00    +0.120 A 
ATOM     15  C   LIG A   1      -3.647  -0.233  -2.652  0.00  0.00    +0.046 A 
ATOM     16  C   LIG A   1      -2.748  -0.551  -1.630  0.00  0.00    +0.015 A 
ATOM     17  C   LIG A   1      -1.375  -0.619  -1.888  0.00  0.00    +0.018 A 
ATOM     18  C   LIG A   1      -0.905  -0.345  -3.177  0.00  0.00    +0.015 A 
ATOM     19  C   LIG A   1      -1.806  -0.022  -4.196  0.00  0.00    +0.046 A 
BRANCH  14  21
ATOM     20  C   LIG A   1      -5.283  -0.200  -4.988  0.00  0.00    +0.277 C 
ATOM     21  O   LIG A   1      -3.967   0.346  -5.011  0.00  0.00    -0.495 OA
ENDBRANCH  14  21
ENDBRANCH   1  17
BRANCH  12  22
ATOM     22  O   LIG A   1       2.647  -2.757   2.750  0.00  0.00    -0.505 OA
ATOM     23  H   LIG A   1       2.207  -3.435   2.191  0.00  0.00    +0.292 HD
ENDBRANCH  12  22
BRANCH  10  24
ATOM     24  O   LIG A   1       2.572   1.887   3.614  0.00  0.00    -0.494 OA
ATOM     25  C   LIG A   1       3.025   3.109   3.045  0.00  0.00    +0.277 C 
ENDBRANCH  10  24
TORSDOF 4
