@<TRIPOS>MOLECULE
NuBBE_1978
 16 16 0 0 0
SMALL
GASTEIGER

@<TRIPOS>ATOM
      1 C          -1.5613   -0.3192   -0.6660 C.2     1  LIG1       -0.0738
      2 C          -2.5182   -0.1402   -1.5886 C.2     1  LIG1       -0.1013
      3 C          -0.0885   -0.1168   -0.9057 C.3     1  LIG1        0.0514
      4 C           0.4657    0.9837   -0.0251 C.2     1  LIG1       -0.0698
      5 C           1.2845    0.8958    1.0429 C.2     1  LIG1       -0.0760
      6 C           1.8556   -0.3357    1.6965 C.3     1  LIG1        0.0221
      7 S           0.9105   -1.8363    1.3364 S.3     1  LIG1       -0.0882
      8 S           0.8076   -1.6942   -0.7109 S.3     1  LIG1       -0.0812
      9 H          -1.8594   -0.6280    0.3347 H       1  LIG1        0.0581
     10 H          -2.2866    0.1654   -2.6041 H       1  LIG1        0.0532
     11 H          -3.5624   -0.3065   -1.3410 H       1  LIG1        0.0532
     12 H           0.0777    0.1858   -1.9468 H       1  LIG1        0.0507
     13 H           0.1536    1.9830   -0.3287 H       1  LIG1        0.0583
     14 H           1.5827    1.8287    1.5201 H       1  LIG1        0.0578
     15 H           1.8364   -0.1975    2.7826 H       1  LIG1        0.0427
     16 H           2.9022   -0.4679    1.4037 H       1  LIG1        0.0427
@<TRIPOS>BOND
     1     1     2    2
     2     1     3    1
     3     3     4    1
     4     4     5    2
     5     5     6    1
     6     6     7    1
     7     7     8    1
     8     3     8    1
     9     1     9    1
    10     2    10    1
    11     2    11    1
    12     3    12    1
    13     4    13    1
    14     5    14    1
    15     6    15    1
    16     6    16    1
