@<TRIPOS>MOLECULE
NuBBE_13
 49 53 0 0 0
SMALL
GASTEIGER

@<TRIPOS>ATOM
      1 H          -5.2497    1.5367    0.1464 H       1  LIG1        0.0655
      2 C          -4.2349    1.8270    0.4101 C.ar    1  LIG1       -0.0160
      3 C          -3.9307    3.1836    0.5781 C.ar    1  LIG1        0.1615
      4 C          -2.6273    3.5618    0.9431 C.ar    1  LIG1        0.1618
      5 O          -2.3694    4.8962    1.1115 O.3     1  LIG1       -0.4914
      6 C          -1.0598    5.2952    1.4954 C.3     1  LIG1        0.0790
      7 C          -1.6615    2.5563    1.1315 C.ar    1  LIG1       -0.0107
      8 C          -1.9593    1.1927    0.9451 C.ar    1  LIG1       -0.0149
      9 C          -0.8706    0.1522    1.1381 C.3     1  LIG1        0.0891
     10 H          -0.2122    0.4893    1.9485 H       1  LIG1        0.0650
     11 C          -0.0897   -0.1304   -0.1507 C.3     1  LIG1        0.0205
     12 H          -0.6264    0.2175   -1.0404 H       1  LIG1        0.0356
     13 C           1.3201    0.4040   -0.1114 C.3     1  LIG1        0.0544
     14 O           2.0796   -0.5298    0.6618 O.3     1  LIG1       -0.3712
     15 C           1.4419   -1.8218    0.5867 C.3     1  LIG1        0.0891
     16 H           1.3072   -2.1558    1.6240 H       1  LIG1        0.0650
     17 C           0.1043   -1.6264   -0.1387 C.3     1  LIG1        0.0205
     18 H           0.1227   -2.0608   -1.1446 H       1  LIG1        0.0356
     19 C          -1.0905   -2.1206    0.6421 C.3     1  LIG1        0.0544
     20 O          -1.4279   -1.0992    1.5842 O.3     1  LIG1       -0.3712
     21 C           2.3513   -2.8161   -0.1211 C.ar    1  LIG1       -0.0149
     22 C           3.2473   -2.3883   -1.1205 C.ar    1  LIG1       -0.0105
     23 C           4.0568   -3.3181   -1.7325 C.ar    1  LIG1        0.1666
     24 C           4.0124   -4.6432   -1.3964 C.ar    1  LIG1        0.1662
     25 C           3.1430   -5.1157   -0.4292 C.ar    1  LIG1       -0.0158
     26 C           2.3023   -4.1884    0.2110 C.ar    1  LIG1       -0.0524
     27 O           4.8934   -5.3931   -2.1093 O.3     1  LIG1       -0.4526
     28 C           5.5036   -4.3748   -2.9334 C.3     1  LIG1        0.2332
     29 O           4.9738   -3.0563   -2.7036 O.3     1  LIG1       -0.4526
     30 C          -3.2595    0.8428    0.5718 C.ar    1  LIG1       -0.0524
     31 O          -5.0233    3.9949    0.4058 O.3     1  LIG1       -0.4915
     32 C          -4.7908    5.3120   -0.0729 C.3     1  LIG1        0.0790
     33 H          -0.9756    6.3725    1.3217 H       1  LIG1        0.0660
     34 H          -0.2804    4.8188    0.8922 H       1  LIG1        0.0660
     35 H          -0.9042    5.1092    2.5628 H       1  LIG1        0.0660
     36 H          -0.6536    2.8069    1.4469 H       1  LIG1        0.0659
     37 H           1.4049    1.3985    0.3353 H       1  LIG1        0.0564
     38 H           1.7541    0.4435   -1.1164 H       1  LIG1        0.0564
     39 H          -0.9130   -3.0610    1.1715 H       1  LIG1        0.0564
     40 H          -1.9562   -2.2560   -0.0153 H       1  LIG1        0.0564
     41 H           3.3220   -1.3435   -1.4102 H       1  LIG1        0.0659
     42 H           3.1190   -6.1661   -0.1704 H       1  LIG1        0.0655
     43 H           1.6204   -4.5463    0.9729 H       1  LIG1        0.0622
     44 H           5.3407   -4.6374   -3.9859 H       1  LIG1        0.1166
     45 H           6.5833   -4.3587   -2.7402 H       1  LIG1        0.1166
     46 H          -3.5341   -0.1989    0.4251 H       1  LIG1        0.0622
     47 H          -5.7328    5.6760   -0.4969 H       1  LIG1        0.0660
     48 H          -4.0430    5.3346   -0.8723 H       1  LIG1        0.0660
     49 H          -4.5276    5.9844    0.7486 H       1  LIG1        0.0660
@<TRIPOS>BOND
     1     1     2    1
     2     2     3   ar
     3     3     4   ar
     4     4     5    1
     5     5     6    1
     6     4     7   ar
     7     7     8   ar
     8     8     9    1
     9     9    10    1
    10     9    11    1
    11    11    12    1
    12    11    13    1
    13    13    14    1
    14    14    15    1
    15    15    17    1
    16    17    18    1
    17    11    17    1
    18    17    19    1
    19    19    20    1
    20     9    20    1
    21    21    22   ar
    22    22    23   ar
    23    23    24   ar
    24    24    25   ar
    25    25    26   ar
    26    21    26   ar
    27    24    27    1
    28    27    28    1
    29    28    29    1
    30    23    29    1
    31     8    30   ar
    32     2    30   ar
    33     3    31    1
    34    31    32    1
    35    15    21    1
    36    15    16    1
    37     6    33    1
    38     6    34    1
    39     6    35    1
    40     7    36    1
    41    13    37    1
    42    13    38    1
    43    19    39    1
    44    19    40    1
    45    22    41    1
    46    25    42    1
    47    26    43    1
    48    28    44    1
    49    28    45    1
    50    30    46    1
    51    32    47    1
    52    32    48    1
    53    32    49    1
