@<TRIPOS>MOLECULE
NuBBE_2291
 42 44 0 0 0
SMALL
GASTEIGER

@<TRIPOS>ATOM
      1 C          -2.9746    0.9558    1.4375 C.3     1  LIG1       -0.0621
      2 C          -1.4529    1.1005    1.5513 C.3     1  LIG1       -0.0381
      3 H          -1.1319    0.6193    2.4815 H       1  LIG1        0.0302
      4 C          -0.6749    0.5039    0.3323 C.3     1  LIG1       -0.0057
      5 H          -1.2856    0.6869   -0.5623 H       1  LIG1        0.0334
      6 C           0.5965    1.4019    0.3006 C.3     1  LIG1        0.0720
      7 C           1.4356    1.4884   -1.0151 C.3     1  LIG1       -0.0147
      8 H           1.1640    2.4256   -1.5190 H       1  LIG1        0.0326
      9 C           2.9388    1.6312   -0.7250 C.3     1  LIG1       -0.0598
     10 C           1.1582    0.4309   -2.0890 C.3     1  LIG1       -0.0476
     11 C           1.1392   -1.0101   -1.6230 C.3     1  LIG1       -0.0491
     12 C          -0.1841   -1.3709   -0.9839 C.3     1  LIG1       -0.0319
     13 H          -1.0144   -1.1959   -1.6671 H       1  LIG1        0.0309
     14 C          -0.3025   -1.0005    0.4923 C.3     1  LIG1       -0.0266
     15 H          -0.9680   -1.2360    1.3299 H       1  LIG1        0.0313
     16 C          -0.3215   -2.5269   -0.1225 C.3     1  LIG1       -0.0283
     17 C          -1.6404   -3.2740    0.0157 C.3     1  LIG1       -0.0593
     18 C           0.8567   -3.4871   -0.2173 C.3     1  LIG1       -0.0593
     19 O           1.4317    1.0552    1.4163 O.3     1  LIG1       -0.3880
     20 C           0.0349    2.8016    0.6083 C.3     1  LIG1       -0.0232
     21 C          -1.0670    2.5863    1.6332 C.3     1  LIG1       -0.0475
     22 H          -3.2696   -0.0916    1.4290 H       1  LIG1        0.0233
     23 H          -3.3494    1.4340    0.5276 H       1  LIG1        0.0233
     24 H          -3.4610    1.4443    2.2913 H       1  LIG1        0.0233
     25 H           3.3478    0.7451   -0.2361 H       1  LIG1        0.0233
     26 H           3.1220    2.4987   -0.0803 H       1  LIG1        0.0233
     27 H           3.5007    1.7930   -1.6510 H       1  LIG1        0.0233
     28 H           1.9358    0.5208   -2.8765 H       1  LIG1        0.0269
     29 H           0.2112    0.6641   -2.5852 H       1  LIG1        0.0269
     30 H           1.9727   -1.1603   -0.9385 H       1  LIG1        0.0268
     31 H           1.2958   -1.6756   -2.4799 H       1  LIG1        0.0268
     32 H          -2.2267   -2.8943    0.8605 H       1  LIG1        0.0235
     33 H          -1.4728   -4.3398    0.2298 H       1  LIG1        0.0235
     34 H          -2.2428   -3.2100   -0.8917 H       1  LIG1        0.0235
     35 H           0.7309   -4.3708    0.4165 H       1  LIG1        0.0235
     36 H           1.8133   -3.0326    0.0438 H       1  LIG1        0.0235
     37 H           0.9231   -3.8541   -1.2546 H       1  LIG1        0.0235
     38 H           1.6476    0.1095    1.3355 H       1  LIG1        0.2102
     39 H          -0.4070    3.2556   -0.2826 H       1  LIG1        0.0293
     40 H           0.7996    3.4871    0.9994 H       1  LIG1        0.0293
     41 H          -1.9036    3.2652    1.4282 H       1  LIG1        0.0269
     42 H          -0.7056    2.8259    2.6402 H       1  LIG1        0.0269
@<TRIPOS>BOND
     1     1     2    1
     2     2     3    1
     3     2     4    1
     4     4     5    1
     5     4     6    1
     6     6     7    1
     7     7    10    1
     8    10    11    1
     9    11    12    1
    10    12    13    1
    11    12    14    1
    12    14    15    1
    13     4    14    1
    14    14    16    1
    15    16    17    1
    16    12    16    1
    17    16    18    1
    18     6    19    1
    19     6    20    1
    20    20    21    1
    21     2    21    1
    22     7     9    1
    23     7     8    1
    24     1    22    1
    25     1    23    1
    26     1    24    1
    27     9    25    1
    28     9    26    1
    29     9    27    1
    30    10    28    1
    31    10    29    1
    32    11    30    1
    33    11    31    1
    34    17    32    1
    35    17    33    1
    36    17    34    1
    37    18    35    1
    38    18    36    1
    39    18    37    1
    40    19    38    1
    41    20    39    1
    42    20    40    1
    43    21    41    1
    44    21    42    1
