@<TRIPOS>MOLECULE
NuBBE_611
 76 81 0 0 0
SMALL
GASTEIGER

@<TRIPOS>ATOM
      1 C           2.2069    2.6286    2.8948 C.3     1  LIG1       -0.0306
      2 C           1.7825    1.4111    2.1061 C.3     1  LIG1        0.1226
      3 O           2.8822    0.5163    1.9542 O.3     1  LIG1       -0.3588
      4 C           2.3655    1.0827    0.7204 C.3     1  LIG1        0.1042
      5 C           1.6994   -0.0086   -0.0829 C.3     1  LIG1        0.0274
      6 C           2.0458   -0.3840   -1.5278 C.3     1  LIG1        0.0337
      7 H           3.0450   -0.8375   -1.5540 H       1  LIG1        0.0505
      8 N           1.0839   -1.4493   -1.7077 N.am    1  LIG1       -0.3112
      9 H           1.1799   -2.2120   -2.3703 H       1  LIG1        0.1490
     10 C           1.9380    0.6395   -2.6639 C.3     1  LIG1       -0.0088
     11 C           2.4213    0.1481   -4.0204 C.ar    1  LIG1       -0.0456
     12 C           1.5298   -0.4779   -4.9071 C.ar    1  LIG1       -0.0585
     13 C           1.9609   -0.9284   -6.1585 C.ar    1  LIG1       -0.0615
     14 C           3.2860   -0.7503   -6.5467 C.ar    1  LIG1       -0.0617
     15 C           4.1765   -0.1092   -5.6878 C.ar    1  LIG1       -0.0615
     16 C           3.7491    0.3360   -4.4311 C.ar    1  LIG1       -0.0585
     17 C           0.1589   -0.2309    0.1416 C.3     1  LIG1        0.1020
     18 C           0.0749   -1.4757   -0.7642 C.2     1  LIG1        0.2242
     19 O          -0.7913   -2.3467   -0.8029 O.2     1  LIG1       -0.2750
     20 C          -0.9034    0.7442   -0.5178 C.3     1  LIG1        0.1464
     21 H          -1.0650    0.3488   -1.5327 H       1  LIG1        0.0772
     22 O          -0.3013    2.0591   -0.7646 O.3     1  LIG1       -0.4577
     23 C          -0.7304    2.6949   -1.9077 C.2     1  LIG1        0.3043
     24 C           0.3514    3.5240   -2.5312 C.3     1  LIG1        0.0332
     25 O          -1.8062    2.5158   -2.4642 O.2     1  LIG1       -0.2512
     26 C          -2.3601    0.8883    0.0053 C.3     1  LIG1        0.1262
     27 H          -2.8149    1.6063   -0.6861 H       1  LIG1        0.0661
     28 C          -3.6058    0.3237    0.8761 C.3     1  LIG1        0.1240
     29 H          -4.5532    0.7450    0.5320 H       1  LIG1        0.0657
     30 C          -3.8566   -0.2858    2.2470 C.3     1  LIG1        0.1494
     31 O          -5.2454    0.0765    2.5728 O.3     1  LIG1       -0.3786
     32 C          -3.9698   -1.8411    2.2544 C.2     1  LIG1        0.1700
     33 C          -2.8900   -2.6759    2.9597 C.3     1  LIG1        0.0211
     34 H          -2.4928   -2.1146    3.8082 H       1  LIG1        0.0379
     35 C          -1.8070   -3.0055    1.9349 C.3     1  LIG1       -0.0254
     36 C          -0.3886   -2.8488    2.4186 C.2     1  LIG1       -0.0869
     37 C           0.3941   -1.7706    2.2296 C.2     1  LIG1       -0.0812
     38 C          -0.0642   -0.4296    1.6641 C.3     1  LIG1        0.0238
     39 H          -1.1369   -0.4178    1.8137 H       1  LIG1        0.0380
     40 C           0.5097    0.7225    2.5710 C.3     1  LIG1        0.0939
     41 H           0.7239    0.3084    3.5675 H       1  LIG1        0.0629
     42 O          -0.5193    1.6947    2.7897 O.3     1  LIG1       -0.3882
     43 C          -3.4964   -3.9603    3.5311 C.3     1  LIG1       -0.0553
     44 O          -4.8925   -2.4204    1.6641 O.2     1  LIG1       -0.2940
     45 C          -3.1045    0.3300    3.4178 C.3     1  LIG1       -0.0265
     46 O          -2.9249   -0.4542   -0.0649 O.3     1  LIG1       -0.3610
     47 H           2.1415   -0.8924    0.4171 H       1  LIG1        0.0359
     48 C           3.4025    1.9668    0.0927 C.3     1  LIG1       -0.0326
     49 H           3.2779    2.8376    2.8017 H       1  LIG1        0.0259
     50 H           2.0083    2.4859    3.9635 H       1  LIG1        0.0259
     51 H           1.6639    3.5163    2.5584 H       1  LIG1        0.0259
     52 H           0.8956    0.9233   -2.8000 H       1  LIG1        0.0331
     53 H           2.4945    1.5491   -2.4243 H       1  LIG1        0.0331
     54 H           0.4837   -0.6118   -4.6367 H       1  LIG1        0.0620
     55 H           1.2598   -1.4142   -6.8334 H       1  LIG1        0.0618
     56 H           3.6212   -1.1041   -7.5190 H       1  LIG1        0.0618
     57 H           5.2060    0.0469   -6.0020 H       1  LIG1        0.0618
     58 H           4.4634    0.8436   -3.7876 H       1  LIG1        0.0620
     59 H           0.0078    4.5440   -2.7020 H       1  LIG1        0.0342
     60 H           0.6128    3.0662   -3.4930 H       1  LIG1        0.0342
     61 H           1.2448    3.5374   -1.9056 H       1  LIG1        0.0342
     62 H          -5.2720    1.0198    2.8006 H       1  LIG1        0.2108
     63 H          -1.9624   -2.3785    1.0638 H       1  LIG1        0.0314
     64 H          -1.9183   -4.0296    1.5560 H       1  LIG1        0.0314
     65 H           0.0519   -3.7354    2.8719 H       1  LIG1        0.0569
     66 H           1.4329   -1.8367    2.5535 H       1  LIG1        0.0573
     67 H          -0.2773    2.5288    2.3603 H       1  LIG1        0.2099
     68 H          -3.9062   -4.5998    2.7402 H       1  LIG1        0.0237
     69 H          -4.3137   -3.7314    4.2227 H       1  LIG1        0.0237
     70 H          -2.7398   -4.5387    4.0712 H       1  LIG1        0.0237
     71 H          -3.6171    0.1089    4.3641 H       1  LIG1        0.0262
     72 H          -3.0761    1.4222    3.3352 H       1  LIG1        0.0262
     73 H          -2.0901   -0.0370    3.5407 H       1  LIG1        0.0262
     74 H           2.9479    2.8822   -0.2937 H       1  LIG1        0.0258
     75 H           3.9384    1.4574   -0.7115 H       1  LIG1        0.0258
     76 H           4.1732    2.2638    0.8152 H       1  LIG1        0.0258
@<TRIPOS>BOND
     1     2     3    1
     2     2     4    1
     3     4     5    1
     4     5     6    1
     5     6     8    1
     6    10    11    1
     7    11    12   ar
     8    12    13   ar
     9    13    14   ar
    10    14    15   ar
    11    15    16   ar
    12    11    16   ar
    13     5    17    1
    14    17    18    1
    15     8    18   am
    16    17    20    1
    17    22    23    1
    18    23    24    1
    19    23    25    2
    20    20    26    1
    21    26    28    1
    22    28    30    1
    23    30    32    1
    24    32    33    1
    25    33    35    1
    26    35    36    1
    27    36    37    2
    28    37    38    1
    29    17    38    1
    30    38    40    1
    31     2    40    1
    32    28    46    1
    33    26    46    1
    34     3     4    1
    35     1     2    1
    36     4    48    1
    37     5    47    1
    38     6     7    1
    39     6    10    1
    40     8     9    1
    41    18    19    2
    42    26    27    1
    43    28    29    1
    44    32    44    2
    45    33    34    1
    46    33    43    1
    47    38    39    1
    48    40    41    1
    49    40    42    1
    50    20    22    1
    51    20    21    1
    52    30    45    1
    53    30    31    1
    54     1    49    1
    55     1    50    1
    56     1    51    1
    57    10    52    1
    58    10    53    1
    59    12    54    1
    60    13    55    1
    61    14    56    1
    62    15    57    1
    63    16    58    1
    64    24    59    1
    65    24    60    1
    66    24    61    1
    67    31    62    1
    68    35    63    1
    69    35    64    1
    70    36    65    1
    71    37    66    1
    72    42    67    1
    73    43    68    1
    74    43    69    1
    75    43    70    1
    76    45    71    1
    77    45    72    1
    78    45    73    1
    79    48    74    1
    80    48    75    1
    81    48    76    1
