REMARK  Name = NuBBE_945
REMARK  8 active torsions:
REMARK  status: ('A' for Active; 'I' for Inactive)
REMARK    1  A    between atoms: C_5  and  C_6
REMARK    2  A    between atoms: C_5  and  O_7
REMARK    3  A    between atoms: C_9  and  O_11
REMARK    4  A    between atoms: O_11  and  C_12
REMARK    5  A    between atoms: C_12  and  C_13
REMARK    6  A    between atoms: C_13  and  C_14
REMARK    7  A    between atoms: C_13  and  C_15
REMARK    8  A    between atoms: C_27  and  C_28
REMARK                            x       y       z     vdW  Elec       q    Type
REMARK                         _______ _______ _______ _____ _____    ______ ____
ROOT
ATOM      1  O   LIG A   1      -3.726  -2.413   0.077  0.00  0.00    -0.288 OA
ATOM      2  C   LIG A   1      -2.518  -2.496   0.245  0.00  0.00    +0.181 C 
ATOM      3  C   LIG A   1      -1.927  -2.689   1.594  0.00  0.00    +0.049 C 
ATOM      4  C   LIG A   1      -1.017  -1.881   2.170  0.00  0.00    +0.011 C 
ATOM      5  C   LIG A   1      -0.487  -0.526   1.708  0.00  0.00    +0.085 C 
ATOM      6  C   LIG A   1      -0.138   0.284   2.967  0.00  0.00    +0.046 C 
ATOM      7  C   LIG A   1       0.755  -0.687   0.787  0.00  0.00    +0.084 C 
ATOM      8  C   LIG A   1       1.033   0.297  -0.389  0.00  0.00    +0.191 C 
ATOM      9  C   LIG A   1       0.997  -0.293  -1.827  0.00  0.00    +0.111 C 
ATOM     10  C   LIG A   1       1.944  -1.408  -2.136  0.00  0.00    +0.040 C 
ATOM     11  C   LIG A   1       3.162  -1.660  -1.651  0.00  0.00    +0.020 C 
ATOM     12  C   LIG A   1      -0.318  -0.833  -2.423  0.00  0.00    +0.211 C 
ATOM     13  O   LIG A   1       0.046  -1.861  -3.350  0.00  0.00    -0.453 OA
ATOM     14  C   LIG A   1       1.329  -2.274  -3.166  0.00  0.00    +0.336 C 
ATOM     15  O   LIG A   1       1.863  -3.197  -3.737  0.00  0.00    -0.245 OA
ATOM     16  C   LIG A   1      -1.368  -1.308  -1.470  0.00  0.00    +0.024 C 
ATOM     17  C   LIG A   1      -1.531  -2.502  -0.871  0.00  0.00    -0.004 C 
ATOM     18  C   LIG A   1      -0.774  -3.775  -1.071  0.00  0.00    +0.047 C 
ENDROOT
BRANCH   5  19
ATOM     19  O   LIG A   1      -1.538   0.176   1.062  0.00  0.00    -0.385 OA
ATOM     20  H   LIG A   1      -2.337   0.111   1.617  0.00  0.00    +0.211 HD
ENDBRANCH   5  19
BRANCH   8  21
ATOM     21  O   LIG A   1       0.257   1.510  -0.386  0.00  0.00    -0.460 OA
BRANCH  21  22
ATOM     22  C   LIG A   1       0.759   2.534   0.363  0.00  0.00    +0.310 C 
ATOM     23  O   LIG A   1       1.721   2.438   1.114  0.00  0.00    -0.251 OA
BRANCH  22  24
ATOM     24  C   LIG A   1       0.001   3.820   0.091  0.00  0.00    +0.092 C 
ATOM     25  C   LIG A   1      -1.230   3.934   0.978  0.00  0.00    +0.019 C 
ATOM     26  C   LIG A   1       0.936   5.013   0.292  0.00  0.00    +0.019 C 
ENDBRANCH  22  24
ENDBRANCH  21  22
ENDBRANCH   8  21
TORSDOF 4
