REMARK  Name = NuBBE_5
REMARK  11 active torsions:
REMARK  status: ('A' for Active; 'I' for Inactive)
REMARK    1  A    between atoms: C_2  and  O_3
REMARK    2  A    between atoms: C_2  and  C_4
REMARK    3  A    between atoms: C_7  and  O_8
REMARK    4  A    between atoms: O_8  and  C_9
REMARK    5  A    between atoms: C_9  and  C_10
REMARK    6  A    between atoms: C_11  and  C_12
REMARK    7  A    between atoms: C_11  and  C_13
REMARK    8  A    between atoms: C_13  and  C_14
REMARK    9  A    between atoms: C_14  and  C_15
REMARK   10  A    between atoms: C_16  and  C_17
REMARK   11  A    between atoms: C_16  and  C_18
REMARK                            x       y       z     vdW  Elec       q    Type
REMARK                         _______ _______ _______ _____ _____    ______ ____
ROOT
ATOM      1  O   LIG A   1      -1.395  -1.384  -0.182  0.00  0.00    -0.488 OA
ENDROOT
BRANCH   1   5
ATOM      2  C   LIG A   1      -3.866  -4.706   0.398  0.00  0.00    +0.059 A 
ATOM      3  C   LIG A   1      -4.382  -3.424   0.177  0.00  0.00    +0.018 A 
ATOM      4  C   LIG A   1      -3.511  -2.348  -0.023  0.00  0.00    +0.046 A 
ATOM      5  C   LIG A   1      -2.125  -2.529  -0.007  0.00  0.00    +0.121 A 
ATOM      6  C   LIG A   1      -1.609  -3.800   0.247  0.00  0.00    +0.046 A 
ATOM      7  C   LIG A   1      -2.477  -4.884   0.449  0.00  0.00    +0.018 A 
BRANCH   2   9
ATOM      8  O   LIG A   1      -4.384  -6.853   1.288  0.00  0.00    -0.245 OA
ATOM      9  C   LIG A   1      -4.742  -5.884   0.634  0.00  0.00    +0.337 C 
BRANCH   9  10
ATOM     10  O   LIG A   1      -5.949  -5.813   0.036  0.00  0.00    -0.477 OA
ATOM     11  H   LIG A   1      -6.071  -5.072  -0.582  0.00  0.00    +0.295 HD
ENDBRANCH   9  10
ENDBRANCH   2   9
ENDBRANCH   1   5
BRANCH   1  12
ATOM     12  C   LIG A   1      -0.093  -1.531  -0.760  0.00  0.00    +0.257 C 
BRANCH  12  13
ATOM     13  C   LIG A   1       0.511  -0.158  -0.899  0.00  0.00    +0.012 C 
ATOM     14  C   LIG A   1       1.819   0.177  -0.854  0.00  0.00    -0.073 C 
ATOM     15  C   LIG A   1       2.951  -0.801  -0.687  0.00  0.00    +0.038 C 
BRANCH  14  16
ATOM     16  C   LIG A   1       2.249   1.625  -1.024  0.00  0.00    +0.034 C 
BRANCH  16  17
ATOM     17  C   LIG A   1       2.472   2.330   0.320  0.00  0.00    +0.031 C 
BRANCH  17  18
ATOM     18  C   LIG A   1       2.878   3.768   0.122  0.00  0.00    -0.028 C 
ATOM     19  C   LIG A   1       2.228   4.876   0.531  0.00  0.00    -0.080 C 
ATOM     20  C   LIG A   1       0.924   4.892   1.280  0.00  0.00    +0.038 C 
ATOM     21  C   LIG A   1       2.792   6.246   0.251  0.00  0.00    +0.038 C 
ENDBRANCH  17  18
ENDBRANCH  16  17
ENDBRANCH  14  16
ENDBRANCH  12  13
ENDBRANCH   1  12
TORSDOF 8
