@<TRIPOS>MOLECULE
NuBBE_951
 60 62 0 0 0
SMALL
GASTEIGER

@<TRIPOS>ATOM
      1 O          -1.5511    0.5415   -0.1965 O.2     1  LIG1       -0.2864
      2 C          -0.3408    0.6741   -0.1178 C.ar    1  LIG1        0.2011
      3 C           0.4806   -0.5535   -0.1768 C.ar    1  LIG1        0.0912
      4 C           1.8689   -0.4572   -0.0009 C.ar    1  LIG1        0.1025
      5 C           2.5816   -1.6776    0.0249 C.ar    1  LIG1        0.1860
      6 O           3.9585   -1.6868    0.0939 O.3     1  LIG1       -0.4895
      7 C           4.5332   -2.1911   -1.1192 C.3     1  LIG1        0.0791
      8 C           1.9059   -2.9130    0.0767 C.ar    1  LIG1        0.1676
      9 O           2.6123   -4.0561    0.3493 O.3     1  LIG1       -0.5030
     10 C           0.5234   -2.9985   -0.0810 C.ar    1  LIG1        0.0436
     11 C          -0.2279   -4.3017    0.1025 C.3     1  LIG1       -0.0022
     12 C          -0.7044   -4.4809    1.5292 C.2     1  LIG1       -0.0807
     13 C          -1.8147   -5.1211    1.9490 C.2     1  LIG1       -0.0793
     14 C          -2.7929   -5.8243    1.0503 C.3     1  LIG1       -0.0440
     15 C          -2.1644   -5.1880    3.4131 C.3     1  LIG1       -0.0440
     16 C          -0.1709   -1.8038   -0.2797 C.ar    1  LIG1        0.1368
     17 O          -1.5181   -1.9072   -0.5314 O.3     1  LIG1       -0.5056
     18 N           2.4701    0.8302    0.1525 N.ar    1  LIG1       -0.3369
     19 C           3.5715    0.8404    1.1472 C.3     1  LIG1        0.0126
     20 C           1.7043    2.0368    0.1254 C.ar    1  LIG1        0.0953
     21 C           2.3126    3.3088    0.1527 C.ar    1  LIG1        0.1410
     22 O           3.6619    3.4640   -0.0368 O.3     1  LIG1       -0.5047
     23 C           1.5805    4.4778    0.3127 C.ar    1  LIG1       -0.0178
     24 C           0.1936    4.4150    0.3437 C.ar    1  LIG1       -0.0540
     25 C          -0.4802    3.1903    0.1781 C.ar    1  LIG1       -0.0306
     26 C          -1.9975    3.2536    0.0913 C.3     1  LIG1       -0.0085
     27 C          -2.4806    3.3780   -1.3326 C.2     1  LIG1       -0.0810
     28 C          -2.7980    4.4928   -2.0222 C.2     1  LIG1       -0.0793
     29 C          -2.7657    5.8935   -1.4790 C.3     1  LIG1       -0.0440
     30 C          -3.1901    4.4024   -3.4749 C.3     1  LIG1       -0.0440
     31 C           0.2940    2.0035    0.0624 C.ar    1  LIG1        0.0529
     32 H           5.4306   -1.6042   -1.3355 H       1  LIG1        0.0660
     33 H           3.8610   -2.1218   -1.9825 H       1  LIG1        0.0660
     34 H           4.8407   -3.2315   -0.9709 H       1  LIG1        0.0660
     35 H           3.4595   -3.7694    0.7368 H       1  LIG1        0.2923
     36 H           0.4194   -5.1437   -0.1658 H       1  LIG1        0.0358
     37 H          -1.0650   -4.3313   -0.6031 H       1  LIG1        0.0358
     38 H          -0.0738   -4.0089    2.2827 H       1  LIG1        0.0575
     39 H          -2.4912   -5.8307    0.0007 H       1  LIG1        0.0274
     40 H          -3.7738   -5.3424    1.1150 H       1  LIG1        0.0274
     41 H          -2.9020   -6.8696    1.3592 H       1  LIG1        0.0274
     42 H          -1.4088   -4.7110    4.0461 H       1  LIG1        0.0274
     43 H          -2.2536   -6.2310    3.7353 H       1  LIG1        0.0274
     44 H          -3.1201   -4.6859    3.5967 H       1  LIG1        0.0274
     45 H          -1.9005   -1.0006   -0.5115 H       1  LIG1        0.2922
     46 H           3.4702    0.0388    1.8890 H       1  LIG1        0.0456
     47 H           3.6131    1.7555    1.7487 H       1  LIG1        0.0456
     48 H           4.5351    0.7386    0.6350 H       1  LIG1        0.0456
     49 H           3.9429    2.6882   -0.5559 H       1  LIG1        0.2922
     50 H           2.0861    5.4369    0.3843 H       1  LIG1        0.0655
     51 H          -0.3696    5.3393    0.4578 H       1  LIG1        0.0622
     52 H          -2.3628    4.0835    0.7066 H       1  LIG1        0.0356
     53 H          -2.4646    2.3894    0.5717 H       1  LIG1        0.0356
     54 H          -2.5754    2.4187   -1.8433 H       1  LIG1        0.0575
     55 H          -2.6270    5.9341   -0.3968 H       1  LIG1        0.0274
     56 H          -3.7092    6.4051   -1.6991 H       1  LIG1        0.0274
     57 H          -1.9528    6.4593   -1.9461 H       1  LIG1        0.0274
     58 H          -3.1348    3.3777   -3.8572 H       1  LIG1        0.0274
     59 H          -2.5154    5.0144   -4.0836 H       1  LIG1        0.0274
     60 H          -4.2138    4.7612   -3.6207 H       1  LIG1        0.0274
@<TRIPOS>BOND
     1     1     2    2
     2     2     3   ar
     3     3     4   ar
     4     4     5   ar
     5     5     6    1
     6     6     7    1
     7     5     8   ar
     8     8     9    1
     9     8    10   ar
    10    10    11    1
    11    11    12    1
    12    12    13    2
    13    13    14    1
    14    13    15    1
    15    10    16   ar
    16     3    16   ar
    17    16    17    1
    18     4    18   ar
    19    18    19    1
    20    18    20   ar
    21    20    21   ar
    22    21    22    1
    23    21    23   ar
    24    23    24   ar
    25    24    25   ar
    26    25    26    1
    27    26    27    1
    28    27    28    2
    29    28    29    1
    30    28    30    1
    31    25    31   ar
    32    20    31   ar
    33     2    31   ar
    34     7    32    1
    35     7    33    1
    36     7    34    1
    37     9    35    1
    38    11    36    1
    39    11    37    1
    40    12    38    1
    41    14    39    1
    42    14    40    1
    43    14    41    1
    44    15    42    1
    45    15    43    1
    46    15    44    1
    47    17    45    1
    48    19    46    1
    49    19    47    1
    50    19    48    1
    51    22    49    1
    52    23    50    1
    53    24    51    1
    54    26    52    1
    55    26    53    1
    56    27    54    1
    57    29    55    1
    58    29    56    1
    59    29    57    1
    60    30    58    1
    61    30    59    1
    62    30    60    1
