REMARK  Name = NuBBE_998
REMARK  6 active torsions:
REMARK  status: ('A' for Active; 'I' for Inactive)
REMARK    1  A    between atoms: C_1  and  C_2
REMARK    2  A    between atoms: C_9  and  O_20
REMARK    3  A    between atoms: C_11  and  O_19
REMARK    4  A    between atoms: C_14  and  C_18
REMARK    5  A    between atoms: C_23  and  C_25
REMARK    6  A    between atoms: C_25  and  C_26
REMARK                            x       y       z     vdW  Elec       q    Type
REMARK                         _______ _______ _______ _____ _____    ______ ____
ROOT
ATOM      1  C   LIG A   1      -2.413  -2.532   0.759  0.00  0.00    +0.012 C 
ATOM      2  C   LIG A   1      -0.937  -2.070   0.760  0.00  0.00    -0.019 C 
ATOM      3  C   LIG A   1      -0.543  -1.655  -0.695  0.00  0.00    +0.006 C 
ATOM      4  C   LIG A   1       0.577  -0.578  -0.719  0.00  0.00    -0.003 C 
ATOM      5  C   LIG A   1       1.120  -0.325  -2.135  0.00  0.00    +0.004 C 
ATOM      6  C   LIG A   1       1.879   0.982  -2.263  0.00  0.00    +0.004 C 
ATOM      7  C   LIG A   1       1.142   2.245  -1.758  0.00  0.00    -0.002 C 
ATOM      8  C   LIG A   1       2.201   3.112  -1.027  0.00  0.00    +0.038 C 
ATOM      9  C   LIG A   1       1.652   4.365  -0.357  0.00  0.00    +0.143 C 
ATOM     10  C   LIG A   1       0.503   4.021   0.593  0.00  0.00    +0.144 C 
ATOM     11  C   LIG A   1      -0.593   3.246  -0.137  0.00  0.00    +0.041 C 
ATOM     12  C   LIG A   1      -0.146   1.957  -0.910  0.00  0.00    -0.024 C 
ATOM     13  C   LIG A   1       0.143   0.731   0.030  0.00  0.00    -0.001 C 
ATOM     14  C   LIG A   1      -0.969   0.454   1.066  0.00  0.00    +0.005 C 
ATOM     15  C   LIG A   1      -0.772  -0.895   1.749  0.00  0.00    +0.008 C 
ATOM     16  C   LIG A   1      -1.350   1.665  -1.853  0.00  0.00    +0.012 C 
ATOM     17  C   LIG A   1      -0.192  -2.979  -1.390  0.00  0.00    +0.079 C 
ATOM     18  C   LIG A   1       0.296  -3.846  -0.265  0.00  0.00    +0.137 C 
ATOM     19  C   LIG A   1       0.056  -3.225   1.098  0.00  0.00    +0.061 C 
ATOM     20  O   LIG A   1       0.831  -4.934  -0.446  0.00  0.00    -0.297 OA
ENDROOT
BRANCH  10  21
ATOM     21  O   LIG A   1       0.984   3.273   1.705  0.00  0.00    -0.389 OA
ATOM     22  H   LIG A   1       0.263   3.229   2.357  0.00  0.00    +0.210 HD
ENDBRANCH  10  21
BRANCH   9  23
ATOM     23  O   LIG A   1       1.242   5.321  -1.336  0.00  0.00    -0.389 OA
ATOM     24  H   LIG A   1       0.691   4.875  -1.999  0.00  0.00    +0.210 HD
ENDBRANCH   9  23
BRANCH  19  25
ATOM     25  C   LIG A   1      -0.369  -4.280   2.124  0.00  0.00    +0.008 C 
ATOM     26  C   LIG A   1      -0.487  -3.744   3.542  0.00  0.00    +0.004 C 
ENDBRANCH  19  25
TORSDOF 3
