REMARK  Name = NuBBE_1092
REMARK  12 active torsions:
REMARK  status: ('A' for Active; 'I' for Inactive)
REMARK    1  A    between atoms: C_1  and  C_2
REMARK    2  A    between atoms: C_2  and  C_3
REMARK    3  A    between atoms: C_2  and  C_4
REMARK    4  A    between atoms: C_2  and  O_28
REMARK    5  A    between atoms: C_5  and  C_6
REMARK    6  A    between atoms: C_6  and  O_26
REMARK    7  A    between atoms: C_7  and  O_22
REMARK    8  A    between atoms: C_12  and  O_20
REMARK    9  A    between atoms: O_20  and  C_21
REMARK   10  A    between atoms: O_22  and  C_23
REMARK   11  A    between atoms: C_23  and  C_24
REMARK   12  A    between atoms: O_26  and  C_27
REMARK                            x       y       z     vdW  Elec       q    Type
REMARK                         _______ _______ _______ _____ _____    ______ ____
ROOT
ATOM      1  C   LIG A   1      -0.115   1.049   0.827  0.00  0.00    +0.166 C 
ATOM      2  C   LIG A   1       1.396   1.495   1.057  0.00  0.00    +0.218 C 
ATOM      3  C   LIG A   1       2.377   0.354   1.335  0.00  0.00    +0.053 C 
ATOM      4  C   LIG A   1       1.811  -0.671   2.294  0.00  0.00    +0.044 C 
ATOM      5  C   LIG A   1       0.557  -1.280   1.730  0.00  0.00    +0.020 A 
ATOM      6  C   LIG A   1       0.263  -2.651   1.932  0.00  0.00    +0.137 A 
ATOM      7  C   LIG A   1      -0.984  -3.139   1.488  0.00  0.00    +0.082 A 
ATOM      8  C   LIG A   1      -1.812  -2.221   0.853  0.00  0.00    +0.231 A 
ATOM      9  N   LIG A   1      -1.552  -0.939   0.586  0.00  0.00    -0.213 NA
ATOM     10  C   LIG A   1      -0.361  -0.472   1.043  0.00  0.00    +0.091 A 
ATOM     11  O   LIG A   1      -2.999  -2.797   0.518  0.00  0.00    -0.445 OA
ATOM     12  C   LIG A   1      -2.941  -4.088   0.917  0.00  0.00    +0.198 A 
ATOM     13  C   LIG A   1      -1.726  -4.355   1.503  0.00  0.00    +0.055 A 
ENDROOT
BRANCH   1  15
ATOM     14  C   LIG A   1      -0.591   0.866  -1.697  0.00  0.00    +0.006 C 
ATOM     15  C   LIG A   1      -0.597   1.556  -0.539  0.00  0.00    +0.016 C 
BRANCH  14  17
ATOM     16  C   LIG A   1       0.023   1.359  -4.054  0.00  0.00    +0.045 C 
ATOM     17  C   LIG A   1      -1.118   1.325  -3.035  0.00  0.00    +0.079 C 
ATOM     18  C   LIG A   1      -2.235   0.395  -3.522  0.00  0.00    +0.045 C 
BRANCH  17  19
ATOM     19  O   LIG A   1      -1.648   2.643  -2.914  0.00  0.00    -0.385 OA
ATOM     20  H   LIG A   1      -1.948   2.922  -3.795  0.00  0.00    +0.211 HD
ENDBRANCH  17  19
ENDBRANCH  14  17
ENDBRANCH   1  15
BRANCH   6  21
ATOM     21  O   LIG A   1       1.199  -3.374   2.654  0.00  0.00    -0.494 OA
ATOM     22  C   LIG A   1       1.310  -4.753   2.326  0.00  0.00    +0.277 C 
ENDBRANCH   6  21
BRANCH   1  23
ATOM     23  O   LIG A   1      -0.868   1.774   1.857  0.00  0.00    -0.363 OA
ATOM     24  C   LIG A   1      -2.284   1.593   1.872  0.00  0.00    +0.195 C 
ENDBRANCH   1  23
BRANCH   2  25
ATOM     25  O   LIG A   1       1.975   2.198  -0.085  0.00  0.00    -0.458 OA
BRANCH  25  26
ATOM     26  C   LIG A   1       2.511   3.421   0.132  0.00  0.00    +0.304 C 
ATOM     27  C   LIG A   1       3.191   3.951  -1.089  0.00  0.00    +0.136 C 
ATOM     28  O   LIG A   1       2.472   4.038   1.197  0.00  0.00    -0.251 OA
ENDBRANCH  25  26
ENDBRANCH   2  25
TORSDOF 7
