REMARK  Name = NuBBE_1424
REMARK  7 active torsions:
REMARK  status: ('A' for Active; 'I' for Inactive)
REMARK    1  A    between atoms: C_8  and  C_9
REMARK    2  A    between atoms: C_8  and  C_14
REMARK    3  A    between atoms: C_10  and  O_13
REMARK    4  A    between atoms: C_19  and  C_20
REMARK    5  A    between atoms: C_20  and  C_21
REMARK    6  A    between atoms: C_20  and  C_22
REMARK    7  A    between atoms: C_20  and  C_24
REMARK                            x       y       z     vdW  Elec       q    Type
REMARK                         _______ _______ _______ _____ _____    ______ ____
ROOT
ATOM      1  O   LIG A   1      -3.348   0.464  -1.020  0.00  0.00    -0.245 OA
ATOM      2  C   LIG A   1      -2.333  -0.011  -0.519  0.00  0.00    +0.341 A 
ATOM      3  O   LIG A   1      -1.144   0.709  -0.562  0.00  0.00    -0.421 OA
ATOM      4  C   LIG A   1       0.039   0.268   0.059  0.00  0.00    +0.146 A 
ATOM      5  C   LIG A   1       1.187   1.065  -0.053  0.00  0.00    +0.040 A 
ATOM      6  C   LIG A   1       2.345   0.648   0.605  0.00  0.00    +0.128 A 
ATOM      7  O   LIG A   1       3.535   1.320   0.577  0.00  0.00    -0.483 OA
ATOM      8  C   LIG A   1       3.558   2.615  -0.053  0.00  0.00    +0.131 C 
ATOM      9  C   LIG A   1       5.012   2.818  -0.512  0.00  0.00    +0.058 C 
ATOM     10  C   LIG A   1       2.591   2.728  -1.260  0.00  0.00    +0.162 C 
ATOM     11  C   LIG A   1       1.173   2.332  -0.857  0.00  0.00    +0.078 C 
ATOM     12  C   LIG A   1       3.244   3.673   1.019  0.00  0.00    +0.058 C 
ATOM     13  C   LIG A   1       2.349  -0.545   1.334  0.00  0.00    +0.047 A 
ATOM     14  C   LIG A   1       1.201  -1.339   1.404  0.00  0.00    +0.015 A 
ATOM     15  C   LIG A   1       0.035  -0.932   0.755  0.00  0.00    +0.018 A 
ATOM     16  C   LIG A   1      -1.169  -1.748   0.743  0.00  0.00    +0.023 A 
ATOM     17  C   LIG A   1      -2.307  -1.357   0.135  0.00  0.00    +0.047 A 
ENDROOT
BRANCH  17  18
ATOM     18  C   LIG A   1      -3.584  -2.229   0.048  0.00  0.00    +0.015 C 
ATOM     19  C   LIG A   1      -3.941  -2.524  -1.429  0.00  0.00    +0.020 C 
ATOM     20  C   LIG A   1      -4.797  -1.524   0.702  0.00  0.00    +0.020 C 
BRANCH  18  21
ATOM     21  C   LIG A   1      -3.416  -3.549   0.828  0.00  0.00    -0.023 C 
ATOM     22  C   LIG A   1      -3.078  -4.754   0.343  0.00  0.00    +0.005 C 
ENDBRANCH  18  21
ENDBRANCH  17  18
BRANCH  10  23
ATOM     23  O   LIG A   1       2.980   1.892  -2.361  0.00  0.00    -0.388 OA
ATOM     24  H   LIG A   1       3.821   2.224  -2.717  0.00  0.00    +0.210 HD
ENDBRANCH  10  23
TORSDOF 3
