@<TRIPOS>MOLECULE
NuBBE_1617
 24 26 0 0 0
SMALL
GASTEIGER

@<TRIPOS>ATOM
      1 O          -2.8878   -0.3725   -0.0801 O.3     1  LIG1       -0.4914
      2 C          -3.6313    0.7953   -0.4004 C.3     1  LIG1        0.0790
      3 C          -1.5290   -0.2483   -0.0224 C.ar    1  LIG1        0.1635
      4 C          -0.7578   -1.4171    0.0525 C.ar    1  LIG1        0.1797
      5 C           0.6311   -1.4415    0.1193 C.ar    1  LIG1        0.0667
      6 C           1.3115   -0.2146    0.1162 C.ar    1  LIG1        0.1500
      7 C           0.5896    0.9838    0.0518 C.ar    1  LIG1        0.0219
      8 C          -0.8116    0.9606   -0.0145 C.ar    1  LIG1       -0.0056
      9 C           1.3219    2.2430    0.0577 C.ar    1  LIG1       -0.0442
     10 C           2.6567    2.2361    0.1184 C.ar    1  LIG1        0.0236
     11 C           3.4397    0.9911    0.1814 C.ar    1  LIG1        0.3372
     12 O           4.6635    1.0226    0.2325 O.2     1  LIG1       -0.2452
     13 O           2.7244   -0.1966    0.1803 O.2     1  LIG1       -0.4214
     14 C           0.9989   -2.8126    0.1756 C.ar    1  LIG1       -0.0124
     15 C          -0.1736   -3.5295    0.1411 C.ar    1  LIG1        0.0934
     16 O          -1.2419   -2.6949    0.0660 O.2     1  LIG1       -0.4591
     17 H          -4.6788    0.5029   -0.5209 H       1  LIG1        0.0660
     18 H          -3.2966    1.2340   -1.3464 H       1  LIG1        0.0660
     19 H          -3.5810    1.5261    0.4132 H       1  LIG1        0.0660
     20 H          -1.3425    1.9076   -0.0533 H       1  LIG1        0.0662
     21 H           0.7719    3.1769    0.0127 H       1  LIG1        0.0627
     22 H           3.2329    3.1535    0.1243 H       1  LIG1        0.0689
     23 H           1.9978   -3.2215    0.2344 H       1  LIG1        0.0656
     24 H          -0.4081   -4.5848    0.1606 H       1  LIG1        0.1030
@<TRIPOS>BOND
     1     1     2    1
     2     1     3    1
     3     3     4   ar
     4     4     5   ar
     5     5     6   ar
     6     6     7   ar
     7     7     8   ar
     8     3     8   ar
     9     7     9   ar
    10     9    10   ar
    11    10    11   ar
    12    11    12    2
    13    11    13   ar
    14     6    13   ar
    15     5    14   ar
    16    14    15   ar
    17    15    16   ar
    18     4    16   ar
    19     2    17    1
    20     2    18    1
    21     2    19    1
    22     8    20    1
    23     9    21    1
    24    10    22    1
    25    14    23    1
    26    15    24    1
