@<TRIPOS>MOLECULE
NuBBE_2153
 55 58 0 0 0
SMALL
GASTEIGER

@<TRIPOS>ATOM
      1 C           1.1970   -5.1001   -3.0634 C.3     1  LIG1        0.0790
      2 O           0.8307   -3.7296   -3.2107 O.3     1  LIG1       -0.4913
      3 C           0.0237   -3.2157   -2.2348 C.ar    1  LIG1        0.1656
      4 C          -0.8921   -3.9103   -1.4724 C.ar    1  LIG1        0.2075
      5 O          -1.1963   -5.2347   -1.5512 O.3     1  LIG1       -0.4489
      6 C          -2.3071   -5.3295   -0.6494 C.3     1  LIG1        0.2334
      7 O          -2.5192   -4.1231    0.1066 O.3     1  LIG1       -0.4525
      8 C          -1.6593   -3.2731   -0.5232 C.ar    1  LIG1        0.1702
      9 C          -1.5677   -1.9141   -0.2861 C.ar    1  LIG1       -0.0123
     10 C          -0.6914   -1.1478   -1.0757 C.ar    1  LIG1       -0.0327
     11 C          -0.6590    0.3626   -0.8822 C.3     1  LIG1        0.0340
     12 H          -1.7004    0.6445   -0.6521 H       1  LIG1        0.0394
     13 C          -0.2670    1.1961   -2.1216 C.3     1  LIG1        0.1048
     14 H           0.6009    0.7930   -2.6500 H       1  LIG1        0.0736
     15 C          -1.4148    1.3729   -3.1114 C.3     1  LIG1       -0.0272
     16 O           0.1291    2.4972   -1.6502 O.2     1  LIG1       -0.4884
     17 C           0.2169    2.4189   -0.2569 C.2     1  LIG1        0.1502
     18 C           0.2365    0.9765    0.2348 C.3     1  LIG1        0.0481
     19 C           1.7130    0.4458    0.2571 C.3     1  LIG1       -0.0216
     20 C           1.9422   -0.9610    0.7613 C.2     1  LIG1       -0.0902
     21 C           2.7154   -1.3124    1.7964 C.2     1  LIG1       -0.1026
     22 C          -0.4249    0.9290    1.6280 C.3     1  LIG1       -0.0056
     23 C           0.1375    2.0010    2.5822 C.3     1  LIG1        0.1247
     24 O          -0.5301    1.8357    3.8424 O.3     1  LIG1       -0.3718
     25 C          -0.1114    2.7656    4.8426 C.3     1  LIG1        0.0374
     26 C           0.1200    3.5377    0.4743 C.2     1  LIG1        0.2032
     27 O           0.0008    4.7652   -0.1655 O.2     1  LIG1       -0.4888
     28 C           0.5500    5.8928    0.5328 C.3     1  LIG1        0.0791
     29 C           0.0116    3.4120    1.9685 C.2     1  LIG1        0.2290
     30 O          -0.1442    4.3927    2.6501 O.2     1  LIG1       -0.2859
     31 C           0.1005   -1.8242   -2.0426 C.ar    1  LIG1       -0.0125
     32 H           1.8086   -5.3796   -3.9268 H       1  LIG1        0.0660
     33 H           0.3403   -5.7775   -3.0802 H       1  LIG1        0.0660
     34 H           1.7969   -5.2409   -2.1578 H       1  LIG1        0.0660
     35 H          -2.1250   -6.1625    0.0376 H       1  LIG1        0.1166
     36 H          -3.2090   -5.5478   -1.2349 H       1  LIG1        0.1166
     37 H          -2.1936   -1.4608    0.4769 H       1  LIG1        0.0658
     38 H          -2.2526    1.9133   -2.6554 H       1  LIG1        0.0265
     39 H          -1.7788    0.4127   -3.4877 H       1  LIG1        0.0265
     40 H          -1.0879    1.9787   -3.9639 H       1  LIG1        0.0265
     41 H           2.3319    1.1314    0.8516 H       1  LIG1        0.0317
     42 H           2.1360    0.4908   -0.7550 H       1  LIG1        0.0317
     43 H           1.4957   -1.7799    0.2063 H       1  LIG1        0.0567
     44 H           3.2492   -0.5906    2.4030 H       1  LIG1        0.0532
     45 H           2.8430   -2.3647    2.0441 H       1  LIG1        0.0532
     46 H          -0.3267   -0.0658    2.0809 H       1  LIG1        0.0304
     47 H          -1.5091    1.0894    1.5411 H       1  LIG1        0.0304
     48 H           1.2065    1.8165    2.7501 H       1  LIG1        0.0680
     49 H          -0.4001    2.3805    5.8229 H       1  LIG1        0.0524
     50 H          -0.6284    3.7241    4.7293 H       1  LIG1        0.0524
     51 H           0.9733    2.9114    4.8225 H       1  LIG1        0.0524
     52 H           0.5576    6.7449   -0.1540 H       1  LIG1        0.0660
     53 H           1.5800    5.6946    0.8453 H       1  LIG1        0.0660
     54 H          -0.0699    6.2020    1.3788 H       1  LIG1        0.0660
     55 H           0.8208   -1.2838   -2.6525 H       1  LIG1        0.0658
@<TRIPOS>BOND
     1     1     2    1
     2     2     3    1
     3     3     4   ar
     4     4     5    1
     5     5     6    1
     6     6     7    1
     7     4     8   ar
     8     7     8    1
     9     8     9   ar
    10     9    10   ar
    11    10    11    1
    12    11    12    1
    13    11    13    1
    14    13    16    1
    15    16    17    1
    16    17    18    1
    17    18    19    1
    18    19    20    1
    19    20    21    2
    20    11    18    1
    21    18    22    1
    22    22    23    1
    23    23    24    1
    24    24    25    1
    25    17    26    2
    26    26    27    1
    27    27    28    1
    28    26    29    1
    29    23    29    1
    30    29    30    2
    31    10    31   ar
    32     3    31   ar
    33    13    15    1
    34    13    14    1
    35     1    32    1
    36     1    33    1
    37     1    34    1
    38     6    35    1
    39     6    36    1
    40     9    37    1
    41    15    38    1
    42    15    39    1
    43    15    40    1
    44    19    41    1
    45    19    42    1
    46    20    43    1
    47    21    44    1
    48    21    45    1
    49    22    46    1
    50    22    47    1
    51    23    48    1
    52    25    49    1
    53    25    50    1
    54    25    51    1
    55    28    52    1
    56    28    53    1
    57    28    54    1
    58    31    55    1
