REMARK  Name = NuBBE_2100
REMARK  10 active torsions:
REMARK  status: ('A' for Active; 'I' for Inactive)
REMARK    1  A    between atoms: C_1  and  C_2
REMARK    2  A    between atoms: C_1  and  C_4
REMARK    3  A    between atoms: C_6  and  O_7
REMARK    4  A    between atoms: O_7  and  C_8
REMARK    5  A    between atoms: C_11  and  O_14
REMARK    6  A    between atoms: O_14  and  C_15
REMARK    7  A    between atoms: C_17  and  C_22
REMARK    8  A    between atoms: C_19  and  C_21
REMARK    9  A    between atoms: C_26  and  O_28
REMARK   10  A    between atoms: O_28  and  C_29
REMARK                            x       y       z     vdW  Elec       q    Type
REMARK                         _______ _______ _______ _____ _____    ______ ____
ROOT
ATOM      1  C   LIG A   1      -1.355  -0.986  -0.933  0.00  0.00    +0.044 C 
ATOM      2  C   LIG A   1       0.119  -1.264  -1.046  0.00  0.00    +0.150 C 
ATOM      3  C   LIG A   1       0.678  -2.482  -1.227  0.00  0.00    +0.203 C 
ATOM      4  C   LIG A   1      -0.246  -3.661  -1.363  0.00  0.00    +0.229 C 
ATOM      5  O   LIG A   1       0.196  -4.722  -1.843  0.00  0.00    -0.286 OA
ATOM      6  C   LIG A   1      -1.741  -3.518  -0.983  0.00  0.00    +0.193 C 
ATOM      7  C   LIG A   1      -2.001  -2.201  -0.247  0.00  0.00    +0.055 C 
ATOM      8  O   LIG A   1       0.875  -0.134  -0.855  0.00  0.00    -0.484 OA
ATOM      9  C   LIG A   1       0.017   0.952  -0.476  0.00  0.00    +0.207 C 
ATOM     10  C   LIG A   1      -1.344   0.324  -0.094  0.00  0.00    +0.045 C 
ATOM     11  C   LIG A   1      -1.544   0.131   1.414  0.00  0.00    +0.012 C 
ENDROOT
BRANCH   9  12
ATOM     12  C   LIG A   1       0.731   1.829   0.540  0.00  0.00    +0.000 A 
ATOM     13  C   LIG A   1       0.113   2.993   1.020  0.00  0.00    +0.057 A 
ATOM     14  C   LIG A   1       0.803   3.774   1.924  0.00  0.00    +0.170 A 
ATOM     15  C   LIG A   1       2.080   3.471   2.341  0.00  0.00    +0.207 A 
ATOM     16  C   LIG A   1       2.747   2.361   1.869  0.00  0.00    +0.166 A 
ATOM     17  C   LIG A   1       2.048   1.526   0.986  0.00  0.00    +0.057 A 
ATOM     18  O   LIG A   1       2.544   4.384   3.237  0.00  0.00    -0.449 OA
ATOM     19  C   LIG A   1       1.464   5.325   3.274  0.00  0.00    +0.467 C 
ATOM     20  O   LIG A   1       0.326   4.915   2.495  0.00  0.00    -0.453 OA
BRANCH  16  21
ATOM     21  O   LIG A   1       4.027   1.991   2.177  0.00  0.00    -0.491 OA
ATOM     22  C   LIG A   1       4.878   3.059   2.597  0.00  0.00    +0.277 C 
ENDBRANCH  16  21
ENDBRANCH   9  12
BRANCH   3  23
ATOM     23  O   LIG A   1       2.026  -2.758  -1.329  0.00  0.00    -0.489 OA
ATOM     24  C   LIG A   1       2.897  -1.718  -1.754  0.00  0.00    +0.277 C 
ENDBRANCH   3  23
BRANCH   6  25
ATOM     25  O   LIG A   1      -2.286  -4.531  -0.134  0.00  0.00    -0.372 OA
ATOM     26  C   LIG A   1      -2.235  -5.845  -0.673  0.00  0.00    +0.195 C 
ENDBRANCH   6  25
BRANCH   1  27
ATOM     27  C   LIG A   1      -1.904  -0.720  -2.370  0.00  0.00    +0.041 C 
BRANCH  27  28
ATOM     28  C   LIG A   1      -3.379  -0.430  -2.431  0.00  0.00    -0.034 C 
ATOM     29  C   LIG A   1      -3.900   0.694  -2.939  0.00  0.00    +0.004 C 
ENDBRANCH  27  28
ENDBRANCH   1  27
TORSDOF 6
