@<TRIPOS>MOLECULE
NuBBE_1459
 50 54 0 0 0
SMALL
GASTEIGER

@<TRIPOS>ATOM
      1 O           0.1433   -2.6131    0.5331 O.2     1  LIG1       -0.2864
      2 C          -0.0754   -1.4905    0.0964 C.ar    1  LIG1        0.2008
      3 C          -1.4403   -0.9397    0.1532 C.ar    1  LIG1        0.0654
      4 C          -2.4573   -1.6435    0.8073 C.ar    1  LIG1       -0.0439
      5 C          -3.7276   -1.0809    0.9114 C.ar    1  LIG1       -0.0184
      6 C          -3.9756    0.1822    0.3725 C.ar    1  LIG1        0.1324
      7 C          -2.9737    0.8759   -0.3190 C.ar    1  LIG1        0.0594
      8 C          -3.2992    2.1728   -0.9067 C.2     1  LIG1       -0.0478
      9 C          -4.4593    2.7426   -0.5644 C.2     1  LIG1       -0.0408
     10 C          -5.4378    2.0893    0.3847 C.3     1  LIG1        0.1235
     11 C          -6.8625    2.2557   -0.1563 C.3     1  LIG1       -0.0215
     12 O          -5.2439    0.6671    0.5461 O.3     1  LIG1       -0.4815
     13 C          -5.3369    2.7393    1.7710 C.3     1  LIG1       -0.0215
     14 C          -1.6962    0.3023   -0.4224 C.ar    1  LIG1        0.1497
     15 O          -0.7201    1.0006   -1.0866 O.2     1  LIG1       -0.4519
     16 C           0.5875    0.5540   -1.0185 C.ar    1  LIG1        0.1848
     17 C           0.9823   -0.6077   -0.4690 C.ar    1  LIG1        0.0773
     18 C           2.4321   -0.8815   -0.4443 C.ar    1  LIG1        0.0347
     19 C           2.9825   -2.1279   -0.1109 C.ar    1  LIG1       -0.0049
     20 C           4.3697   -2.3060    0.0004 C.ar    1  LIG1        0.1623
     21 O           4.9562   -3.5031    0.3299 O.3     1  LIG1       -0.4914
     22 C           4.1884   -4.3660    1.1614 C.3     1  LIG1        0.0790
     23 C           5.2347   -1.2300   -0.2487 C.ar    1  LIG1        0.1650
     24 C           4.7022    0.0023   -0.6235 C.ar    1  LIG1        0.0262
     25 C           3.3181    0.1679   -0.7247 C.ar    1  LIG1        0.1360
     26 O           2.9066    1.4263   -1.0727 O.3     1  LIG1       -0.4556
     27 C           1.5821    1.5265   -1.5953 C.3     1  LIG1        0.2592
     28 O           1.6023    1.4226   -3.0141 O.3     1  LIG1       -0.3519
     29 O           6.5800   -1.4716   -0.1319 O.3     1  LIG1       -0.4913
     30 C           7.3742   -0.3608    0.2678 C.3     1  LIG1        0.0790
     31 H          -2.2604   -2.6184    1.2486 H       1  LIG1        0.0627
     32 H          -4.5206   -1.6160    1.4279 H       1  LIG1        0.0654
     33 H          -2.5995    2.6585   -1.5774 H       1  LIG1        0.0624
     34 H          -4.7063    3.7259   -0.9555 H       1  LIG1        0.0611
     35 H          -6.9707    1.7668   -1.1318 H       1  LIG1        0.0271
     36 H          -7.1390    3.3102   -0.2665 H       1  LIG1        0.0271
     37 H          -7.5906    1.7784    0.5104 H       1  LIG1        0.0271
     38 H          -6.0376    2.2718    2.4725 H       1  LIG1        0.0271
     39 H          -5.5478    3.8137    1.7348 H       1  LIG1        0.0271
     40 H          -4.3369    2.6026    2.2001 H       1  LIG1        0.0271
     41 H           2.3298   -2.9767    0.0591 H       1  LIG1        0.0663
     42 H           3.4139   -4.8772    0.5815 H       1  LIG1        0.0660
     43 H           3.7544   -3.8280    2.0116 H       1  LIG1        0.0660
     44 H           4.8627   -5.1297    1.5609 H       1  LIG1        0.0660
     45 H           5.3423    0.8468   -0.8569 H       1  LIG1        0.0692
     46 H           1.2514    2.5443   -1.3602 H       1  LIG1        0.1143
     47 H           1.6970    0.4782   -3.2172 H       1  LIG1        0.2140
     48 H           8.3482   -0.7442    0.5865 H       1  LIG1        0.0660
     49 H           6.9305    0.1689    1.1183 H       1  LIG1        0.0660
     50 H           7.5426    0.3190   -0.5731 H       1  LIG1        0.0660
@<TRIPOS>BOND
     1     1     2    2
     2     2     3   ar
     3     3     4   ar
     4     4     5   ar
     5     5     6   ar
     6     6     7   ar
     7     7     8    1
     8     8     9    2
     9     9    10    1
    10    10    11    1
    11    10    12    1
    12     6    12    1
    13    10    13    1
    14     7    14   ar
    15     3    14   ar
    16    14    15   ar
    17    15    16   ar
    18    16    17   ar
    19     2    17   ar
    20    17    18    1
    21    18    19   ar
    22    19    20   ar
    23    20    21    1
    24    21    22    1
    25    20    23   ar
    26    23    24   ar
    27    24    25   ar
    28    18    25   ar
    29    25    26    1
    30    26    27    1
    31    16    27    1
    32    27    28    1
    33    23    29    1
    34    29    30    1
    35     4    31    1
    36     5    32    1
    37     8    33    1
    38     9    34    1
    39    11    35    1
    40    11    36    1
    41    11    37    1
    42    13    38    1
    43    13    39    1
    44    13    40    1
    45    19    41    1
    46    22    42    1
    47    22    43    1
    48    22    44    1
    49    24    45    1
    50    27    46    1
    51    28    47    1
    52    30    48    1
    53    30    49    1
    54    30    50    1
