REMARK  Name = NuBBE_650
REMARK  8 active torsions:
REMARK  status: ('A' for Active; 'I' for Inactive)
REMARK    1  A    between atoms: C_6  and  C_7
REMARK    2  A    between atoms: C_9  and  O_11
REMARK    3  A    between atoms: O_11  and  C_12
REMARK    4  A    between atoms: C_12  and  C_13
REMARK    5  A    between atoms: C_13  and  C_14
REMARK    6  A    between atoms: C_15  and  C_16
REMARK    7  A    between atoms: C_28  and  C_29
REMARK    8  A    between atoms: C_29  and  O_30
REMARK                            x       y       z     vdW  Elec       q    Type
REMARK                         _______ _______ _______ _____ _____    ______ ____
ROOT
ATOM      1  O   LIG A   1      -1.863   2.903   3.426  0.00  0.00    -0.288 OA
ATOM      2  C   LIG A   1      -1.802   2.300   2.365  0.00  0.00    +0.203 C 
ATOM      3  C   LIG A   1      -2.281   2.883   1.112  0.00  0.00    +0.096 C 
ATOM      4  C   LIG A   1      -2.022   1.881   0.276  0.00  0.00    +0.131 C 
ATOM      5  O   LIG A   1      -1.706   0.640   0.833  0.00  0.00    -0.478 OA
ATOM      6  C   LIG A   1      -1.155   0.938   2.123  0.00  0.00    +0.172 C 
ATOM      7  C   LIG A   1      -1.658  -0.025   3.194  0.00  0.00    +0.064 C 
ATOM      8  C   LIG A   1       0.398   0.975   2.039  0.00  0.00    +0.101 C 
ATOM      9  C   LIG A   1       1.183   0.232   0.885  0.00  0.00    +0.192 C 
ATOM     10  C   LIG A   1       1.727   1.214  -0.214  0.00  0.00    +0.111 C 
ATOM     11  C   LIG A   1       0.846   1.480  -1.442  0.00  0.00    +0.211 C 
ATOM     12  O   LIG A   1       1.688   2.094  -2.415  0.00  0.00    -0.453 OA
ATOM     13  C   LIG A   1       2.950   1.604  -2.257  0.00  0.00    +0.336 C 
ATOM     14  C   LIG A   1       2.980   0.865  -0.962  0.00  0.00    +0.040 C 
ATOM     15  C   LIG A   1       4.017   0.082  -0.646  0.00  0.00    +0.020 C 
ATOM     16  O   LIG A   1       3.879   1.786  -3.008  0.00  0.00    -0.245 OA
ATOM     17  C   LIG A   1      -0.276   2.435  -1.131  0.00  0.00    +0.027 C 
ATOM     18  C   LIG A   1      -1.557   2.001  -1.096  0.00  0.00    +0.019 C 
ENDROOT
BRANCH   9  19
ATOM     19  O   LIG A   1       0.464  -0.871   0.280  0.00  0.00    -0.457 OA
BRANCH  19  20
ATOM     20  C   LIG A   1       0.519  -2.092   0.882  0.00  0.00    +0.335 C 
ATOM     21  O   LIG A   1       1.068  -2.314   1.952  0.00  0.00    -0.245 OA
BRANCH  20  22
ATOM     22  C   LIG A   1      -0.253  -3.143   0.136  0.00  0.00    +0.029 C 
ATOM     23  C   LIG A   1      -0.774  -4.271   0.993  0.00  0.00    +0.051 C 
ATOM     24  C   LIG A   1      -0.455  -3.194  -1.196  0.00  0.00    -0.020 C 
ATOM     25  C   LIG A   1       0.096  -2.323  -2.272  0.00  0.00    +0.035 C 
ENDBRANCH  20  22
ENDBRANCH  19  20
ENDBRANCH   9  19
BRANCH  18  26
ATOM     26  C   LIG A   1      -2.215   1.073  -2.096  0.00  0.00    +0.194 C 
BRANCH  26  27
ATOM     27  O   LIG A   1      -1.359   0.721  -3.178  0.00  0.00    -0.390 OA
ATOM     28  H   LIG A   1      -0.971   1.541  -3.531  0.00  0.00    +0.210 HD
ENDBRANCH  26  27
ENDBRANCH  18  26
TORSDOF 5
