@<TRIPOS>MOLECULE
NuBBE_239
 82 84 0 0 0
SMALL
GASTEIGER

@<TRIPOS>ATOM
      1 C           0.1302    2.5295    3.3100 C.3     1  LIG1       -0.0618
      2 C           0.3078    1.6689    2.0550 C.3     1  LIG1       -0.0355
      3 H          -0.6192    1.0869    2.0188 H       1  LIG1        0.0304
      4 C           1.4523    0.6581    2.2343 C.3     1  LIG1       -0.0227
      5 H           1.2003    0.0118    3.0879 H       1  LIG1        0.0293
      6 H           2.3656    1.1754    2.5483 H       1  LIG1        0.0293
      7 C           1.7443   -0.2704    1.0353 C.3     1  LIG1        0.0710
      8 H           1.1886   -1.1870    1.2741 H       1  LIG1        0.0604
      9 O           3.1087   -0.7108    1.0896 O.3     1  LIG1       -0.3907
     10 C           1.2955    0.1656   -0.4131 C.3     1  LIG1        0.0892
     11 C           0.7985   -1.1067   -1.0710 C.2     1  LIG1        0.0124
     12 C           1.9963   -1.8783   -1.5464 C.3     1  LIG1        0.2315
     13 H           2.3897   -2.5322   -0.7609 H       1  LIG1        0.1111
     14 O           1.7610   -2.6457   -2.7276 O.3     1  LIG1       -0.4311
     15 C           1.1768   -3.8582   -2.5023 C.2     1  LIG1        0.3063
     16 C           1.4443   -4.7792   -3.6489 C.3     1  LIG1        0.0333
     17 O           0.5952   -4.2122   -1.4931 O.2     1  LIG1       -0.2511
     18 O           3.0118   -0.8830   -1.7798 O.3     1  LIG1       -0.2971
     19 C           2.4594    0.4051   -1.4436 C.3     1  LIG1        0.2204
     20 H           3.2541    1.0354   -1.0303 H       1  LIG1        0.1068
     21 O           1.9458    0.9634   -2.6762 O.3     1  LIG1       -0.4341
     22 C           2.7883    1.7034   -3.4428 C.2     1  LIG1        0.3061
     23 C           2.2394    1.8127   -4.8420 C.3     1  LIG1        0.0333
     24 O           3.8328    2.2117   -3.0736 O.2     1  LIG1       -0.2511
     25 C          -0.4861   -1.4520   -1.2022 C.2     1  LIG1       -0.0381
     26 C          -1.6390   -0.6680   -0.7150 C.3     1  LIG1        0.1220
     27 H          -2.3848   -0.6387   -1.5188 H       1  LIG1        0.0779
     28 O          -2.2402   -1.3475    0.4265 O.3     1  LIG1       -0.4571
     29 C          -3.1156   -2.3507    0.1062 C.2     1  LIG1        0.3076
     30 C          -3.7735   -3.0154    1.2850 C.3     1  LIG1        0.0450
     31 C          -4.2135   -4.4829    1.0369 C.3     1  LIG1       -0.0430
     32 C          -5.2717   -4.7350   -0.0593 C.3     1  LIG1       -0.0528
     33 C          -6.6117   -4.0787    0.2721 C.3     1  LIG1       -0.0559
     34 C          -7.6841   -4.2763   -0.7893 C.3     1  LIG1       -0.0653
     35 O          -3.3952   -2.6424   -1.0651 O.2     1  LIG1       -0.2508
     36 C          -1.2864    0.8012   -0.4248 C.3     1  LIG1       -0.0075
     37 C           0.2230    1.3041   -0.4121 C.3     1  LIG1       -0.0138
     38 H           0.3195    1.8513   -1.3593 H       1  LIG1        0.0319
     39 C           0.4748    2.4260    0.7045 C.3     1  LIG1       -0.0219
     40 C          -0.5881    3.5438    0.4835 C.3     1  LIG1       -0.0587
     41 C           1.9104    3.1051    0.5622 C.3     1  LIG1       -0.0283
     42 C           2.2696    4.2022    1.5505 C.2     1  LIG1       -0.0806
     43 C           3.4721    4.5578    2.0522 C.2     1  LIG1       -0.0549
     44 C           4.7286    3.9310    1.6862 C.2     1  LIG1       -0.0662
     45 C           5.5976    3.4116    2.5646 C.2     1  LIG1       -0.0985
     46 C           3.5744    5.7473    2.9841 C.3     1  LIG1       -0.0400
     47 H           1.0662    2.9764    3.6500 H       1  LIG1        0.0233
     48 H          -0.2441    1.9052    4.1307 H       1  LIG1        0.0233
     49 H          -0.6094    3.3228    3.1649 H       1  LIG1        0.0233
     50 H           3.7078    0.0435    1.2307 H       1  LIG1        0.2098
     51 H           2.5145   -4.9921   -3.6618 H       1  LIG1        0.0342
     52 H           1.1110   -4.3427   -4.5905 H       1  LIG1        0.0342
     53 H           0.9020   -5.7154   -3.4801 H       1  LIG1        0.0342
     54 H           1.3726    1.1561   -4.9699 H       1  LIG1        0.0342
     55 H           3.0016    1.4918   -5.5578 H       1  LIG1        0.0342
     56 H           1.9327    2.8406   -5.0471 H       1  LIG1        0.0342
     57 H          -0.7700   -2.3752   -1.6927 H       1  LIG1        0.0610
     58 H          -4.6397   -2.4169    1.5983 H       1  LIG1        0.0377
     59 H          -3.0713   -3.0288    2.1303 H       1  LIG1        0.0377
     60 H          -4.6154   -4.8837    1.9773 H       1  LIG1        0.0270
     61 H          -3.3238   -5.0814    0.8048 H       1  LIG1        0.0270
     62 H          -5.4189   -5.8201   -0.1481 H       1  LIG1        0.0265
     63 H          -4.9146   -4.4129   -1.0419 H       1  LIG1        0.0265
     64 H          -6.4748   -3.0037    0.4198 H       1  LIG1        0.0263
     65 H          -6.9811   -4.4972    1.2145 H       1  LIG1        0.0263
     66 H          -7.3908   -3.8443   -1.7514 H       1  LIG1        0.0230
     67 H          -8.6049   -3.7764   -0.4673 H       1  LIG1        0.0230
     68 H          -7.9142   -5.3358   -0.9364 H       1  LIG1        0.0230
     69 H          -1.8535    1.1195    0.4518 H       1  LIG1        0.0307
     70 H          -1.7403    1.3687   -1.2530 H       1  LIG1        0.0307
     71 H          -1.6116    3.1985    0.6487 H       1  LIG1        0.0235
     72 H          -0.5321    3.9220   -0.5457 H       1  LIG1        0.0235
     73 H          -0.4562    4.4062    1.1403 H       1  LIG1        0.0235
     74 H           2.6925    2.3448    0.6020 H       1  LIG1        0.0313
     75 H           1.9664    3.5535   -0.4381 H       1  LIG1        0.0313
     76 H           1.4316    4.8077    1.8865 H       1  LIG1        0.0575
     77 H           4.9847    3.9326    0.6282 H       1  LIG1        0.0614
     78 H           5.4000    3.3824    3.6321 H       1  LIG1        0.0535
     79 H           6.5439    2.9957    2.2294 H       1  LIG1        0.0535
     80 H           2.6067    5.9925    3.4362 H       1  LIG1        0.0277
     81 H           3.9111    6.6292    2.4259 H       1  LIG1        0.0277
     82 H           4.2742    5.5787    3.8088 H       1  LIG1        0.0277
@<TRIPOS>BOND
     1     2     4    1
     2     4     7    1
     3     7    10    1
     4    10    11    1
     5    11    12    1
     6    14    15    1
     7    15    16    1
     8    15    17    2
     9    12    18    1
    10    18    19    1
    11    10    19    1
    12    21    22    1
    13    22    23    1
    14    22    24    2
    15    11    25    2
    16    25    26    1
    17    28    29    1
    18    29    30    1
    19    30    31    1
    20    31    32    1
    21    32    33    1
    22    33    34    1
    23    29    35    2
    24    26    36    1
    25    36    37    1
    26    10    37    1
    27    37    39    1
    28     2    39    1
    29    41    42    1
    30    42    43    2
    31    43    44    1
    32    44    45    2
    33    43    46    1
    34     4     5    1
    35     4     6    1
    36     7     8    1
    37     7     9    1
    38    12    13    1
    39    12    14    1
    40    19    20    1
    41    19    21    1
    42    26    27    1
    43    26    28    1
    44    37    38    1
    45    39    40    1
    46    39    41    1
    47     2     3    1
    48     2     1    1
    49     1    47    1
    50     1    48    1
    51     1    49    1
    52     9    50    1
    53    16    51    1
    54    16    52    1
    55    16    53    1
    56    23    54    1
    57    23    55    1
    58    23    56    1
    59    25    57    1
    60    30    58    1
    61    30    59    1
    62    31    60    1
    63    31    61    1
    64    32    62    1
    65    32    63    1
    66    33    64    1
    67    33    65    1
    68    34    66    1
    69    34    67    1
    70    34    68    1
    71    36    69    1
    72    36    70    1
    73    40    71    1
    74    40    72    1
    75    40    73    1
    76    41    74    1
    77    41    75    1
    78    42    76    1
    79    44    77    1
    80    45    78    1
    81    45    79    1
    82    46    80    1
    83    46    81    1
    84    46    82    1
