REMARK  Name = NuBBE_1364
REMARK  25 active torsions:
REMARK  status: ('A' for Active; 'I' for Inactive)
REMARK    1  A    between atoms: C_3  and  C_4
REMARK    2  A    between atoms: C_4  and  C_5
REMARK    3  A    between atoms: C_4  and  C_10
REMARK    4  A    between atoms: C_5  and  C_6
REMARK    5  A    between atoms: C_6  and  O_7
REMARK    6  A    between atoms: O_7  and  C_8
REMARK    7  A    between atoms: C_10  and  C_11
REMARK    8  A    between atoms: C_11  and  C_12
REMARK    9  A    between atoms: C_12  and  C_13
REMARK   10  A    between atoms: C_13  and  C_14
REMARK   11  A    between atoms: C_14  and  C_15
REMARK   12  A    between atoms: C_18  and  O_35
REMARK   13  A    between atoms: C_19  and  C_20
REMARK   14  A    between atoms: C_19  and  C_30
REMARK   15  A    between atoms: C_20  and  C_21
REMARK   16  A    between atoms: C_22  and  C_23
REMARK   17  A    between atoms: C_22  and  C_24
REMARK   18  A    between atoms: C_26  and  C_27
REMARK   19  A    between atoms: C_27  and  C_28
REMARK   20  A    between atoms: C_30  and  C_31
REMARK   21  A    between atoms: C_32  and  C_33
REMARK   22  A    between atoms: C_32  and  C_34
REMARK   23  A    between atoms: O_35  and  C_36
REMARK   24  A    between atoms: C_38  and  C_45
REMARK   25  A    between atoms: C_40  and  C_44
REMARK                            x       y       z     vdW  Elec       q    Type
REMARK                         _______ _______ _______ _____ _____    ______ ____
ROOT
ATOM      1  O   LIG A   1      -0.267  -1.913   2.239  0.00  0.00    -0.291 OA
ATOM      2  C   LIG A   1       0.360  -1.256   1.408  0.00  0.00    +0.177 C 
ATOM      3  C   LIG A   1       1.069  -0.024   1.979  0.00  0.00    +0.042 C 
ATOM      4  C   LIG A   1       2.364  -0.103   1.546  0.00  0.00    +0.141 C 
ATOM      5  C   LIG A   1       2.858  -1.275   0.789  0.00  0.00    +0.098 C 
ATOM      6  C   LIG A   1       2.098  -2.110   0.016  0.00  0.00    +0.125 C 
ATOM      7  C   LIG A   1       0.604  -1.799  -0.165  0.00  0.00    +0.095 C 
ATOM      8  O   LIG A   1       3.213   1.019   1.603  0.00  0.00    -0.487 OA
ATOM      9  C   LIG A   1       4.640   0.822   1.663  0.00  0.00    +0.181 C 
ATOM     10  C   LIG A   1       5.112  -0.265   0.697  0.00  0.00    +0.098 C 
ATOM     11  C   LIG A   1       4.277  -1.425   1.134  0.00  0.00    +0.176 C 
ATOM     12  O   LIG A   1       4.613  -2.235   1.992  0.00  0.00    -0.291 OA
ATOM     13  C   LIG A   1       6.587  -0.562   0.856  0.00  0.00    +0.020 C 
ATOM     14  C   LIG A   1       5.393   2.136   1.408  0.00  0.00    +0.052 C 
ENDROOT
BRANCH   6  15
ATOM     15  O   LIG A   1       2.464  -3.300  -0.587  0.00  0.00    -0.497 OA
ATOM     16  C   LIG A   1       3.483  -4.050   0.062  0.00  0.00    +0.276 C 
ENDBRANCH   6  15
BRANCH   3  17
ATOM     17  C   LIG A   1       0.164   1.417   2.487  0.00  0.00    +0.037 C 
BRANCH  17  18
ATOM     18  C   LIG A   1      -0.225   2.950   1.542  0.00  0.00    +0.129 C 
BRANCH  18  19
ATOM     19  C   LIG A   1      -1.625   2.847   0.304  0.00  0.00    +0.307 C 
ATOM     20  O   LIG A   1      -2.489   3.557   0.181  0.00  0.00    -0.251 OA
BRANCH  19  21
ATOM     21  O   LIG A   1      -1.515   1.698  -0.471  0.00  0.00    -0.468 OA
ATOM     22  C   LIG A   1      -2.111   0.612  -1.218  0.00  0.00    +0.280 C 
ENDBRANCH  19  21
ENDBRANCH  18  19
ENDBRANCH  17  18
BRANCH  17  23
ATOM     23  C   LIG A   1      -1.245   1.124   3.021  0.00  0.00    +0.009 C 
BRANCH  23  24
ATOM     24  C   LIG A   1      -2.482   0.779   2.176  0.00  0.00    +0.001 C 
BRANCH  24  25
ATOM     25  C   LIG A   1      -2.575  -0.571   1.552  0.00  0.00    +0.000 C 
BRANCH  25  26
ATOM     26  C   LIG A   1      -3.841  -0.815   0.751  0.00  0.00    -0.000 C 
BRANCH  26  27
ATOM     27  C   LIG A   1      -4.946  -1.027   1.716  0.00  0.00    -0.003 C 
ATOM     28  C   LIG A   1      -6.278  -1.488   1.199  0.00  0.00    +0.004 C 
ENDBRANCH  26  27
ENDBRANCH  25  26
ENDBRANCH  24  25
ENDBRANCH  23  24
ENDBRANCH  17  23
ENDBRANCH   3  17
BRANCH   7  29
ATOM     29  C   LIG A   1       0.429  -1.054  -1.649  0.00  0.00    +0.027 C 
BRANCH  29  30
ATOM     30  C   LIG A   1       1.074   0.417  -2.020  0.00  0.00    -0.003 C 
ATOM     31  C   LIG A   1       0.937   1.764  -1.268  0.00  0.00    -0.025 C 
ATOM     32  C   LIG A   1       0.648   1.161  -0.016  0.00  0.00    +0.012 C 
ATOM     33  C   LIG A   1       2.162   2.660  -1.074  0.00  0.00    +0.012 C 
ATOM     34  C   LIG A   1       0.620   1.360  -3.245  0.00  0.00    +0.012 C 
ATOM     35  C   LIG A   1      -0.080   2.349  -2.290  0.00  0.00    +0.020 C 
BRANCH  35  36
ATOM     36  C   LIG A   1      -0.229   3.859  -2.308  0.00  0.00    -0.076 C 
ATOM     37  C   LIG A   1      -0.605   4.467  -3.594  0.00  0.00    +0.038 C 
ATOM     38  C   LIG A   1      -0.246   4.673  -1.229  0.00  0.00    +0.007 C 
ENDBRANCH  35  36
ENDBRANCH  29  30
ENDBRANCH   7  29
BRANCH   7  39
ATOM     39  C   LIG A   1      -0.376  -3.131  -0.233  0.00  0.00    +0.049 C 
BRANCH  39  40
ATOM     40  C   LIG A   1      -1.909  -3.012  -0.243  0.00  0.00    -0.027 C 
ATOM     41  C   LIG A   1      -2.865  -3.481  -1.085  0.00  0.00    -0.080 C 
ATOM     42  C   LIG A   1      -2.473  -4.660  -1.893  0.00  0.00    +0.038 C 
ATOM     43  C   LIG A   1      -4.377  -3.149  -1.257  0.00  0.00    +0.038 C 
ENDBRANCH  39  40
ENDBRANCH   7  39
TORSDOF 15
