@<TRIPOS>MOLECULE
NuBBE_612
 75 80 0 0 0
SMALL
GASTEIGER

@<TRIPOS>ATOM
      1 C          -4.0878   -1.3190   -0.7443 C.3     1  LIG1       -0.0331
      2 C          -2.6902   -0.9128   -0.3934 C.3     1  LIG1        0.0967
      3 C          -2.4246    0.5656   -0.1704 C.3     1  LIG1       -0.0069
      4 H          -3.0789    1.1046   -0.8695 H       1  LIG1        0.0330
      5 C          -0.9944    0.9178   -0.6128 C.3     1  LIG1        0.0011
      6 C          -0.4554    2.3432   -0.4675 C.3     1  LIG1        0.0313
      7 H          -0.5064    2.7092    0.5580 H       1  LIG1        0.0504
      8 N           0.9340    2.1192   -0.7977 N.am    1  LIG1       -0.3113
      9 H           1.6017    2.8376   -1.0505 H       1  LIG1        0.1490
     10 C          -1.1320    3.3588   -1.4085 C.3     1  LIG1       -0.0089
     11 C          -0.6288    4.7800   -1.2481 C.ar    1  LIG1       -0.0456
     12 C           0.4828    5.2347   -1.9740 C.ar    1  LIG1       -0.0585
     13 C           0.9405    6.5474   -1.8304 C.ar    1  LIG1       -0.0615
     14 C           0.2926    7.4224   -0.9619 C.ar    1  LIG1       -0.0617
     15 C          -0.8149    6.9854   -0.2383 C.ar    1  LIG1       -0.0615
     16 C          -1.2740    5.6724   -0.3798 C.ar    1  LIG1       -0.0585
     17 C           0.1696   -0.0337   -0.1450 C.3     1  LIG1        0.0996
     18 C           1.3356    0.7963   -0.6928 C.2     1  LIG1        0.2241
     19 O           2.4700    0.4328   -0.9778 O.2     1  LIG1       -0.2750
     20 C           0.4109   -0.2205    1.4203 C.3     1  LIG1        0.1463
     21 H          -0.4572   -0.6885    1.8840 H       1  LIG1        0.0772
     22 O           0.5771    1.1215    1.9933 O.3     1  LIG1       -0.4577
     23 C          -0.1142    1.4843    3.1033 C.2     1  LIG1        0.3043
     24 C           0.2017    2.9083    3.4678 C.3     1  LIG1        0.0332
     25 O          -0.8983    0.7849    3.7183 O.2     1  LIG1       -0.2512
     26 C           1.6466   -1.0170    1.8918 C.3     1  LIG1        0.1262
     27 H           2.1904   -0.4606    2.6515 H       1  LIG1        0.0661
     28 C           1.9973   -2.5615    1.8918 C.3     1  LIG1        0.1240
     29 H           2.7471   -2.8507    2.6230 H       1  LIG1        0.0657
     30 C           1.1249   -3.7382    1.5123 C.3     1  LIG1        0.1494
     31 O          -0.1755   -3.4578    2.0457 O.3     1  LIG1       -0.3786
     32 C           0.9878   -4.1930    0.0270 C.2     1  LIG1        0.1700
     33 C           2.1940   -4.2834   -0.9139 C.3     1  LIG1        0.0211
     34 H           3.0689   -4.5064   -0.2911 H       1  LIG1        0.0379
     35 C           2.5087   -3.0249   -1.7522 C.3     1  LIG1       -0.0254
     36 C           1.4547   -2.3768   -2.6212 C.2     1  LIG1       -0.0869
     37 C           0.4149   -1.6060   -2.2472 C.2     1  LIG1       -0.0812
     38 C          -0.0865   -1.3940   -0.8323 C.3     1  LIG1        0.0239
     39 H           0.4462   -2.0963   -0.2344 H       1  LIG1        0.0380
     40 C          -1.5383   -1.8463   -0.7329 C.3     1  LIG1        0.0957
     41 H          -1.7386   -2.7506   -1.2972 H       1  LIG1        0.0631
     42 O          -2.0960   -1.7817    0.5828 O.3     1  LIG1       -0.3641
     43 C           2.0032   -5.4896   -1.8481 C.3     1  LIG1       -0.0553
     44 O          -0.1328   -4.5660   -0.3611 O.2     1  LIG1       -0.2940
     45 C           1.5906   -5.0047    2.2567 C.3     1  LIG1       -0.0265
     46 O           2.4101   -1.6627    0.8804 O.3     1  LIG1       -0.3610
     47 H          -1.0443    0.7706   -1.7084 H       1  LIG1        0.0334
     48 C          -2.8771    1.0128    1.2139 C.3     1  LIG1       -0.0594
     49 H          -4.4177   -0.7952   -1.6460 H       1  LIG1        0.0258
     50 H          -4.7763   -1.0767    0.0712 H       1  LIG1        0.0258
     51 H          -4.1627   -2.3952   -0.9351 H       1  LIG1        0.0258
     52 H          -2.2150    3.3555   -1.2330 H       1  LIG1        0.0331
     53 H          -0.9961    3.0574   -2.4554 H       1  LIG1        0.0331
     54 H           0.9983    4.5734   -2.6673 H       1  LIG1        0.0620
     55 H           1.8004    6.8900   -2.4012 H       1  LIG1        0.0618
     56 H           0.6470    8.4446   -0.8534 H       1  LIG1        0.0618
     57 H          -1.3252    7.6715    0.4334 H       1  LIG1        0.0618
     58 H          -2.1495    5.3596    0.1843 H       1  LIG1        0.0620
     59 H          -0.0555    3.5834    2.6478 H       1  LIG1        0.0342
     60 H           1.2597    3.0022    3.7224 H       1  LIG1        0.0342
     61 H          -0.3941    3.1960    4.3393 H       1  LIG1        0.0342
     62 H          -0.8263   -3.7368    1.3671 H       1  LIG1        0.2108
     63 H           3.3313   -3.2944   -2.4325 H       1  LIG1        0.0314
     64 H           2.9675   -2.2516   -1.1391 H       1  LIG1        0.0314
     65 H           1.6450   -2.4594   -3.6917 H       1  LIG1        0.0569
     66 H          -0.1811   -1.1480   -3.0350 H       1  LIG1        0.0573
     67 H           1.1697   -5.3339   -2.5428 H       1  LIG1        0.0237
     68 H           1.7894   -6.3995   -1.2766 H       1  LIG1        0.0237
     69 H           2.9054   -5.6712   -2.4421 H       1  LIG1        0.0237
     70 H           1.5653   -4.8591    3.3426 H       1  LIG1        0.0262
     71 H           2.6079   -5.2936    1.9714 H       1  LIG1        0.0262
     72 H           0.9275   -5.8530    2.0424 H       1  LIG1        0.0262
     73 H          -2.5554    2.0303    1.4469 H       1  LIG1        0.0233
     74 H          -2.5422    0.3331    1.9981 H       1  LIG1        0.0233
     75 H          -3.9731    1.0037    1.2648 H       1  LIG1        0.0233
@<TRIPOS>BOND
     1     1     2    1
     2     2     3    1
     3     3     5    1
     4     5     6    1
     5     6     7    1
     6     6     8    1
     7     8     9    1
     8     6    10    1
     9    10    11    1
    10    11    12   ar
    11    12    13   ar
    12    13    14   ar
    13    14    15   ar
    14    15    16   ar
    15    11    16   ar
    16     5    17    1
    17    17    18    1
    18     8    18   am
    19    18    19    2
    20    17    20    1
    21    22    23    1
    22    23    24    1
    23    23    25    2
    24    20    26    1
    25    26    27    1
    26    26    28    1
    27    28    29    1
    28    28    30    1
    29    30    31    1
    30    30    32    1
    31    32    33    1
    32    33    35    1
    33    35    36    1
    34    36    37    2
    35    37    38    1
    36    38    39    1
    37    17    38    1
    38    38    40    1
    39    40    41    1
    40     2    40    1
    41    40    42    1
    42     2    42    1
    43    32    44    2
    44    30    45    1
    45    28    46    1
    46    26    46    1
    47     5    47    1
    48     3    48    1
    49     3     4    1
    50    33    43    1
    51    33    34    1
    52    20    22    1
    53    20    21    1
    54     1    49    1
    55     1    50    1
    56     1    51    1
    57    10    52    1
    58    10    53    1
    59    12    54    1
    60    13    55    1
    61    14    56    1
    62    15    57    1
    63    16    58    1
    64    24    59    1
    65    24    60    1
    66    24    61    1
    67    31    62    1
    68    35    63    1
    69    35    64    1
    70    36    65    1
    71    37    66    1
    72    43    67    1
    73    43    68    1
    74    43    69    1
    75    45    70    1
    76    45    71    1
    77    45    72    1
    78    48    73    1
    79    48    74    1
    80    48    75    1
