REMARK  Name = NuBBE_1260
REMARK  24 active torsions:
REMARK  status: ('A' for Active; 'I' for Inactive)
REMARK    1  A    between atoms: C_3  and  C_4
REMARK    2  A    between atoms: C_4  and  C_5
REMARK    3  A    between atoms: C_4  and  C_8
REMARK    4  A    between atoms: C_5  and  C_6
REMARK    5  A    between atoms: C_6  and  C_7
REMARK    6  A    between atoms: C_8  and  C_9
REMARK    7  A    between atoms: C_9  and  O_10
REMARK    8  A    between atoms: O_10  and  C_11
REMARK    9  A    between atoms: C_15  and  C_17
REMARK   10  A    between atoms: C_18  and  C_20
REMARK   11  A    between atoms: C_24  and  O_25
REMARK   12  A    between atoms: O_25  and  C_26
REMARK   13  A    between atoms: C_27  and  C_28
REMARK   14  A    between atoms: C_27  and  C_33
REMARK   15  A    between atoms: C_28  and  C_29
REMARK   16  A    between atoms: C_30  and  C_31
REMARK   17  A    between atoms: C_30  and  C_32
REMARK   18  A    between atoms: C_33  and  C_34
REMARK   19  A    between atoms: C_34  and  C_35
REMARK   20  A    between atoms: C_34  and  C_40
REMARK   21  A    between atoms: C_35  and  C_36
REMARK   22  A    between atoms: C_37  and  C_38
REMARK   23  A    between atoms: C_37  and  C_39
REMARK   24  A    between atoms: C_40  and  C_41
REMARK                            x       y       z     vdW  Elec       q    Type
REMARK                         _______ _______ _______ _____ _____    ______ ____
ROOT
ATOM      1  O   LIG A   1      -2.017   1.480   1.100  0.00  0.00    -0.291 OA
ATOM      2  C   LIG A   1      -1.133   1.491   0.240  0.00  0.00    +0.177 C 
ATOM      3  C   LIG A   1      -0.415   2.810   0.021  0.00  0.00    +0.042 C 
ATOM      4  C   LIG A   1       0.715   2.716  -0.696  0.00  0.00    +0.141 C 
ATOM      5  O   LIG A   1       1.724   3.693  -0.657  0.00  0.00    -0.487 OA
ATOM      6  C   LIG A   1       3.020   3.042  -0.484  0.00  0.00    +0.181 C 
ATOM      7  C   LIG A   1       4.091   4.048  -0.107  0.00  0.00    +0.052 C 
ATOM      8  C   LIG A   1       3.468   2.343  -1.779  0.00  0.00    +0.098 C 
ATOM      9  C   LIG A   1       4.494   1.227  -1.447  0.00  0.00    +0.020 C 
ATOM     10  C   LIG A   1       2.166   1.915  -2.470  0.00  0.00    +0.176 C 
ATOM     11  O   LIG A   1       2.059   1.754  -3.674  0.00  0.00    -0.291 OA
ATOM     12  C   LIG A   1       1.058   1.575  -1.502  0.00  0.00    +0.098 C 
ATOM     13  C   LIG A   1       0.549   0.333  -1.322  0.00  0.00    +0.125 C 
ATOM     14  C   LIG A   1      -0.741   0.104  -0.485  0.00  0.00    +0.095 C 
ENDROOT
BRANCH  13  15
ATOM     15  O   LIG A   1       1.066  -0.802  -1.951  0.00  0.00    -0.497 OA
ATOM     16  C   LIG A   1       2.485  -0.870  -2.036  0.00  0.00    +0.276 C 
ENDBRANCH  13  15
BRANCH   3  17
ATOM     17  C   LIG A   1      -0.850   4.123   0.734  0.00  0.00    +0.037 C 
BRANCH  17  18
ATOM     18  C   LIG A   1      -1.953   4.925  -0.030  0.00  0.00    +0.009 C 
BRANCH  18  19
ATOM     19  C   LIG A   1      -3.284   4.223  -0.324  0.00  0.00    -0.003 C 
ATOM     20  C   LIG A   1      -4.070   3.818   0.909  0.00  0.00    +0.004 C 
ENDBRANCH  18  19
ENDBRANCH  17  18
BRANCH  17  21
ATOM     21  C   LIG A   1      -1.177   4.053   2.245  0.00  0.00    +0.129 C 
BRANCH  21  22
ATOM     22  C   LIG A   1      -0.030   3.644   3.082  0.00  0.00    +0.307 C 
ATOM     23  O   LIG A   1       1.195   3.786   2.743  0.00  0.00    -0.251 OA
BRANCH  22  24
ATOM     24  O   LIG A   1      -0.415   2.959   4.176  0.00  0.00    -0.468 OA
ATOM     25  C   LIG A   1       0.480   1.914   4.491  0.00  0.00    +0.280 C 
ENDBRANCH  22  24
ENDBRANCH  21  22
ENDBRANCH  17  21
ENDBRANCH   3  17
BRANCH  14  26
ATOM     26  C   LIG A   1      -1.954  -0.165  -1.459  0.00  0.00    +0.049 C 
BRANCH  26  27
ATOM     27  C   LIG A   1      -1.988  -1.398  -2.349  0.00  0.00    -0.027 C 
ATOM     28  C   LIG A   1      -3.136  -1.938  -2.818  0.00  0.00    -0.080 C 
ATOM     29  C   LIG A   1      -4.478  -1.282  -2.620  0.00  0.00    +0.038 C 
ATOM     30  C   LIG A   1      -3.187  -3.264  -3.535  0.00  0.00    +0.038 C 
ENDBRANCH  26  27
ENDBRANCH  14  26
BRANCH  14  31
ATOM     31  C   LIG A   1      -0.779  -0.949   0.779  0.00  0.00    +0.031 C 
BRANCH  31  32
ATOM     32  C   LIG A   1      -0.663  -2.534   0.744  0.00  0.00    +0.019 C 
BRANCH  32  33
ATOM     33  C   LIG A   1      -1.117  -3.231   2.095  0.00  0.00    -0.076 C 
ATOM     34  C   LIG A   1      -2.516  -3.831   2.208  0.00  0.00    +0.038 C 
ATOM     35  C   LIG A   1      -0.358  -3.420   3.193  0.00  0.00    +0.007 C 
ENDBRANCH  32  33
BRANCH  32  36
ATOM     36  C   LIG A   1       0.747  -2.971   0.242  0.00  0.00    +0.035 C 
BRANCH  36  37
ATOM     37  C   LIG A   1       1.057  -4.448   0.154  0.00  0.00    -0.027 C 
ATOM     38  C   LIG A   1       2.276  -5.032   0.210  0.00  0.00    -0.080 C 
ATOM     39  C   LIG A   1       3.570  -4.299   0.446  0.00  0.00    +0.038 C 
ATOM     40  C   LIG A   1       2.425  -6.513  -0.037  0.00  0.00    +0.038 C 
ENDBRANCH  36  37
ENDBRANCH  32  36
ENDBRANCH  31  32
ENDBRANCH  14  31
TORSDOF 14
