@<TRIPOS>MOLECULE
NuBBE_11
 54 57 0 0 0
SMALL
GASTEIGER

@<TRIPOS>ATOM
      1 O          -0.2571    0.2065    1.1658 O.3     1  LIG1       -0.3335
      2 C          -0.7049    1.4486    1.6961 C.3     1  LIG1        0.1888
      3 H          -0.0792    2.2671    1.3247 H       1  LIG1        0.0938
      4 C          -2.1890    1.7519    1.4333 C.3     1  LIG1        0.1341
      5 H          -2.4022    1.8554    0.3657 H       1  LIG1        0.0671
      6 O          -2.5903    2.9905    2.0525 O.3     1  LIG1       -0.3841
      7 C          -3.0275    0.6174    2.0230 C.3     1  LIG1        0.1140
      8 H          -2.8408   -0.3200    1.4862 H       1  LIG1        0.0648
      9 O          -4.4269    0.8987    1.8637 O.3     1  LIG1       -0.3864
     10 C          -2.7309    0.4278    3.5158 C.3     1  LIG1        0.1095
     11 H          -3.1869    1.2523    4.0776 H       1  LIG1        0.0646
     12 C          -1.2158    0.3804    3.7856 C.3     1  LIG1        0.0873
     13 H          -0.7979   -0.5784    3.4534 H       1  LIG1        0.0621
     14 O          -0.5183    1.4528    3.1262 O.3     1  LIG1       -0.3431
     15 C          -0.9321    0.5018    5.2814 C.3     1  LIG1       -0.0361
     16 O          -3.3631   -0.7742    3.9676 O.3     1  LIG1       -0.3866
     17 C          -0.2912    0.0584   -0.2567 C.3     1  LIG1        0.1650
     18 H          -1.3199    0.1546   -0.6202 H       1  LIG1        0.0722
     19 C           0.2423   -1.3465   -0.5995 C.3     1  LIG1        0.1586
     20 H          -0.2685   -2.0519    0.0715 H       1  LIG1        0.0815
     21 O           1.6331   -1.5118   -0.2470 O.3     1  LIG1       -0.4802
     22 C           2.4621   -0.4486   -0.4806 C.ar    1  LIG1        0.1391
     23 C           2.0320    0.8064   -0.9150 C.ar    1  LIG1        0.1033
     24 C           0.5900    1.0688   -0.9519 C.2     1  LIG1        0.2027
     25 O           0.1607    2.1200   -1.4358 O.2     1  LIG1       -0.2889
     26 C           2.9640    1.7827   -1.2815 C.ar    1  LIG1        0.1344
     27 O           2.6073    2.9986   -1.7980 O.3     1  LIG1       -0.5058
     28 C           4.3258    1.5388   -1.1361 C.ar    1  LIG1        0.0222
     29 C           4.7436    0.3109   -0.6310 C.ar    1  LIG1        0.1238
     30 C           3.8252   -0.6883   -0.3194 C.ar    1  LIG1        0.0225
     31 O           6.0646    0.0389   -0.4361 O.3     1  LIG1       -0.5065
     32 C          -0.0611   -1.8117   -2.0241 C.ar    1  LIG1       -0.0007
     33 C           0.8072   -1.5406   -3.0969 C.ar    1  LIG1       -0.0098
     34 C           0.4995   -1.9732   -4.3812 C.ar    1  LIG1        0.1586
     35 O           1.3224   -1.7091   -5.4408 O.3     1  LIG1       -0.5033
     36 C          -0.6627   -2.6921   -4.6211 C.ar    1  LIG1        0.1582
     37 C          -1.5411   -2.9745   -3.5876 C.ar    1  LIG1       -0.0162
     38 C          -1.2467   -2.5279   -2.2929 C.ar    1  LIG1       -0.0513
     39 O          -0.9434   -3.1249   -5.8842 O.3     1  LIG1       -0.5033
     40 H          -1.9755    3.1500    2.7981 H       1  LIG1        0.2101
     41 H          -4.5163    1.8689    1.9682 H       1  LIG1        0.2100
     42 H          -1.3708   -0.3297    5.8413 H       1  LIG1        0.0255
     43 H          -1.3335    1.4406    5.6795 H       1  LIG1        0.0255
     44 H           0.1469    0.5188    5.4689 H       1  LIG1        0.0255
     45 H          -4.2689   -0.7508    3.5995 H       1  LIG1        0.2100
     46 H           1.6273    3.0336   -1.8750 H       1  LIG1        0.2922
     47 H           5.0379    2.3098   -1.4136 H       1  LIG1        0.0691
     48 H           4.1734   -1.6528    0.0414 H       1  LIG1        0.0691
     49 H           6.5796    0.8497   -0.5875 H       1  LIG1        0.2921
     50 H           1.7358   -1.0068   -2.9429 H       1  LIG1        0.0659
     51 H           2.0679   -1.1702   -5.1231 H       1  LIG1        0.2923
     52 H          -2.4460   -3.5413   -3.7887 H       1  LIG1        0.0655
     53 H          -1.9513   -2.7625   -1.4959 H       1  LIG1        0.0623
     54 H          -0.1883   -2.8127   -6.4228 H       1  LIG1        0.2923
@<TRIPOS>BOND
     1     1     2    1
     2     2     3    1
     3     2     4    1
     4     4     7    1
     5     7     8    1
     6     7     9    1
     7     7    10    1
     8    10    12    1
     9    12    13    1
    10    12    14    1
    11     2    14    1
    12    12    15    1
    13     1    17    1
    14    17    18    1
    15    17    19    1
    16    19    20    1
    17    19    21    1
    18    21    22    1
    19    22    23   ar
    20    23    24    1
    21    17    24    1
    22    24    25    2
    23    23    26   ar
    24    26    27    1
    25    26    28   ar
    26    28    29   ar
    27    29    30   ar
    28    22    30   ar
    29    29    31    1
    30    19    32    1
    31    32    33   ar
    32    33    34   ar
    33    34    35    1
    34    34    36   ar
    35    36    37   ar
    36    37    38   ar
    37    32    38   ar
    38    36    39    1
    39    10    16    1
    40    10    11    1
    41     4     6    1
    42     4     5    1
    43     6    40    1
    44     9    41    1
    45    15    42    1
    46    15    43    1
    47    15    44    1
    48    16    45    1
    49    27    46    1
    50    28    47    1
    51    30    48    1
    52    31    49    1
    53    33    50    1
    54    35    51    1
    55    37    52    1
    56    38    53    1
    57    39    54    1
