REMARK  Name = NuBBE_423
REMARK  16 active torsions:
REMARK  status: ('A' for Active; 'I' for Inactive)
REMARK    1  A    between atoms: N_3  and  C_4
REMARK    2  A    between atoms: C_4  and  C_5
REMARK    3  A    between atoms: C_6  and  C_7
REMARK    4  A    between atoms: C_6  and  C_8
REMARK    5  A    between atoms: C_8  and  C_9
REMARK    6  A    between atoms: C_9  and  C_10
REMARK    7  A    between atoms: C_11  and  C_12
REMARK    8  A    between atoms: C_11  and  C_13
REMARK    9  A    between atoms: N_14  and  C_15
REMARK   10  A    between atoms: C_15  and  C_16
REMARK   11  A    between atoms: C_17  and  C_18
REMARK   12  A    between atoms: C_17  and  C_24
REMARK   13  A    between atoms: C_18  and  C_19
REMARK   14  A    between atoms: C_19  and  C_20
REMARK   15  A    between atoms: C_21  and  C_22
REMARK   16  A    between atoms: C_21  and  C_23
REMARK                            x       y       z     vdW  Elec       q    Type
REMARK                         _______ _______ _______ _____ _____    ______ ____
ROOT
ATOM      1  N   LIG A   1      -2.124  -2.676   1.514  0.00  0.00    -0.130 NA
ATOM      2  C   LIG A   1      -2.497  -1.579   0.937  0.00  0.00    +0.379 C 
ATOM      3  N   LIG A   1      -1.837  -0.410   1.131  0.00  0.00    -0.273 N 
ATOM      4  N   LIG A   1      -3.395  -1.694  -0.070  0.00  0.00    -0.273 N 
ATOM      5  H   LIG A   1      -1.287  -2.511   2.078  0.00  0.00    +0.306 HD
ATOM      6  H   LIG A   1      -0.910  -0.510   1.531  0.00  0.00    +0.258 HD
ATOM      7  H   LIG A   1      -3.423  -2.655  -0.392  0.00  0.00    +0.258 HD
ENDROOT
BRANCH   3   8
ATOM      8  C   LIG A   1      -1.982   0.885   0.518  0.00  0.00    +0.223 C 
BRANCH   8   9
ATOM      9  C   LIG A   1      -1.569   1.682   1.586  0.00  0.00    +0.009 C 
ATOM     10  C   LIG A   1      -1.175   3.026   1.702  0.00  0.00    -0.073 C 
ATOM     11  C   LIG A   1      -1.192   3.301   3.142  0.00  0.00    +0.038 C 
BRANCH  10  12
ATOM     12  C   LIG A   1      -1.014   4.101   0.667  0.00  0.00    +0.034 C 
BRANCH  12  13
ATOM     13  C   LIG A   1       0.346   4.878   0.609  0.00  0.00    +0.031 C 
BRANCH  13  14
ATOM     14  C   LIG A   1       1.694   4.283   0.222  0.00  0.00    -0.028 C 
ATOM     15  C   LIG A   1       1.956   3.275  -0.621  0.00  0.00    -0.080 C 
ATOM     16  C   LIG A   1       0.866   2.625  -1.348  0.00  0.00    +0.038 C 
ATOM     17  C   LIG A   1       3.298   2.628  -0.867  0.00  0.00    +0.038 C 
ENDBRANCH  13  14
ENDBRANCH  12  13
ENDBRANCH  10  12
ENDBRANCH   8   9
ENDBRANCH   3   8
BRANCH   4  18
ATOM     18  C   LIG A   1      -3.525  -0.771  -1.155  0.00  0.00    +0.223 C 
BRANCH  18  19
ATOM     19  C   LIG A   1      -2.164  -0.442  -1.793  0.00  0.00    +0.009 C 
ATOM     20  C   LIG A   1      -0.867  -0.862  -1.590  0.00  0.00    -0.073 C 
ATOM     21  C   LIG A   1       0.237  -0.042  -2.160  0.00  0.00    +0.038 C 
BRANCH  20  22
ATOM     22  C   LIG A   1      -0.296  -1.915  -0.628  0.00  0.00    +0.034 C 
BRANCH  22  23
ATOM     23  C   LIG A   1       1.080  -2.516  -0.819  0.00  0.00    +0.031 C 
BRANCH  23  24
ATOM     24  C   LIG A   1       1.320  -3.542   0.272  0.00  0.00    -0.028 C 
ATOM     25  C   LIG A   1       1.976  -4.703   0.122  0.00  0.00    -0.080 C 
ATOM     26  C   LIG A   1       2.643  -5.108  -1.152  0.00  0.00    +0.038 C 
ATOM     27  C   LIG A   1       2.070  -5.685   1.257  0.00  0.00    +0.038 C 
ENDBRANCH  23  24
ENDBRANCH  22  23
ENDBRANCH  20  22
ENDBRANCH  18  19
ENDBRANCH   4  18
TORSDOF 10
