@<TRIPOS>MOLECULE
NuBBE_593
 27 28 0 0 0
SMALL
GASTEIGER

@<TRIPOS>ATOM
      1 C          -1.4336   -1.6083   -2.0595 C.3     1  LIG1       -0.0249
      2 C          -1.8532   -1.4000   -0.6011 C.3     1  LIG1        0.1305
      3 H          -2.9460   -1.4955   -0.5771 H       1  LIG1        0.0761
      4 O          -1.3343   -2.4758    0.1989 O.3     1  LIG1       -0.4552
      5 C          -1.4925   -0.0267   -0.0035 C.3     1  LIG1        0.1184
      6 H          -2.0678    0.1139    0.9194 H       1  LIG1        0.0681
      7 O          -1.8677    0.9894   -0.9342 O.3     1  LIG1       -0.3835
      8 C          -0.0264    0.0392    0.3504 C.ar    1  LIG1        0.0158
      9 C           0.6737    1.2509    0.5434 C.ar    1  LIG1        0.1066
     10 C          -0.0004    2.5632    0.6062 C.2     1  LIG1        0.3407
     11 O          -1.1221    2.5261    1.3398 O.3     1  LIG1       -0.4770
     12 O           0.4795    3.5999    0.1823 O.2     1  LIG1       -0.2450
     13 C           2.0663    1.2412    0.7279 C.ar    1  LIG1        0.1312
     14 O           2.8233    2.3782    0.8280 O.3     1  LIG1       -0.5059
     15 C           2.7569    0.0401    0.8337 C.ar    1  LIG1       -0.0186
     16 C           2.0589   -1.1626    0.7647 C.ar    1  LIG1       -0.0439
     17 C           0.6751   -1.1679    0.5296 C.ar    1  LIG1        0.0657
     18 C          -0.0250   -2.4832    0.5467 C.2     1  LIG1        0.3399
     19 O           0.5431   -3.5039    0.9070 O.2     1  LIG1       -0.2449
     20 H          -0.3535   -1.4924   -2.1938 H       1  LIG1        0.0266
     21 H          -1.9415   -0.9063   -2.7275 H       1  LIG1        0.0266
     22 H          -1.6812   -2.6260   -2.3811 H       1  LIG1        0.0266
     23 H          -1.1775    1.0646   -1.6157 H       1  LIG1        0.2104
     24 H          -1.4651    3.4442    1.3400 H       1  LIG1        0.2954
     25 H           2.2803    3.1562    0.5773 H       1  LIG1        0.2922
     26 H           3.8316    0.0411    0.9995 H       1  LIG1        0.0654
     27 H           2.5991   -2.0995    0.8986 H       1  LIG1        0.0627
@<TRIPOS>BOND
     1     2     4    1
     2     2     5    1
     3     5     8    1
     4     8     9   ar
     5     9    10    1
     6    10    11    1
     7    10    12    2
     8     9    13   ar
     9    13    14    1
    10    13    15   ar
    11    15    16   ar
    12    16    17   ar
    13     8    17   ar
    14    17    18    1
    15     4    18    1
    16    18    19    2
    17     2     3    1
    18     2     1    1
    19     5     7    1
    20     5     6    1
    21     1    20    1
    22     1    21    1
    23     1    22    1
    24     7    23    1
    25    11    24    1
    26    14    25    1
    27    15    26    1
    28    16    27    1
