@<TRIPOS>MOLECULE
NuBBE_2510
 33 37 0 0 0
SMALL
GASTEIGER

@<TRIPOS>ATOM
      1 O          -5.8812    0.4347   -1.0628 O.3     1  LIG1       -0.5066
      2 C          -4.5269    0.2998   -1.1537 C.ar    1  LIG1        0.1204
      3 C          -3.9571   -0.9143   -1.5193 C.ar    1  LIG1       -0.0196
      4 C          -2.5712   -1.0206   -1.5778 C.ar    1  LIG1       -0.0481
      5 C          -1.7547    0.0726   -1.2406 C.ar    1  LIG1        0.0352
      6 C          -0.2642   -0.0858   -1.2422 C.3     1  LIG1        0.1385
      7 H           0.0749   -0.3084   -2.2641 H       1  LIG1        0.0793
      8 C           0.5136    1.1278   -0.6940 C.3     1  LIG1        0.0631
      9 H           0.9356    1.7009   -1.5265 H       1  LIG1        0.0423
     10 C           1.5584    0.4094    0.0933 C.ar    1  LIG1        0.0082
     11 C           2.7396    0.8661    0.6613 C.ar    1  LIG1       -0.0090
     12 C           3.4749   -0.0768    1.3671 C.ar    1  LIG1        0.1667
     13 O           4.6764    0.1424    1.9708 O.3     1  LIG1       -0.4526
     14 C           4.9866   -1.1840    2.4544 C.3     1  LIG1        0.2332
     15 O           3.9154   -2.1278    2.2699 O.3     1  LIG1       -0.4525
     16 C           3.0487   -1.3836    1.5339 C.ar    1  LIG1        0.1697
     17 C           1.8776   -1.8473    0.9848 C.ar    1  LIG1        0.0259
     18 C           1.1729   -0.9251    0.2382 C.ar    1  LIG1        0.1288
     19 O           0.0240   -1.2472   -0.4232 O.3     1  LIG1       -0.4830
     20 C          -0.3914    2.0145    0.1558 C.3     1  LIG1        0.1002
     21 O          -1.5986    2.3768   -0.5328 O.3     1  LIG1       -0.4907
     22 C          -2.3457    1.2784   -0.8732 C.ar    1  LIG1        0.1307
     23 C          -3.7346    1.4048   -0.8519 C.ar    1  LIG1        0.0219
     24 H          -6.2873   -0.4347   -1.2154 H       1  LIG1        0.2921
     25 H          -4.5642   -1.7840   -1.7508 H       1  LIG1        0.0654
     26 H          -2.1170   -1.9716   -1.8539 H       1  LIG1        0.0624
     27 H           3.0838    1.8859    0.5578 H       1  LIG1        0.0659
     28 H           5.2238   -1.1253    3.5221 H       1  LIG1        0.1166
     29 H           5.8676   -1.5574    1.9182 H       1  LIG1        0.1166
     30 H           1.5397   -2.8664    1.1082 H       1  LIG1        0.0692
     31 H           0.1322    2.9475    0.3972 H       1  LIG1        0.0704
     32 H          -0.6544    1.5546    1.1167 H       1  LIG1        0.0704
     33 H          -4.1974    2.3442   -0.5673 H       1  LIG1        0.0691
@<TRIPOS>BOND
     1     1     2    1
     2     2     3   ar
     3     3     4   ar
     4     4     5   ar
     5     5     6    1
     6     6     7    1
     7     6     8    1
     8     8     9    1
     9     8    10    1
    10    10    11   ar
    11    11    12   ar
    12    12    13    1
    13    13    14    1
    14    14    15    1
    15    12    16   ar
    16    15    16    1
    17    16    17   ar
    18    17    18   ar
    19    10    18   ar
    20    18    19    1
    21     6    19    1
    22     8    20    1
    23    20    21    1
    24     5    22   ar
    25    21    22    1
    26    22    23   ar
    27     2    23   ar
    28     1    24    1
    29     3    25    1
    30     4    26    1
    31    11    27    1
    32    14    28    1
    33    14    29    1
    34    17    30    1
    35    20    31    1
    36    20    32    1
    37    23    33    1
