REMARK  Name = NuBBE_1389
REMARK  10 active torsions:
REMARK  status: ('A' for Active; 'I' for Inactive)
REMARK    1  A    between atoms: C_1  and  C_2
REMARK    2  A    between atoms: C_2  and  O_3
REMARK    3  A    between atoms: O_3  and  C_4
REMARK    4  A    between atoms: C_4  and  C_5
REMARK    5  A    between atoms: C_4  and  C_7
REMARK    6  A    between atoms: C_4  and  C_8
REMARK    7  A    between atoms: C_8  and  C_9
REMARK    8  A    between atoms: C_9  and  C_10
REMARK    9  A    between atoms: C_11  and  C_12
REMARK   10  A    between atoms: C_11  and  C_13
REMARK                            x       y       z     vdW  Elec       q    Type
REMARK                         _______ _______ _______ _____ _____    ______ ____
ROOT
ATOM      1  C   LIG A   1      -1.020   1.073  -0.369  0.00  0.00    +0.129 C 
ATOM      2  C   LIG A   1      -1.835   0.122  -1.263  0.00  0.00    +0.060 C 
ENDROOT
BRANCH   1   3
ATOM      3  C   LIG A   1      -1.861   1.988   0.508  0.00  0.00    +0.012 C 
ATOM      4  C   LIG A   1      -3.108   1.769   0.953  0.00  0.00    +0.008 C 
ENDBRANCH   1   3
BRANCH   1   5
ATOM      5  O   LIG A   1      -0.116   1.870  -1.184  0.00  0.00    -0.454 OA
BRANCH   5   7
ATOM      6  C   LIG A   1       0.590   3.345  -2.828  0.00  0.00    +0.136 C 
ATOM      7  C   LIG A   1      -0.588   2.755  -2.102  0.00  0.00    +0.305 C 
ATOM      8  O   LIG A   1      -1.750   3.041  -2.319  0.00  0.00    -0.251 OA
ENDBRANCH   5   7
ENDBRANCH   1   5
BRANCH   1   9
ATOM      9  C   LIG A   1      -0.081   0.269   0.569  0.00  0.00    +0.056 C 
BRANCH   9  10
ATOM     10  C   LIG A   1       0.975  -0.582  -0.154  0.00  0.00    +0.031 C 
BRANCH  10  11
ATOM     11  C   LIG A   1       1.870  -1.268   0.842  0.00  0.00    -0.028 C 
ATOM     12  C   LIG A   1       1.700  -2.492   1.379  0.00  0.00    -0.080 C 
ATOM     13  C   LIG A   1       0.559  -3.420   1.064  0.00  0.00    +0.038 C 
ATOM     14  C   LIG A   1       2.669  -3.021   2.402  0.00  0.00    +0.038 C 
ENDBRANCH  10  11
ENDBRANCH   9  10
ENDBRANCH   1   9
TORSDOF 6
