@<TRIPOS>MOLECULE
NuBBE_1075
 34 36 0 0 0
SMALL
GASTEIGER

@<TRIPOS>ATOM
      1 C          -1.8511    0.5647    0.9042 C.3     1  LIG1        0.0126
      2 N          -0.7215    0.5836   -0.0538 N.ar    1  LIG1       -0.3369
      3 C           0.0050   -0.6493   -0.0786 C.ar    1  LIG1        0.1025
      4 C           1.4095   -0.6225    0.0447 C.ar    1  LIG1        0.0909
      5 C           2.0955    0.6814    0.1880 C.ar    1  LIG1        0.2008
      6 O           3.3051    0.7125    0.4069 O.2     1  LIG1       -0.2864
      7 C           2.1530   -1.8100    0.0404 C.ar    1  LIG1        0.1334
      8 O           3.5151   -1.8440    0.1834 O.3     1  LIG1       -0.5059
      9 C           1.5240   -3.0364   -0.1255 C.ar    1  LIG1        0.0258
     10 C           0.1405   -3.0843   -0.2897 C.ar    1  LIG1        0.1641
     11 O          -0.4418   -4.3016   -0.5206 O.3     1  LIG1       -0.5032
     12 C          -0.6323   -1.9085   -0.2522 C.ar    1  LIG1        0.1857
     13 O          -1.9904   -1.8744   -0.4746 O.3     1  LIG1       -0.4895
     14 C          -2.7458   -2.9594    0.0539 C.3     1  LIG1        0.0791
     15 C          -0.0655    1.8384   -0.1313 C.ar    1  LIG1        0.0950
     16 C           1.3226    1.9266    0.0243 C.ar    1  LIG1        0.0495
     17 C           1.9832    3.1637    0.0106 C.ar    1  LIG1       -0.0487
     18 C           1.2577    4.3367   -0.1944 C.ar    1  LIG1       -0.0575
     19 C          -0.1154    4.2694   -0.4177 C.ar    1  LIG1       -0.0181
     20 C          -0.7549    3.0315   -0.4087 C.ar    1  LIG1        0.1409
     21 O          -2.0805    3.0127   -0.7549 O.3     1  LIG1       -0.5047
     22 H          -1.7332   -0.2103    1.6724 H       1  LIG1        0.0456
     23 H          -2.7918    0.3906    0.3708 H       1  LIG1        0.0456
     24 H          -1.9572    1.5059    1.4579 H       1  LIG1        0.0456
     25 H           3.8263   -0.9177    0.3116 H       1  LIG1        0.2922
     26 H           2.1297   -3.9376   -0.1411 H       1  LIG1        0.0692
     27 H           0.2530   -4.9731   -0.6272 H       1  LIG1        0.2923
     28 H          -3.7625   -2.5947    0.2320 H       1  LIG1        0.0660
     29 H          -2.3546   -3.3147    1.0136 H       1  LIG1        0.0660
     30 H          -2.8164   -3.7694   -0.6777 H       1  LIG1        0.0660
     31 H           3.0612    3.2122    0.1499 H       1  LIG1        0.0625
     32 H           1.7663    5.2974   -0.2098 H       1  LIG1        0.0619
     33 H          -0.6828    5.1725   -0.6257 H       1  LIG1        0.0655
     34 H          -2.2503    2.1082   -1.0811 H       1  LIG1        0.2922
@<TRIPOS>BOND
     1     1     2    1
     2     2     3   ar
     3     3     4   ar
     4     4     5   ar
     5     5     6    2
     6     4     7   ar
     7     7     8    1
     8     7     9   ar
     9     9    10   ar
    10    10    11    1
    11    10    12   ar
    12     3    12   ar
    13    12    13    1
    14    13    14    1
    15     2    15   ar
    16    15    16   ar
    17     5    16   ar
    18    16    17   ar
    19    17    18   ar
    20    18    19   ar
    21    15    20   ar
    22    19    20   ar
    23    20    21    1
    24     1    22    1
    25     1    23    1
    26     1    24    1
    27     8    25    1
    28     9    26    1
    29    11    27    1
    30    14    28    1
    31    14    29    1
    32    14    30    1
    33    17    31    1
    34    18    32    1
    35    19    33    1
    36    21    34    1
