@<TRIPOS>MOLECULE
NuBBE_72
 86 90 0 0 0
SMALL
GASTEIGER

@<TRIPOS>ATOM
      1 C           2.6101   -2.0304    0.9718 C.3     1  LIG1       -0.0590
      2 C           1.5713   -2.3164   -0.1249 C.3     1  LIG1       -0.0249
      3 C           0.1666   -2.8709    0.3797 C.3     1  LIG1       -0.0268
      4 C           0.1883   -4.1449    1.3297 C.3     1  LIG1        0.0055
      5 C           1.1135   -4.0771    2.5665 C.3     1  LIG1       -0.0562
      6 C           0.6352   -5.2991    0.3627 C.3     1  LIG1        0.1084
      7 H           0.7113   -6.2580    0.8891 H       1  LIG1        0.0739
      8 C           2.0031   -4.9503   -0.2923 C.3     1  LIG1       -0.0146
      9 C           2.1223   -3.5461   -0.9624 C.3     1  LIG1       -0.0437
     10 O          -0.3355   -5.4170   -0.7191 O.3     1  LIG1       -0.4610
     11 C          -1.4751   -6.0813   -0.4770 C.2     1  LIG1        0.3042
     12 C          -2.6833   -5.3062   -0.8871 C.3     1  LIG1        0.0332
     13 O          -1.5208   -7.1461    0.1521 O.2     1  LIG1       -0.2512
     14 C          -1.1867   -4.4245    1.9985 C.3     1  LIG1       -0.0562
     15 H          -0.2150   -3.2770   -0.5664 H       1  LIG1        0.0312
     16 C          -0.9836   -1.9059    0.6070 C.3     1  LIG1       -0.0483
     17 C          -1.1907   -1.1062   -0.6650 C.3     1  LIG1       -0.0433
     18 C           0.0444   -0.3813   -1.2329 C.3     1  LIG1       -0.0072
     19 C          -0.2499   -0.3140   -2.7602 C.3     1  LIG1       -0.0556
     20 C           1.4658   -1.0022   -1.0979 C.3     1  LIG1       -0.0262
     21 H           1.7218   -1.4167   -2.0848 H       1  LIG1        0.0314
     22 C           2.5894    0.2008   -0.9648 C.3     1  LIG1       -0.0481
     23 C           2.2179    1.7848   -1.0685 C.3     1  LIG1       -0.0433
     24 C           0.6997    2.1635   -1.1526 C.3     1  LIG1       -0.0072
     25 C           0.1763    0.9135   -0.4561 C.2     1  LIG1       -0.0611
     26 C           0.2975    0.9106    0.9045 C.2     1  LIG1       -0.0832
     27 C           0.7251    2.0617    1.7624 C.3     1  LIG1       -0.0288
     28 C           0.3054    3.4238    1.1900 C.3     1  LIG1       -0.0250
     29 C           1.4508    4.4288    1.4093 C.3     1  LIG1       -0.0590
     30 C          -0.0867    3.2680   -0.3042 C.3     1  LIG1       -0.0258
     31 H          -1.0582    2.7542   -0.2519 H       1  LIG1        0.0315
     32 C          -0.6085    4.5983   -0.8988 C.3     1  LIG1       -0.0437
     33 C          -1.8878    5.0821   -0.1297 C.3     1  LIG1       -0.0346
     34 C          -2.2920    6.4741   -0.6436 C.3     1  LIG1       -0.0598
     35 C          -1.6093    5.1626    1.3877 C.3     1  LIG1       -0.0473
     36 C          -0.9526    3.9081    1.9713 C.3     1  LIG1       -0.0466
     37 C          -3.0997    4.1455   -0.3940 C.3     1  LIG1       -0.0598
     38 C           0.4374    2.5010   -2.6350 C.3     1  LIG1       -0.0556
     39 H           3.5549   -1.6833    0.5405 H       1  LIG1        0.0235
     40 H           2.9407   -2.9102    1.5114 H       1  LIG1        0.0235
     41 H           2.2506   -1.2923    1.6927 H       1  LIG1        0.0235
     42 H           0.7735   -4.7578    3.3585 H       1  LIG1        0.0236
     43 H           1.1162   -3.0734    3.0043 H       1  LIG1        0.0236
     44 H           2.1332   -4.4097    2.3766 H       1  LIG1        0.0236
     45 H           2.2138   -5.6987   -1.0676 H       1  LIG1        0.0301
     46 H           2.8011   -5.0521    0.4496 H       1  LIG1        0.0301
     47 H           1.5740   -3.6011   -1.9131 H       1  LIG1        0.0272
     48 H           3.1718   -3.3730   -1.2337 H       1  LIG1        0.0272
     49 H          -2.4346   -4.2360   -0.9527 H       1  LIG1        0.0342
     50 H          -3.4519   -5.3831   -0.1024 H       1  LIG1        0.0342
     51 H          -3.0884   -5.6392   -1.8398 H       1  LIG1        0.0342
     52 H          -1.3722   -3.7119    2.8139 H       1  LIG1        0.0236
     53 H          -1.2140   -5.4293    2.4362 H       1  LIG1        0.0236
     54 H          -2.0405   -4.3438    1.3346 H       1  LIG1        0.0236
     55 H          -0.9057   -1.3526    1.5369 H       1  LIG1        0.0269
     56 H          -1.9327   -2.4374    0.7240 H       1  LIG1        0.0269
     57 H          -2.0184   -0.3970   -0.5205 H       1  LIG1        0.0274
     58 H          -1.5814   -1.8102   -1.4160 H       1  LIG1        0.0274
     59 H          -0.4601   -1.3155   -3.1602 H       1  LIG1        0.0238
     60 H           0.6125    0.0134   -3.3455 H       1  LIG1        0.0238
     61 H          -1.1177    0.3094   -2.9909 H       1  LIG1        0.0238
     62 H           3.3774   -0.0030   -1.7023 H       1  LIG1        0.0269
     63 H           3.0844    0.1366    0.0058 H       1  LIG1        0.0269
     64 H           2.7669    2.1857   -1.9319 H       1  LIG1        0.0274
     65 H           2.6923    2.2813   -0.2155 H       1  LIG1        0.0274
     66 H           0.2795    0.0032    1.4776 H       1  LIG1        0.0572
     67 H           1.8118    1.9910    1.8972 H       1  LIG1        0.0313
     68 H           0.3036    1.9181    2.7657 H       1  LIG1        0.0313
     69 H           2.3381    4.1656    0.8278 H       1  LIG1        0.0235
     70 H           1.7441    4.4532    2.4657 H       1  LIG1        0.0235
     71 H           1.1757    5.4495    1.1317 H       1  LIG1        0.0235
     72 H          -0.8970    4.4909   -1.9484 H       1  LIG1        0.0274
     73 H           0.1758    5.3617   -0.8711 H       1  LIG1        0.0274
     74 H          -1.4913    7.2036   -0.4896 H       1  LIG1        0.0235
     75 H          -3.1838    6.8405   -0.1209 H       1  LIG1        0.0235
     76 H          -2.5245    6.4449   -1.7140 H       1  LIG1        0.0235
     77 H          -2.5460    5.3480    1.9300 H       1  LIG1        0.0271
     78 H          -0.9670    6.0253    1.5991 H       1  LIG1        0.0271
     79 H          -1.6988    3.1017    1.9979 H       1  LIG1        0.0271
     80 H          -0.6919    4.1005    3.0203 H       1  LIG1        0.0271
     81 H          -3.2418    3.9803   -1.4682 H       1  LIG1        0.0235
     82 H          -4.0265    4.5793   -0.0007 H       1  LIG1        0.0235
     83 H          -3.0039    3.1633    0.0789 H       1  LIG1        0.0235
     84 H           1.0124    1.8920   -3.3348 H       1  LIG1        0.0238
     85 H           0.7903    3.5174   -2.8535 H       1  LIG1        0.0238
     86 H          -0.6227    2.4450   -2.8964 H       1  LIG1        0.0238
@<TRIPOS>BOND
     1     2     3    1
     2     3     4    1
     3     4     6    1
     4     6     8    1
     5     8     9    1
     6     2     9    1
     7    10    11    1
     8    11    12    1
     9    11    13    2
    10     3    16    1
    11    16    17    1
    12    17    18    1
    13    18    20    1
    14     2    20    1
    15    20    22    1
    16    22    23    1
    17    23    24    1
    18    24    25    1
    19    18    25    1
    20    25    26    2
    21    26    27    1
    22    27    28    1
    23    28    30    1
    24    24    30    1
    25    30    32    1
    26    32    33    1
    27    33    35    1
    28    35    36    1
    29    28    36    1
    30     1     2    1
    31     3    15    1
    32     4     5    1
    33     4    14    1
    34     6     7    1
    35     6    10    1
    36    18    19    1
    37    20    21    1
    38    24    38    1
    39    28    29    1
    40    30    31    1
    41    33    34    1
    42    33    37    1
    43     1    39    1
    44     1    40    1
    45     1    41    1
    46     5    42    1
    47     5    43    1
    48     5    44    1
    49     8    45    1
    50     8    46    1
    51     9    47    1
    52     9    48    1
    53    12    49    1
    54    12    50    1
    55    12    51    1
    56    14    52    1
    57    14    53    1
    58    14    54    1
    59    16    55    1
    60    16    56    1
    61    17    57    1
    62    17    58    1
    63    19    59    1
    64    19    60    1
    65    19    61    1
    66    22    62    1
    67    22    63    1
    68    23    64    1
    69    23    65    1
    70    26    66    1
    71    27    67    1
    72    27    68    1
    73    29    69    1
    74    29    70    1
    75    29    71    1
    76    32    72    1
    77    32    73    1
    78    34    74    1
    79    34    75    1
    80    34    76    1
    81    35    77    1
    82    35    78    1
    83    36    79    1
    84    36    80    1
    85    37    81    1
    86    37    82    1
    87    37    83    1
    88    38    84    1
    89    38    85    1
    90    38    86    1
