@<TRIPOS>MOLECULE
NuBBE_307
 61 61 0 0 0
SMALL
GASTEIGER

@<TRIPOS>ATOM
      1 H          -1.7386    2.4368   -2.8878 H       1  LIG1        0.1226
      2 N          -2.0353    1.6929   -2.2478 N.3     1  LIG1       -0.3074
      3 C          -3.4946    1.7632   -2.0720 C.3     1  LIG1        0.0422
      4 C          -3.7905    3.1101   -1.4155 C.3     1  LIG1       -0.0462
      5 C          -4.2618    1.5357   -3.4067 C.3     1  LIG1        0.1181
      6 O          -5.6771    1.3514   -3.1657 O.3     1  LIG1       -0.4600
      7 C          -6.4496    2.4675   -3.0776 C.2     1  LIG1        0.3043
      8 C          -7.8762    2.0981   -2.8211 C.3     1  LIG1        0.0332
      9 O          -6.0629    3.6164   -3.2204 O.2     1  LIG1       -0.2512
     10 C          -3.7729    0.2488   -4.0896 C.3     1  LIG1       -0.0128
     11 C          -2.2497    0.1298   -4.1245 C.3     1  LIG1       -0.0341
     12 C          -1.5816    0.4008   -2.7633 C.3     1  LIG1        0.0081
     13 C          -1.7816   -0.7444   -1.7406 C.3     1  LIG1       -0.0375
     14 C          -1.1960   -0.4668   -0.3422 C.3     1  LIG1       -0.0516
     15 C           0.3271   -0.2893   -0.3091 C.3     1  LIG1       -0.0530
     16 C           0.8166   -0.0035    1.1186 C.3     1  LIG1       -0.0531
     17 C           2.3375    0.1942    1.1818 C.3     1  LIG1       -0.0531
     18 C           2.8010    0.5692    2.5955 C.3     1  LIG1       -0.0531
     19 C           4.3209    0.7322    2.7352 C.3     1  LIG1       -0.0530
     20 C           5.1694   -0.5238    2.4943 C.3     1  LIG1       -0.0527
     21 C           4.8641   -1.6857    3.4449 C.3     1  LIG1       -0.0464
     22 C           5.7638   -2.8879    3.1610 C.3     1  LIG1        0.0055
     23 C           5.4566   -4.0330    4.1045 C.2     1  LIG1        0.1303
     24 C           6.2288   -4.1045    5.3952 C.3     1  LIG1       -0.0061
     25 O           4.6150   -4.8865    3.8211 O.2     1  LIG1       -0.2977
     26 H          -3.8237    1.0042   -1.3515 H       1  LIG1        0.0494
     27 H          -3.6829    3.9390   -2.1227 H       1  LIG1        0.0246
     28 H          -3.1057    3.2970   -0.5765 H       1  LIG1        0.0246
     29 H          -4.8000    3.1284   -0.9944 H       1  LIG1        0.0246
     30 H          -4.0971    2.3790   -4.0911 H       1  LIG1        0.0749
     31 H          -8.4123    2.0431   -3.7679 H       1  LIG1        0.0342
     32 H          -8.3276    2.8595   -2.1742 H       1  LIG1        0.0342
     33 H          -7.9435    1.1359   -2.2991 H       1  LIG1        0.0342
     34 H          -4.1660    0.2097   -5.1144 H       1  LIG1        0.0302
     35 H          -4.2004   -0.6276   -3.5858 H       1  LIG1        0.0302
     36 H          -1.8626    0.8546   -4.8536 H       1  LIG1        0.0281
     37 H          -1.9643   -0.8616   -4.4963 H       1  LIG1        0.0281
     38 H          -0.5078    0.4781   -2.9497 H       1  LIG1        0.0460
     39 H          -1.3332   -1.6636   -2.1390 H       1  LIG1        0.0280
     40 H          -2.8480   -0.9660   -1.6165 H       1  LIG1        0.0280
     41 H          -1.4671   -1.3058    0.3110 H       1  LIG1        0.0266
     42 H          -1.6757    0.4196    0.0901 H       1  LIG1        0.0266
     43 H           0.6265    0.5397   -0.9594 H       1  LIG1        0.0265
     44 H           0.8096   -1.1961   -0.6925 H       1  LIG1        0.0265
     45 H           0.5308   -0.8348    1.7748 H       1  LIG1        0.0265
     46 H           0.3140    0.8941    1.4995 H       1  LIG1        0.0265
     47 H           2.6313    0.9887    0.4852 H       1  LIG1        0.0265
     48 H           2.8289   -0.7272    0.8537 H       1  LIG1        0.0265
     49 H           2.4354   -0.1646    3.3220 H       1  LIG1        0.0265
     50 H           2.3367    1.5260    2.8694 H       1  LIG1        0.0265
     51 H           4.5354    1.1103    3.7431 H       1  LIG1        0.0265
     52 H           4.6575    1.5127    2.0405 H       1  LIG1        0.0265
     53 H           6.2239   -0.2426    2.6144 H       1  LIG1        0.0265
     54 H           5.0578   -0.8534    1.4554 H       1  LIG1        0.0265
     55 H           3.8182   -1.9945    3.3411 H       1  LIG1        0.0269
     56 H           4.9958   -1.3600    4.4841 H       1  LIG1        0.0269
     57 H           6.8244   -2.6285    3.2526 H       1  LIG1        0.0341
     58 H           5.6135   -3.2483    2.1366 H       1  LIG1        0.0341
     59 H           6.6579   -3.1305    5.6417 H       1  LIG1        0.0306
     60 H           7.0322   -4.8394    5.2952 H       1  LIG1        0.0306
     61 H           5.5553   -4.3968    6.2057 H       1  LIG1        0.0306
@<TRIPOS>BOND
     1     1     2    1
     2     2     3    1
     3     3     4    1
     4     3     5    1
     5     5     6    1
     6     6     7    1
     7     7     8    1
     8     7     9    2
     9     5    10    1
    10    10    11    1
    11    11    12    1
    12     2    12    1
    13    12    13    1
    14    13    14    1
    15    14    15    1
    16    15    16    1
    17    16    17    1
    18    17    18    1
    19    18    19    1
    20    19    20    1
    21    20    21    1
    22    21    22    1
    23    22    23    1
    24    23    24    1
    25    23    25    2
    26     3    26    1
    27     4    27    1
    28     4    28    1
    29     4    29    1
    30     5    30    1
    31     8    31    1
    32     8    32    1
    33     8    33    1
    34    10    34    1
    35    10    35    1
    36    11    36    1
    37    11    37    1
    38    12    38    1
    39    13    39    1
    40    13    40    1
    41    14    41    1
    42    14    42    1
    43    15    43    1
    44    15    44    1
    45    16    45    1
    46    16    46    1
    47    17    47    1
    48    17    48    1
    49    18    49    1
    50    18    50    1
    51    19    51    1
    52    19    52    1
    53    20    53    1
    54    20    54    1
    55    21    55    1
    56    21    56    1
    57    22    57    1
    58    22    58    1
    59    24    59    1
    60    24    60    1
    61    24    61    1
