REMARK  Name = NuBBE_661
REMARK  6 active torsions:
REMARK  status: ('A' for Active; 'I' for Inactive)
REMARK    1  A    between atoms: C_5  and  C_14
REMARK    2  A    between atoms: C_6  and  O_7
REMARK    3  A    between atoms: O_7  and  C_8
REMARK    4  A    between atoms: C_17  and  C_18
REMARK    5  A    between atoms: C_18  and  C_19
REMARK    6  A    between atoms: C_18  and  C_20
REMARK                            x       y       z     vdW  Elec       q    Type
REMARK                         _______ _______ _______ _____ _____    ______ ____
ROOT
ATOM      1  O   LIG A   1       2.763  -2.927  -0.908  0.00  0.00    -0.245 OA
ATOM      2  C   LIG A   1       2.223  -2.419   0.062  0.00  0.00    +0.337 A 
ATOM      3  O   LIG A   1       1.442  -1.276  -0.035  0.00  0.00    -0.422 OA
ATOM      4  C   LIG A   1       0.819  -0.688   1.096  0.00  0.00    +0.148 A 
ATOM      5  C   LIG A   1       0.061   0.482   0.886  0.00  0.00    +0.068 A 
ATOM      6  C   LIG A   1      -0.509   1.070   2.042  0.00  0.00    +0.129 A 
ATOM      7  C   LIG A   1      -0.333   0.487   3.308  0.00  0.00    +0.047 A 
ATOM      8  C   LIG A   1       0.405  -0.683   3.462  0.00  0.00    +0.015 A 
ATOM      9  C   LIG A   1       0.994  -1.274   2.353  0.00  0.00    +0.018 A 
ATOM     10  C   LIG A   1       1.798  -2.476   2.485  0.00  0.00    +0.018 A 
ATOM     11  C   LIG A   1       2.374  -3.006   1.404  0.00  0.00    +0.092 A 
ENDROOT
BRANCH   5  12
ATOM     12  C   LIG A   1      -0.096   1.086  -0.497  0.00  0.00    +0.185 C 
ATOM     13  O   LIG A   1      -1.436   1.200  -1.008  0.00  0.00    -0.363 OA
ATOM     14  C   LIG A   1      -0.592   0.266  -1.686  0.00  0.00    +0.155 C 
BRANCH  14  15
ATOM     15  C   LIG A   1      -0.264   0.660  -3.107  0.00  0.00    +0.014 C 
ATOM     16  C   LIG A   1       0.718  -0.329  -3.736  0.00  0.00    +0.010 C 
ATOM     17  C   LIG A   1      -1.535   0.746  -3.955  0.00  0.00    +0.010 C 
ENDBRANCH  14  15
ENDBRANCH   5  12
BRANCH   6  18
ATOM     18  O   LIG A   1      -1.171   2.264   1.872  0.00  0.00    -0.495 OA
ATOM     19  C   LIG A   1      -2.203   2.542   2.816  0.00  0.00    +0.277 C 
ENDBRANCH   6  18
TORSDOF 3
