REMARK  Name = NuBBE_2387
REMARK  7 active torsions:
REMARK  status: ('A' for Active; 'I' for Inactive)
REMARK    1  A    between atoms: C_1  and  C_2
REMARK    2  A    between atoms: C_6  and  C_10
REMARK    3  A    between atoms: C_7  and  O_9
REMARK    4  A    between atoms: C_10  and  C_11
REMARK    5  A    between atoms: C_10  and  C_12
REMARK    6  A    between atoms: C_18  and  C_19
REMARK    7  A    between atoms: C_18  and  C_20
REMARK                            x       y       z     vdW  Elec       q    Type
REMARK                         _______ _______ _______ _____ _____    ______ ____
ROOT
ATOM      1  C   LIG A   1      -2.414  -0.103   0.665  0.00  0.00    +0.016 C 
ATOM      2  C   LIG A   1      -0.899  -0.405   0.872  0.00  0.00    -0.003 C 
ATOM      3  C   LIG A   1      -0.163   0.649   0.016  0.00  0.00    -0.027 A 
ATOM      4  C   LIG A   1       0.585   0.315  -1.118  0.00  0.00    +0.022 A 
ATOM      5  C   LIG A   1       1.162   1.300  -1.941  0.00  0.00    +0.019 A 
ATOM      6  C   LIG A   1       1.036   2.667  -1.649  0.00  0.00    -0.003 A 
ATOM      7  C   LIG A   1       0.274   3.003  -0.524  0.00  0.00    +0.121 A 
ATOM      8  C   LIG A   1      -0.300   2.022   0.294  0.00  0.00    +0.050 A 
ATOM      9  C   LIG A   1       0.833  -1.099  -1.448  0.00  0.00    +0.164 C 
ATOM     10  O   LIG A   1       1.208  -1.440  -2.563  0.00  0.00    -0.292 OA
ATOM     11  C   LIG A   1       0.722  -2.055  -0.299  0.00  0.00    +0.084 C 
ATOM     12  C   LIG A   1      -0.619  -1.899   0.431  0.00  0.00    +0.012 C 
ATOM     13  C   LIG A   1      -0.763  -2.988   1.579  0.00  0.00    -0.031 C 
ATOM     14  C   LIG A   1       0.584  -3.416   2.215  0.00  0.00    +0.011 C 
ATOM     15  C   LIG A   1      -1.389  -4.265   0.970  0.00  0.00    +0.011 C 
ATOM     16  C   LIG A   1      -1.685  -2.503   2.712  0.00  0.00    +0.007 C 
ATOM     17  C   LIG A   1      -1.264  -1.167   3.317  0.00  0.00    +0.001 C 
ATOM     18  C   LIG A   1      -0.519  -0.236   2.361  0.00  0.00    +0.012 C 
ENDROOT
BRANCH   6  19
ATOM     19  C   LIG A   1       1.688   3.716  -2.536  0.00  0.00    +0.016 C 
ATOM     20  C   LIG A   1       0.761   4.075  -3.699  0.00  0.00    +0.012 C 
ATOM     21  C   LIG A   1       3.074   3.319  -3.063  0.00  0.00    +0.012 C 
ENDBRANCH   6  19
BRANCH   7  22
ATOM     22  O   LIG A   1       0.015   4.292  -0.151  0.00  0.00    -0.506 OA
ATOM     23  H   LIG A   1       0.168   4.882  -0.905  0.00  0.00    +0.292 HD
ENDBRANCH   7  22
TORSDOF 2
