REMARK  Name = NuBBE_1414
REMARK  6 active torsions:
REMARK  status: ('A' for Active; 'I' for Inactive)
REMARK    1  A    between atoms: C_9  and  C_11
REMARK    2  A    between atoms: C_11  and  C_12
REMARK    3  A    between atoms: C_26  and  O_27
REMARK    4  A    between atoms: O_27  and  C_28
REMARK    5  A    between atoms: C_29  and  O_30
REMARK    6  A    between atoms: O_30  and  C_31
REMARK                            x       y       z     vdW  Elec       q    Type
REMARK                         _______ _______ _______ _____ _____    ______ ____
ROOT
ATOM      1  O   LIG A   1      -3.267  -0.298   0.779  0.00  0.00    -0.291 OA
ATOM      2  C   LIG A   1      -2.049  -0.276   0.902  0.00  0.00    +0.178 C 
ATOM      3  C   LIG A   1      -1.283   0.949   0.616  0.00  0.00    +0.060 A 
ATOM      4  C   LIG A   1      -1.911   2.040  -0.019  0.00  0.00    +0.019 A 
ATOM      5  C   LIG A   1      -1.180   3.192  -0.314  0.00  0.00    +0.047 A 
ATOM      6  C   LIG A   1       0.152   3.212   0.041  0.00  0.00    +0.128 A 
ATOM      7  C   LIG A   1       0.779   2.122   0.629  0.00  0.00    +0.040 A 
ATOM      8  C   LIG A   1       2.221   2.428   0.782  0.00  0.00    +0.091 C 
ATOM      9  C   LIG A   1       2.145   3.966   0.697  0.00  0.00    +0.203 C 
ATOM     10  O   LIG A   1       0.980   4.295  -0.119  0.00  0.00    -0.484 OA
ATOM     11  C   LIG A   1       0.071   0.980   0.944  0.00  0.00    +0.138 A 
ATOM     12  O   LIG A   1       0.749  -0.038   1.541  0.00  0.00    -0.483 OA
ATOM     13  C   LIG A   1      -0.073  -1.055   2.139  0.00  0.00    +0.226 C 
ATOM     14  C   LIG A   1       0.808  -2.278   2.391  0.00  0.00    +0.274 C 
ATOM     15  O   LIG A   1       1.340  -2.856   1.190  0.00  0.00    -0.488 OA
ATOM     16  C   LIG A   1       0.495  -2.905   0.115  0.00  0.00    +0.128 A 
ATOM     17  C   LIG A   1      -0.754  -2.286   0.076  0.00  0.00    +0.012 A 
ATOM     18  C   LIG A   1      -1.243  -1.499   1.268  0.00  0.00    +0.138 C 
ATOM     19  C   LIG A   1      -1.537  -2.409  -1.085  0.00  0.00    +0.057 A 
ATOM     20  C   LIG A   1      -1.071  -3.098  -2.212  0.00  0.00    +0.162 A 
ATOM     21  C   LIG A   1       0.200  -3.689  -2.172  0.00  0.00    +0.165 A 
ATOM     22  C   LIG A   1       0.971  -3.584  -1.006  0.00  0.00    +0.095 A 
ENDROOT
BRANCH   9  23
ATOM     23  C   LIG A   1       2.045   4.725   2.025  0.00  0.00    -0.040 C 
ATOM     24  C   LIG A   1       1.978   6.225   1.910  0.00  0.00    +0.042 C 
ATOM     25  C   LIG A   1       2.012   4.151   3.242  0.00  0.00    +0.011 C 
ENDBRANCH   9  23
BRANCH  20  26
ATOM     26  O   LIG A   1      -1.782  -3.138  -3.381  0.00  0.00    -0.491 OA
ATOM     27  C   LIG A   1      -3.198  -3.051  -3.276  0.00  0.00    +0.277 C 
ENDBRANCH  20  26
BRANCH  21  28
ATOM     28  O   LIG A   1       0.837  -4.358  -3.187  0.00  0.00    -0.491 OA
ATOM     29  C   LIG A   1       0.016  -5.015  -4.144  0.00  0.00    +0.277 C 
ENDBRANCH  21  28
TORSDOF 3
