REMARK  Name = NuBBE_2109
REMARK  13 active torsions:
REMARK  status: ('A' for Active; 'I' for Inactive)
REMARK    1  A    between atoms: C_1  and  C_2
REMARK    2  A    between atoms: C_2  and  C_3
REMARK    3  A    between atoms: C_3  and  C_4
REMARK    4  A    between atoms: C_4  and  C_5
REMARK    5  A    between atoms: C_5  and  C_6
REMARK    6  A    between atoms: C_6  and  C_7
REMARK    7  A    between atoms: C_7  and  C_8
REMARK    8  A    between atoms: C_8  and  C_9
REMARK    9  A    between atoms: C_9  and  C_10
REMARK   10  A    between atoms: C_10  and  C_11
REMARK   11  A    between atoms: C_11  and  C_12
REMARK   12  A    between atoms: C_12  and  C_13
REMARK   13  A    between atoms: C_13  and  C_14
REMARK                            x       y       z     vdW  Elec       q    Type
REMARK                         _______ _______ _______ _____ _____    ______ ____
ROOT
ATOM      1  C   LIG A   1      -3.313  -0.693  -1.040  0.00  0.00    -0.000 C 
ENDROOT
BRANCH   1   2
ATOM      2  C   LIG A   1      -3.152  -0.543   0.498  0.00  0.00    -0.000 C 
BRANCH   2   3
ATOM      3  C   LIG A   1      -2.197  -1.466   1.360  0.00  0.00    -0.000 C 
BRANCH   3   4
ATOM      4  C   LIG A   1      -0.640  -1.260   1.554  0.00  0.00    -0.000 C 
BRANCH   4   5
ATOM      5  C   LIG A   1       0.356  -2.095   0.669  0.00  0.00    -0.000 C 
BRANCH   5   7
ATOM      6  C   LIG A   1       2.863  -1.850   1.238  0.00  0.00    +0.004 C 
ATOM      7  C   LIG A   1       1.755  -1.514   0.285  0.00  0.00    -0.003 C 
ENDBRANCH   5   7
ENDBRANCH   4   5
ENDBRANCH   3   4
ENDBRANCH   2   3
ENDBRANCH   1   2
BRANCH   1   8
ATOM      8  C   LIG A   1      -2.274   0.073  -1.883  0.00  0.00    -0.000 C 
BRANCH   8   9
ATOM      9  C   LIG A   1      -0.952  -0.497  -1.501  0.00  0.00    -0.000 C 
BRANCH   9  10
ATOM     10  C   LIG A   1       0.326   0.111  -2.021  0.00  0.00    -0.000 C 
BRANCH  10  11
ATOM     11  C   LIG A   1       0.857   1.365  -1.271  0.00  0.00    -0.000 C 
BRANCH  11  12
ATOM     12  C   LIG A   1       0.707   1.645   0.263  0.00  0.00    -0.000 C 
BRANCH  12  13
ATOM     13  C   LIG A   1       1.222   3.028   0.739  0.00  0.00    -0.003 C 
ATOM     14  C   LIG A   1       2.682   3.290   0.406  0.00  0.00    +0.004 C 
ENDBRANCH  12  13
ENDBRANCH  11  12
ENDBRANCH  10  11
ENDBRANCH   9  10
ENDBRANCH   8   9
ENDBRANCH   1   8
TORSDOF 11
