REMARK  Name = NuBBE_1337
REMARK  9 active torsions:
REMARK  status: ('A' for Active; 'I' for Inactive)
REMARK    1  A    between atoms: O_1  and  C_2
REMARK    2  A    between atoms: O_1  and  C_12
REMARK    3  A    between atoms: C_2  and  C_3
REMARK    4  A    between atoms: C_4  and  C_5
REMARK    5  A    between atoms: C_4  and  C_11
REMARK    6  A    between atoms: C_5  and  C_6
REMARK    7  A    between atoms: C_6  and  C_7
REMARK    8  A    between atoms: C_8  and  C_9
REMARK    9  A    between atoms: C_8  and  C_10
REMARK                            x       y       z     vdW  Elec       q    Type
REMARK                         _______ _______ _______ _____ _____    ______ ____
ROOT
ATOM      1  O   LIG A   1       2.087   1.274   0.146  0.00  0.00    -0.488 OA
ENDROOT
BRANCH   1   2
ATOM      2  C   LIG A   1       3.158   0.589  -0.368  0.00  0.00    +0.124 A 
ATOM      3  C   LIG A   1       3.954  -0.300   0.350  0.00  0.00    +0.092 A 
ATOM      4  C   LIG A   1       5.015  -0.937  -0.292  0.00  0.00    +0.142 A 
ATOM      5  O   LIG A   1       5.785  -1.818   0.497  0.00  0.00    -0.422 OA
ATOM      6  C   LIG A   1       6.881  -2.476  -0.037  0.00  0.00    +0.337 A 
ATOM      7  O   LIG A   1       7.583  -3.228   0.637  0.00  0.00    -0.245 OA
ATOM      8  C   LIG A   1       7.176  -2.244  -1.459  0.00  0.00    +0.092 A 
ATOM      9  C   LIG A   1       6.445  -1.420  -2.220  0.00  0.00    +0.018 A 
ATOM     10  C   LIG A   1       5.316  -0.715  -1.633  0.00  0.00    +0.018 A 
ATOM     11  C   LIG A   1       4.524   0.184  -2.349  0.00  0.00    +0.015 A 
ATOM     12  C   LIG A   1       3.457   0.839  -1.713  0.00  0.00    +0.046 A 
ENDBRANCH   1   2
BRANCH   1  13
ATOM     13  C   LIG A   1       1.472   0.693   1.303  0.00  0.00    +0.257 C 
BRANCH  13  14
ATOM     14  C   LIG A   1       0.037   1.141   1.358  0.00  0.00    +0.012 C 
ATOM     15  C   LIG A   1      -1.074   0.373   1.382  0.00  0.00    -0.073 C 
ATOM     16  C   LIG A   1      -1.073  -1.134   1.327  0.00  0.00    +0.038 C 
BRANCH  15  17
ATOM     17  C   LIG A   1      -2.452   1.013   1.500  0.00  0.00    +0.034 C 
BRANCH  17  18
ATOM     18  C   LIG A   1      -3.382   0.668   0.325  0.00  0.00    +0.031 C 
BRANCH  18  19
ATOM     19  C   LIG A   1      -4.739   1.315   0.442  0.00  0.00    -0.028 C 
ATOM     20  C   LIG A   1      -5.898   0.831  -0.049  0.00  0.00    -0.080 C 
ATOM     21  C   LIG A   1      -6.039  -0.447  -0.833  0.00  0.00    +0.038 C 
ATOM     22  C   LIG A   1      -7.193   1.575   0.146  0.00  0.00    +0.038 C 
ENDBRANCH  18  19
ENDBRANCH  17  18
ENDBRANCH  15  17
ENDBRANCH  13  14
ENDBRANCH   1  13
TORSDOF 6
