@<TRIPOS>MOLECULE
NuBBE_1384
 17 16 0 0 0
SMALL
GASTEIGER

@<TRIPOS>ATOM
      1 C          -2.6079   -0.9480   -0.3492 C.3     1  LIG1       -0.0650
      2 C          -1.0863   -0.9642   -0.3368 C.3     1  LIG1       -0.0525
      3 C          -0.5051    0.4456   -0.2114 C.3     1  LIG1       -0.0346
      4 C           0.9985    0.4323   -0.2305 C.2     1  LIG1       -0.0810
      5 C           1.7576    0.9049    0.7702 C.2     1  LIG1       -0.0264
      6 C           3.2308    0.8857    0.6645 C.2     1  LIG1        0.1428
      7 O           3.9422    1.3179    1.5643 O.2     1  LIG1       -0.2963
      8 H          -2.9947   -1.9682   -0.4405 H       1  LIG1        0.0230
      9 H          -2.9881   -0.3658   -1.1947 H       1  LIG1        0.0230
     10 H          -3.0064   -0.5160    0.5743 H       1  LIG1        0.0230
     11 H          -0.7321   -1.4397   -1.2595 H       1  LIG1        0.0266
     12 H          -0.7423   -1.5855    0.4987 H       1  LIG1        0.0266
     13 H          -0.8741    0.9146    0.7088 H       1  LIG1        0.0307
     14 H          -0.8537    1.0653   -1.0464 H       1  LIG1        0.0307
     15 H           1.4641    0.0296   -1.1281 H       1  LIG1        0.0573
     16 H           1.3482    1.3234    1.6822 H       1  LIG1        0.0646
     17 H           3.6493    0.4681   -0.2658 H       1  LIG1        0.1075
@<TRIPOS>BOND
     1     1     2    1
     2     2     3    1
     3     3     4    1
     4     4     5    2
     5     5     6    1
     6     6     7    2
     7     1     8    1
     8     1     9    1
     9     1    10    1
    10     2    11    1
    11     2    12    1
    12     3    13    1
    13     3    14    1
    14     4    15    1
    15     5    16    1
    16     6    17    1
