@<TRIPOS>MOLECULE
NuBBE_563
 32 34 0 0 0
SMALL
GASTEIGER

@<TRIPOS>ATOM
      1 O          -4.9807   -2.1899    0.5394 O.3     1  LIG1       -0.5066
      2 C          -3.6228   -2.2995    0.4864 C.ar    1  LIG1        0.1204
      3 C          -2.9902   -3.5311    0.6416 C.ar    1  LIG1       -0.0193
      4 C          -1.5976   -3.5998    0.5693 C.ar    1  LIG1       -0.0443
      5 C          -0.8572   -2.4332    0.3503 C.ar    1  LIG1        0.0594
      6 C           0.6109   -2.4891    0.2095 C.2     1  LIG1        0.1705
      7 C           1.2966   -1.2033   -0.1554 C.3     1  LIG1        0.0519
      8 C           0.5251   -0.0535    0.4781 C.3     1  LIG1        0.1323
      9 H           0.4890   -0.1603    1.5725 H       1  LIG1        0.0789
     10 C           1.1919    1.2728    0.1528 C.ar    1  LIG1       -0.0033
     11 C           0.8845    1.9789   -1.0248 C.ar    1  LIG1       -0.0099
     12 C           1.5337    3.1778   -1.3008 C.ar    1  LIG1        0.1586
     13 O           1.2619    3.9032   -2.4281 O.3     1  LIG1       -0.5033
     14 C           2.4927    3.6780   -0.4256 C.ar    1  LIG1        0.1582
     15 O           3.1269    4.8536   -0.7077 O.3     1  LIG1       -0.5033
     16 C           2.8169    2.9957    0.7360 C.ar    1  LIG1       -0.0162
     17 C           2.1681    1.7929    1.0247 C.ar    1  LIG1       -0.0514
     18 O          -0.8329   -0.0226    0.0064 O.3     1  LIG1       -0.4830
     19 O           1.2147   -3.5506    0.3232 O.2     1  LIG1       -0.2918
     20 C          -1.4986   -1.2004    0.2189 C.ar    1  LIG1        0.1353
     21 C          -2.8891   -1.1360    0.2711 C.ar    1  LIG1        0.0223
     22 H          -5.3640   -3.0694    0.6934 H       1  LIG1        0.2921
     23 H          -3.5591   -4.4410    0.8084 H       1  LIG1        0.0654
     24 H          -1.0943   -4.5592    0.6706 H       1  LIG1        0.0627
     25 H           1.3174   -1.1329   -1.2492 H       1  LIG1        0.0385
     26 H           2.3260   -1.2323    0.2187 H       1  LIG1        0.0385
     27 H           0.1395    1.5859   -1.7110 H       1  LIG1        0.0659
     28 H           0.5513    3.4499   -2.9139 H       1  LIG1        0.2923
     29 H           2.7389    5.1413   -1.5581 H       1  LIG1        0.2923
     30 H           3.5682    3.3956    1.4102 H       1  LIG1        0.0655
     31 H           2.4325    1.2629    1.9379 H       1  LIG1        0.0623
     32 H          -3.4004   -0.1846    0.1549 H       1  LIG1        0.0691
@<TRIPOS>BOND
     1     1     2    1
     2     2     3   ar
     3     3     4   ar
     4     4     5   ar
     5     5     6    1
     6     6     7    1
     7     7     8    1
     8     8     9    1
     9     8    10    1
    10    10    11   ar
    11    11    12   ar
    12    12    13    1
    13    12    14   ar
    14    14    15    1
    15    14    16   ar
    16    16    17   ar
    17    10    17   ar
    18     8    18    1
    19     6    19    2
    20     5    20   ar
    21    18    20    1
    22    20    21   ar
    23     2    21   ar
    24     1    22    1
    25     3    23    1
    26     4    24    1
    27     7    25    1
    28     7    26    1
    29    11    27    1
    30    13    28    1
    31    15    29    1
    32    16    30    1
    33    17    31    1
    34    21    32    1
