@<TRIPOS>MOLECULE
NuBBE_2161
 81 85 0 0 0
SMALL
GASTEIGER

@<TRIPOS>ATOM
      1 C          -3.0475   -3.7155   -2.2748 C.3     1  LIG1       -0.0590
      2 C          -2.8419   -2.4432   -1.4998 C.3     1  LIG1       -0.0259
      3 C          -3.2452   -2.4959    0.0065 C.3     1  LIG1       -0.0359
      4 H          -2.9658   -1.5314    0.4571 H       1  LIG1        0.0306
      5 C          -2.4119   -3.5643    0.7340 C.3     1  LIG1       -0.0617
      6 C          -4.7734   -2.6769    0.2639 C.3     1  LIG1       -0.0436
      7 C          -5.1134   -2.5741    1.7612 C.3     1  LIG1       -0.0624
      8 C          -5.6266   -1.6489   -0.4878 C.3     1  LIG1       -0.0624
      9 C          -1.6018   -1.5883   -1.8229 C.3     1  LIG1       -0.0320
     10 C          -2.9714   -1.0927   -2.1874 C.3     1  LIG1       -0.0435
     11 H          -1.1650   -1.3315   -0.8843 H       1  LIG1        0.0309
     12 C          -0.4878   -1.7637   -2.8467 C.3     1  LIG1       -0.0372
     13 H          -0.0221   -2.7350   -2.6415 H       1  LIG1        0.0304
     14 C          -0.9878   -1.8185   -4.3020 C.3     1  LIG1       -0.0619
     15 C           0.6714   -0.6581   -2.7578 C.3     1  LIG1       -0.0325
     16 H           1.3667   -0.8900   -3.5781 H       1  LIG1        0.0309
     17 C           0.1313    0.7651   -2.9508 C.3     1  LIG1       -0.0492
     18 C          -0.0872    1.3233   -1.5456 C.3     1  LIG1       -0.0492
     19 C           0.6223    0.3710   -0.5544 C.3     1  LIG1       -0.0320
     20 H          -0.1345   -0.2321   -0.0681 H       1  LIG1        0.0309
     21 C           1.2372    1.0890    0.6398 C.3     1  LIG1       -0.0307
     22 H           0.4493    1.7479    1.0253 H       1  LIG1        0.0309
     23 C           1.5807    0.1032    1.7779 C.3     1  LIG1       -0.0311
     24 C           2.3227    0.7524    2.9007 C.2     1  LIG1       -0.0839
     25 C           2.8940    1.9555    2.8058 C.2     1  LIG1       -0.0648
     26 C           3.3167    2.6933    4.0574 C.3     1  LIG1       -0.0051
     27 C           2.3603    3.8777    4.2864 C.3     1  LIG1        0.0590
     28 H           2.7307    4.4812    5.1216 H       1  LIG1        0.0596
     29 O           1.0535    3.4312    4.6702 O.3     1  LIG1       -0.3915
     30 C           2.2178    4.7628    3.0420 C.3     1  LIG1       -0.0258
     31 C           1.9436    3.9627    1.7533 C.3     1  LIG1       -0.0413
     32 C           2.9296    2.7699    1.5065 C.3     1  LIG1       -0.0078
     33 C           4.3363    3.3357    1.2209 C.3     1  LIG1       -0.0556
     34 C           2.4493    1.9353    0.2490 C.3     1  LIG1       -0.0285
     35 H           2.1524    2.6724   -0.5087 H       1  LIG1        0.0312
     36 C           3.4749    1.0063   -0.4523 C.3     1  LIG1       -0.0486
     37 C           2.8791    0.2681   -1.6835 C.3     1  LIG1       -0.0468
     38 C           1.5340   -0.5063   -1.4368 C.3     1  LIG1       -0.0259
     39 C           1.8726   -1.8950   -0.8755 C.3     1  LIG1       -0.0590
     40 H          -3.2790   -3.5232   -3.3247 H       1  LIG1        0.0235
     41 H          -3.8790   -4.3019   -1.8749 H       1  LIG1        0.0235
     42 H          -2.1480   -4.3381   -2.2216 H       1  LIG1        0.0235
     43 H          -2.5308   -3.4970    1.8198 H       1  LIG1        0.0233
     44 H          -1.3445   -3.4419    0.5226 H       1  LIG1        0.0233
     45 H          -2.7008   -4.5739    0.4245 H       1  LIG1        0.0233
     46 H          -5.0841   -3.6736   -0.0709 H       1  LIG1        0.0298
     47 H          -4.7552   -1.6303    2.1871 H       1  LIG1        0.0232
     48 H          -4.6756   -3.3978    2.3324 H       1  LIG1        0.0232
     49 H          -6.1965   -2.6231    1.9218 H       1  LIG1        0.0232
     50 H          -5.2501   -0.6315   -0.3403 H       1  LIG1        0.0232
     51 H          -6.6660   -1.6657   -0.1413 H       1  LIG1        0.0232
     52 H          -5.6447   -1.8658   -1.5601 H       1  LIG1        0.0232
     53 H          -3.3151   -1.0883   -3.2141 H       1  LIG1        0.0274
     54 H          -3.3295   -0.2321   -1.6310 H       1  LIG1        0.0274
     55 H          -1.6873   -2.6409   -4.4608 H       1  LIG1        0.0233
     56 H          -0.1545   -1.9703   -4.9958 H       1  LIG1        0.0233
     57 H          -1.4990   -0.8985   -4.6022 H       1  LIG1        0.0233
     58 H          -0.7758    0.8310   -3.5546 H       1  LIG1        0.0268
     59 H           0.8796    1.3737   -3.4746 H       1  LIG1        0.0268
     60 H          -1.1578    1.3616   -1.3183 H       1  LIG1        0.0268
     61 H           0.2772    2.3536   -1.5009 H       1  LIG1        0.0268
     62 H           2.1816   -0.7403    1.4459 H       1  LIG1        0.0310
     63 H           0.6464   -0.3173    2.1696 H       1  LIG1        0.0310
     64 H           2.2880    0.2225    3.8528 H       1  LIG1        0.0572
     65 H           4.3503    3.0413    3.9654 H       1  LIG1        0.0335
     66 H           3.2868    2.0252    4.9271 H       1  LIG1        0.0335
     67 H           1.1016    2.4841    4.8847 H       1  LIG1        0.2098
     68 H           3.1255    5.3609    2.9139 H       1  LIG1        0.0290
     69 H           1.3891    5.4676    3.1873 H       1  LIG1        0.0290
     70 H           1.9659    4.6501    0.8981 H       1  LIG1        0.0274
     71 H           0.9103    3.6010    1.8171 H       1  LIG1        0.0274
     72 H           4.6697    4.0527    1.9767 H       1  LIG1        0.0238
     73 H           4.3507    3.8651    0.2609 H       1  LIG1        0.0238
     74 H           5.0896    2.5416    1.1874 H       1  LIG1        0.0238
     75 H           3.8903    0.2773    0.2516 H       1  LIG1        0.0268
     76 H           4.3235    1.5997   -0.8128 H       1  LIG1        0.0268
     77 H           3.6368   -0.4252   -2.0734 H       1  LIG1        0.0271
     78 H           2.7525    1.0187   -2.4712 H       1  LIG1        0.0271
     79 H           2.6949   -1.8691   -0.1560 H       1  LIG1        0.0235
     80 H           2.2079   -2.5625   -1.6789 H       1  LIG1        0.0235
     81 H           1.0118   -2.3622   -0.3888 H       1  LIG1        0.0235
@<TRIPOS>BOND
     1     1     2    1
     2     3     5    1
     3     3     6    1
     4     6     7    1
     5     6     8    1
     6     2     9    1
     7     9    10    1
     8     2    10    1
     9     9    11    1
    10     9    12    1
    11    12    13    1
    12    12    14    1
    13    15    17    1
    14    17    18    1
    15    18    19    1
    16    19    21    1
    17    21    23    1
    18    23    24    1
    19    24    25    2
    20    25    26    1
    21    26    27    1
    22    27    30    1
    23    30    31    1
    24    31    32    1
    25    25    32    1
    26    32    34    1
    27    21    34    1
    28    34    36    1
    29    36    37    1
    30    37    38    1
    31    19    38    1
    32    15    38    1
    33    12    15    1
    34    15    16    1
    35    19    20    1
    36    21    22    1
    37    27    28    1
    38    27    29    1
    39    32    33    1
    40    34    35    1
    41    38    39    1
    42     3     4    1
    43     3     2    1
    44     1    40    1
    45     1    41    1
    46     1    42    1
    47     5    43    1
    48     5    44    1
    49     5    45    1
    50     6    46    1
    51     7    47    1
    52     7    48    1
    53     7    49    1
    54     8    50    1
    55     8    51    1
    56     8    52    1
    57    10    53    1
    58    10    54    1
    59    14    55    1
    60    14    56    1
    61    14    57    1
    62    17    58    1
    63    17    59    1
    64    18    60    1
    65    18    61    1
    66    23    62    1
    67    23    63    1
    68    24    64    1
    69    26    65    1
    70    26    66    1
    71    29    67    1
    72    30    68    1
    73    30    69    1
    74    31    70    1
    75    31    71    1
    76    33    72    1
    77    33    73    1
    78    33    74    1
    79    36    75    1
    80    36    76    1
    81    37    77    1
    82    37    78    1
    83    39    79    1
    84    39    80    1
    85    39    81    1
