@<TRIPOS>MOLECULE
NuBBE_1471
 26 27 0 0 0
SMALL
GASTEIGER

@<TRIPOS>ATOM
      1 O          -3.2019   -0.3306    0.2785 O.2     1  LIG1       -0.2645
      2 C          -1.9862   -0.2507    0.1182 C.ar    1  LIG1        0.2874
      3 C          -1.2417   -1.4738   -0.2774 C.ar    1  LIG1        0.0481
      4 C           0.0810   -1.4648   -0.5106 C.ar    1  LIG1        0.1345
      5 O           0.8553   -2.5531   -0.8516 O.3     1  LIG1       -0.4943
      6 C           0.2063   -3.7986   -1.0772 C.3     1  LIG1        0.0788
      7 N          -1.2215    0.8775    0.3056 N.ar    1  LIG1       -0.1438
      8 O          -1.9085    2.0854    0.5786 O.3     1  LIG1       -0.4113
      9 C          -2.1143    2.1926    1.9865 C.3     1  LIG1        0.1054
     10 C           0.1455    0.9765   -0.0229 C.ar    1  LIG1        0.0950
     11 C           0.8246   -0.1895   -0.4153 C.ar    1  LIG1        0.0437
     12 C           2.1918   -0.1041   -0.7230 C.ar    1  LIG1       -0.0490
     13 C           2.8672    1.1162   -0.6481 C.ar    1  LIG1       -0.0610
     14 C           2.1851    2.2675   -0.2667 C.ar    1  LIG1       -0.0597
     15 C           0.8279    2.1995    0.0459 C.ar    1  LIG1       -0.0341
     16 H          -1.8572   -2.3602   -0.3459 H       1  LIG1        0.0710
     17 H          -0.4211   -3.7459   -1.9726 H       1  LIG1        0.0660
     18 H          -0.3774   -4.1128   -0.2062 H       1  LIG1        0.0660
     19 H           0.9801   -4.5532   -1.2475 H       1  LIG1        0.0660
     20 H          -2.5379    3.1792    2.1932 H       1  LIG1        0.0686
     21 H          -1.1659    2.1055    2.5272 H       1  LIG1        0.0686
     22 H          -2.8180    1.4315    2.3354 H       1  LIG1        0.0686
     23 H           2.7447   -0.9889   -1.0312 H       1  LIG1        0.0625
     24 H           3.9251    1.1658   -0.8939 H       1  LIG1        0.0618
     25 H           2.7075    3.2195   -0.2146 H       1  LIG1        0.0618
     26 H           0.3096    3.1096    0.3357 H       1  LIG1        0.0639
@<TRIPOS>BOND
     1     1     2    2
     2     2     3   ar
     3     3     4   ar
     4     4     5    1
     5     5     6    1
     6     2     7   ar
     7     7     8    1
     8     8     9    1
     9     7    10   ar
    10    10    11   ar
    11     4    11   ar
    12    11    12   ar
    13    12    13   ar
    14    13    14   ar
    15    14    15   ar
    16    10    15   ar
    17     3    16    1
    18     6    17    1
    19     6    18    1
    20     6    19    1
    21     9    20    1
    22     9    21    1
    23     9    22    1
    24    12    23    1
    25    13    24    1
    26    14    25    1
    27    15    26    1
