@<TRIPOS>MOLECULE
NuBBE_1751
 26 26 0 0 0
SMALL
GASTEIGER

@<TRIPOS>ATOM
      1 C          -1.6773   -0.0836    0.9470 C.3     1  LIG1       -0.0402
      2 C          -2.0562   -1.3235    1.7707 C.3     1  LIG1       -0.0621
      3 C          -2.0719    1.1625    1.7543 C.3     1  LIG1       -0.0621
      4 C          -0.1677   -0.0660    0.5498 C.3     1  LIG1       -0.0168
      5 C           0.2097    1.2625   -0.1665 C.3     1  LIG1       -0.0277
      6 C           1.4007    1.1834   -1.0807 C.2     1  LIG1       -0.0805
      7 C           1.8527    0.0186   -1.5736 C.2     1  LIG1       -0.0546
      8 C           1.1814   -1.2172   -1.2295 C.2     1  LIG1       -0.0628
      9 C           0.2566   -1.2778   -0.2595 C.2     1  LIG1       -0.0801
     10 C           3.0230   -0.0750   -2.5061 C.3     1  LIG1       -0.0400
     11 H          -2.2831   -0.0944    0.0310 H       1  LIG1        0.0301
     12 H          -1.4156   -1.4229    2.6535 H       1  LIG1        0.0233
     13 H          -1.9773   -2.2420    1.1827 H       1  LIG1        0.0233
     14 H          -3.0949   -1.2605    2.1141 H       1  LIG1        0.0233
     15 H          -1.4549    1.2611    2.6539 H       1  LIG1        0.0233
     16 H          -3.1201    1.1078    2.0683 H       1  LIG1        0.0233
     17 H          -1.9660    2.0777    1.1645 H       1  LIG1        0.0233
     18 H           0.4143   -0.1118    1.4824 H       1  LIG1        0.0348
     19 H           0.4121    2.0252    0.5958 H       1  LIG1        0.0313
     20 H          -0.6342    1.6277   -0.7659 H       1  LIG1        0.0313
     21 H           1.8760    2.1206   -1.3560 H       1  LIG1        0.0575
     22 H           1.4671   -2.1199   -1.7636 H       1  LIG1        0.0617
     23 H          -0.1627   -2.2484   -0.0163 H       1  LIG1        0.0575
     24 H           3.4584    0.9084   -2.7140 H       1  LIG1        0.0277
     25 H           2.7194   -0.5118   -3.4636 H       1  LIG1        0.0277
     26 H           3.8106   -0.7007   -2.0726 H       1  LIG1        0.0277
@<TRIPOS>BOND
     1     1     2    1
     2     1     3    1
     3     1     4    1
     4     4     5    1
     5     5     6    1
     6     6     7    2
     7     7     8    1
     8     8     9    2
     9     4     9    1
    10     7    10    1
    11     1    11    1
    12     2    12    1
    13     2    13    1
    14     2    14    1
    15     3    15    1
    16     3    16    1
    17     3    17    1
    18     4    18    1
    19     5    19    1
    20     5    20    1
    21     6    21    1
    22     8    22    1
    23     9    23    1
    24    10    24    1
    25    10    25    1
    26    10    26    1
