REMARK  Name = NuBBE_1737
REMARK  3 active torsions:
REMARK  status: ('A' for Active; 'I' for Inactive)
REMARK    1  A    between atoms: C_1  and  C_2
REMARK    2  A    between atoms: C_1  and  C_3
REMARK    3  A    between atoms: C_1  and  C_4
REMARK                            x       y       z     vdW  Elec       q    Type
REMARK                         _______ _______ _______ _____ _____    ______ ____
ROOT
ATOM      1  C   LIG A   1      -0.176  -0.089   0.242  0.00  0.00    -0.020 C 
ATOM      2  C   LIG A   1       1.072   0.631  -0.236  0.00  0.00    +0.021 C 
ATOM      3  C   LIG A   1       0.601   0.821   1.176  0.00  0.00    +0.016 C 
ATOM      4  C   LIG A   1       2.074  -0.401  -0.537  0.00  0.00    -0.073 C 
ATOM      5  C   LIG A   1       3.389  -0.210  -0.702  0.00  0.00    +0.008 C 
ATOM      6  C   LIG A   1       1.411  -1.758  -0.563  0.00  0.00    +0.031 C 
ATOM      7  C   LIG A   1       0.140  -1.578   0.281  0.00  0.00    +0.012 C 
ENDROOT
BRANCH   1   8
ATOM      8  C   LIG A   1      -1.581   0.285  -0.208  0.00  0.00    -0.010 C 
ATOM      9  C   LIG A   1      -2.575   0.058   0.936  0.00  0.00    +0.008 C 
ATOM     10  C   LIG A   1      -1.734   1.708  -0.750  0.00  0.00    +0.008 C 
ENDBRANCH   1   8
TORSDOF 1
