@<TRIPOS>MOLECULE
NuBBE_2520
 49 51 0 0 0
SMALL
GASTEIGER

@<TRIPOS>ATOM
      1 C          -2.7954   -0.3342   -0.5718 C.3     1  LIG1       -0.0222
      2 C          -3.4988   -1.3760   -1.4017 C.2     1  LIG1       -0.0902
      3 C          -4.2890   -1.1128   -2.4500 C.2     1  LIG1       -0.1026
      4 C          -1.3633    0.0040   -1.0221 C.3     1  LIG1        0.0390
      5 C          -0.3755   -1.2131   -1.0290 C.3     1  LIG1       -0.0233
      6 C          -0.0868   -1.8510   -2.3888 C.3     1  LIG1       -0.0609
      7 C           0.9736   -0.6794   -0.3860 C.3     1  LIG1        0.0041
      8 C           0.8365    0.8793   -0.3996 C.3     1  LIG1        0.0859
      9 C          -0.6132    0.7536    0.0393 C.2     1  LIG1        0.1509
     10 O          -1.0752    1.2313    1.0747 O.2     1  LIG1       -0.2960
     11 C           0.6549    2.2012   -1.1745 C.2     1  LIG1        0.1725
     12 O           1.5204    3.0773   -1.1546 O.2     1  LIG1       -0.2939
     13 C          -0.6655    2.3466   -2.0014 C.3     1  LIG1        0.1177
     14 C          -1.3077    0.9493   -2.2717 C.3     1  LIG1       -0.0067
     15 O          -1.6601    3.1407   -1.3670 O.3     1  LIG1       -0.3722
     16 C          -1.2431    4.4799   -1.1212 C.3     1  LIG1        0.0374
     17 C           1.3189   -1.2302    1.0006 C.ar    1  LIG1       -0.0392
     18 C           2.0483   -0.4439    1.9165 C.ar    1  LIG1       -0.0128
     19 C           2.3764   -0.9339    3.1828 C.ar    1  LIG1        0.1615
     20 O           3.0485   -0.2340    4.1521 O.3     1  LIG1       -0.4915
     21 C           4.0017    0.7090    3.6698 C.3     1  LIG1        0.0790
     22 C           1.9664   -2.2188    3.5388 C.ar    1  LIG1        0.1585
     23 C           1.3018   -3.0352    2.6379 C.ar    1  LIG1       -0.0163
     24 C           0.9996   -2.5489    1.3654 C.ar    1  LIG1       -0.0546
     25 O           2.2371   -2.7119    4.7850 O.3     1  LIG1       -0.5033
     26 H          -2.7910   -0.6971    0.4656 H       1  LIG1        0.0317
     27 H          -3.3988    0.5830   -0.5425 H       1  LIG1        0.0317
     28 H          -3.3987   -2.4099   -1.0740 H       1  LIG1        0.0567
     29 H          -4.4547   -0.1006   -2.8056 H       1  LIG1        0.0532
     30 H          -4.8005   -1.9148   -2.9749 H       1  LIG1        0.0532
     31 H          -0.8183   -1.9958   -0.4050 H       1  LIG1        0.0314
     32 H           0.5992   -1.2449   -2.9907 H       1  LIG1        0.0233
     33 H          -1.0018   -2.0143   -2.9634 H       1  LIG1        0.0233
     34 H           0.3982   -2.8234   -2.2448 H       1  LIG1        0.0233
     35 H           1.8385   -1.0044   -0.9908 H       1  LIG1        0.0363
     36 H           1.1496    0.6743   -1.4498 H       1  LIG1        0.0462
     37 H          -0.4128    2.7933   -2.9705 H       1  LIG1        0.0676
     38 H          -0.7563    0.4775   -3.0892 H       1  LIG1        0.0304
     39 H          -2.3219    1.1100   -2.6562 H       1  LIG1        0.0304
     40 H          -0.8558    4.9427   -2.0339 H       1  LIG1        0.0524
     41 H          -0.4913    4.5111   -0.3278 H       1  LIG1        0.0524
     42 H          -2.1112    5.0513   -0.7814 H       1  LIG1        0.0524
     43 H           2.3404    0.5631    1.6390 H       1  LIG1        0.0658
     44 H           4.4890    1.1631    4.5378 H       1  LIG1        0.0660
     45 H           3.5307    1.5193    3.1061 H       1  LIG1        0.0660
     46 H           4.7713    0.2085    3.0722 H       1  LIG1        0.0660
     47 H           1.0226   -4.0452    2.9223 H       1  LIG1        0.0655
     48 H           0.5076   -3.2263    0.6725 H       1  LIG1        0.0622
     49 H           2.6555   -1.9691    5.2618 H       1  LIG1        0.2923
@<TRIPOS>BOND
     1     1     2    1
     2     2     3    2
     3     1     4    1
     4     4     5    1
     5     5     6    1
     6     5     7    1
     7     7     8    1
     8     8     9    1
     9     4     9    1
    10     9    10    2
    11     8    11    1
    12    11    12    2
    13    11    13    1
    14    13    14    1
    15     4    14    1
    16    13    15    1
    17    15    16    1
    18     7    17    1
    19    17    18   ar
    20    18    19   ar
    21    19    20    1
    22    20    21    1
    23    19    22   ar
    24    22    23   ar
    25    23    24   ar
    26    17    24   ar
    27    22    25    1
    28     1    26    1
    29     1    27    1
    30     2    28    1
    31     3    29    1
    32     3    30    1
    33     5    31    1
    34     6    32    1
    35     6    33    1
    36     6    34    1
    37     7    35    1
    38     8    36    1
    39    13    37    1
    40    14    38    1
    41    14    39    1
    42    16    40    1
    43    16    41    1
    44    16    42    1
    45    18    43    1
    46    21    44    1
    47    21    45    1
    48    21    46    1
    49    23    47    1
    50    24    48    1
    51    25    49    1
