REMARK  Name = NuBBE_1052
REMARK  13 active torsions:
REMARK  status: ('A' for Active; 'I' for Inactive)
REMARK    1  A    between atoms: C_1  and  C_2
REMARK    2  A    between atoms: C_8  and  C_9
REMARK    3  A    between atoms: C_8  and  C_10
REMARK    4  A    between atoms: C_11  and  O_13
REMARK    5  A    between atoms: C_16  and  C_17
REMARK    6  A    between atoms: C_22  and  C_23
REMARK    7  A    between atoms: C_24  and  C_26
REMARK    8  A    between atoms: C_26  and  C_28
REMARK    9  A    between atoms: C_26  and  C_29
REMARK   10  A    between atoms: C_33  and  C_34
REMARK   11  A    between atoms: C_33  and  C_35
REMARK   12  A    between atoms: C_39  and  C_40
REMARK   13  A    between atoms: C_39  and  C_41
REMARK                            x       y       z     vdW  Elec       q    Type
REMARK                         _______ _______ _______ _____ _____    ______ ____
ROOT
ATOM      1  C   LIG A   1      -2.961  -1.474   1.807  0.00  0.00    +0.016 C 
ATOM      2  C   LIG A   1      -1.944  -0.515   1.140  0.00  0.00    -0.005 C 
ATOM      3  C   LIG A   1      -1.394  -1.191  -0.122  0.00  0.00    -0.063 C 
ATOM      4  C   LIG A   1      -1.477  -0.713  -1.382  0.00  0.00    -0.026 C 
ATOM      5  C   LIG A   1      -0.863  -1.436  -2.531  0.00  0.00    +0.031 C 
ATOM      6  C   LIG A   1      -1.047  -2.959  -2.417  0.00  0.00    +0.007 C 
ATOM      7  C   LIG A   1      -2.495  -3.487  -2.781  0.00  0.00    -0.005 C 
ATOM      8  C   LIG A   1      -3.615  -2.977  -1.844  0.00  0.00    +0.014 C 
ATOM      9  C   LIG A   1      -2.898  -3.001  -4.201  0.00  0.00    +0.014 C 
ATOM     10  C   LIG A   1      -2.497  -5.051  -2.759  0.00  0.00    +0.120 C 
ATOM     11  C   LIG A   1      -1.557  -5.696  -1.737  0.00  0.00    +0.032 C 
ATOM     12  C   LIG A   1      -1.181  -4.778  -0.589  0.00  0.00    +0.010 C 
ATOM     13  C   LIG A   1      -0.448  -3.476  -1.045  0.00  0.00    -0.022 C 
ATOM     14  C   LIG A   1       1.033  -3.864  -1.305  0.00  0.00    +0.012 C 
ATOM     15  C   LIG A   1      -0.552  -2.425   0.150  0.00  0.00    +0.021 C 
ATOM     16  C   LIG A   1       0.745  -1.842   0.746  0.00  0.00    +0.009 C 
ATOM     17  C   LIG A   1       0.460  -1.074   2.053  0.00  0.00    +0.008 C 
ATOM     18  C   LIG A   1      -0.729  -0.057   2.054  0.00  0.00    -0.020 C 
ATOM     19  C   LIG A   1      -1.180   0.055   3.527  0.00  0.00    +0.012 C 
ATOM     20  C   LIG A   1      -0.319   1.330   1.384  0.00  0.00    +0.001 C 
ATOM     21  C   LIG A   1      -1.634   1.910   0.819  0.00  0.00    +0.005 C 
ATOM     22  C   LIG A   1      -2.688   0.816   0.895  0.00  0.00    +0.012 C 
ENDROOT
BRANCH  10  23
ATOM     23  O   LIG A   1      -2.131  -5.577  -4.041  0.00  0.00    -0.391 OA
ATOM     24  H   LIG A   1      -2.271  -6.539  -4.011  0.00  0.00    +0.210 HD
ENDBRANCH  10  23
BRANCH  20  25
ATOM     25  C   LIG A   1       0.535   2.420   2.136  0.00  0.00    +0.021 C 
ATOM     26  C   LIG A   1      -0.062   2.842   3.497  0.00  0.00    +0.010 C 
BRANCH  25  27
ATOM     27  C   LIG A   1       0.779   3.716   1.278  0.00  0.00    +0.154 C 
ATOM     28  C   LIG A   1       1.564   3.618  -0.034  0.00  0.00    +0.182 C 
ATOM     29  O   LIG A   1       2.180   2.371  -0.322  0.00  0.00    -0.341 OA
ATOM     30  C   LIG A   1       3.480   2.682  -0.825  0.00  0.00    +0.166 C 
ATOM     31  C   LIG A   1       4.437   1.591  -0.373  0.00  0.00    +0.073 C 
ATOM     32  C   LIG A   1       3.474   2.790  -2.352  0.00  0.00    +0.073 C 
ATOM     33  O   LIG A   1       3.892   3.940  -0.294  0.00  0.00    -0.341 OA
ATOM     34  C   LIG A   1       2.690   4.621   0.067  0.00  0.00    +0.184 C 
ATOM     35  C   LIG A   1       2.681   5.123   1.510  0.00  0.00    +0.093 C 
ATOM     36  C   LIG A   1       3.789   4.549   2.395  0.00  0.00    +0.044 C 
ATOM     37  C   LIG A   1       2.748   6.653   1.558  0.00  0.00    +0.044 C 
ATOM     38  O   LIG A   1       1.427   4.729   2.083  0.00  0.00    -0.365 OA
ENDBRANCH  25  27
ENDBRANCH  20  25
TORSDOF 3
