@<TRIPOS>MOLECULE
NuBBE_40
 35 34 0 0 0
SMALL
GASTEIGER

@<TRIPOS>ATOM
      1 C          -1.8944    0.0326   -0.1794 C.3     1  LIG1       -0.0437
      2 C          -0.4289    0.3224   -0.3591 C.2     1  LIG1       -0.0732
      3 C           0.4449    0.1587    0.8753 C.3     1  LIG1       -0.0285
      4 C           0.4874   -1.2858    1.3986 C.3     1  LIG1       -0.0308
      5 C           1.3480   -1.4271    2.6298 C.2     1  LIG1       -0.0850
      6 C           0.9753   -1.8622    3.8510 C.2     1  LIG1       -0.0796
      7 C          -0.4110   -2.3050    4.2344 C.3     1  LIG1       -0.0440
      8 C           1.9696   -1.9347    4.9827 C.3     1  LIG1       -0.0440
      9 C           0.1069    0.7271   -1.5302 C.2     1  LIG1       -0.0482
     10 C          -0.6039    1.0069   -2.8259 C.3     1  LIG1        0.1231
     11 N           0.1587    2.0337   -3.5339 N.pl3   1  LIG1       -0.1095
     12 C          -0.2407    2.4297   -4.6761 C.cat   1  LIG1        0.3768
     13 N          -1.3171    2.0612   -5.4078 N.pl3   1  LIG1       -0.2892
     14 N           0.4681    3.3632   -5.3524 N.pl3   1  LIG1       -0.2892
     15 H          -2.1448   -0.1109    0.8775 H       1  LIG1        0.0274
     16 H          -2.1673   -0.8861   -0.7093 H       1  LIG1        0.0274
     17 H          -2.5170    0.8568   -0.5386 H       1  LIG1        0.0274
     18 H           0.0657    0.8306    1.6568 H       1  LIG1        0.0313
     19 H           1.4680    0.4959    0.6612 H       1  LIG1        0.0313
     20 H           0.8893   -1.9470    0.6219 H       1  LIG1        0.0310
     21 H          -0.5305   -1.6294    1.5911 H       1  LIG1        0.0310
     22 H           2.3922   -1.1507    2.4777 H       1  LIG1        0.0572
     23 H          -1.1274   -2.2799    3.4121 H       1  LIG1        0.0274
     24 H          -0.8033   -1.6593    5.0267 H       1  LIG1        0.0274
     25 H          -0.3884   -3.3348    4.6068 H       1  LIG1        0.0274
     26 H           2.9723   -1.6155    4.6804 H       1  LIG1        0.0274
     27 H           2.0461   -2.9602    5.3597 H       1  LIG1        0.0274
     28 H           1.6486   -1.2869    5.8054 H       1  LIG1        0.0274
     29 H           1.1815    0.9011   -1.5741 H       1  LIG1        0.0604
     30 H          -1.6258    1.3552   -2.6426 H       1  LIG1        0.0738
     31 H          -0.6341    0.0856   -3.4186 H       1  LIG1        0.0738
     32 H          -2.0116    1.5319   -4.8981 H       1  LIG1        0.2546
     33 H          -1.7392    2.8500   -5.8837 H       1  LIG1        0.2546
     34 H           1.3620    3.5120   -4.8934 H       1  LIG1        0.2546
     35 H           0.6007    3.1209   -6.3257 H       1  LIG1        0.2546
@<TRIPOS>BOND
     1     1     2    1
     2     2     3    1
     3     3     4    1
     4     4     5    1
     5     5     6    2
     6     6     7    1
     7     6     8    1
     8     2     9    2
     9     9    10    1
    10    10    11    1
    11    11    12    2
    12    12    13    1
    13    12    14    1
    14     1    15    1
    15     1    16    1
    16     1    17    1
    17     3    18    1
    18     3    19    1
    19     4    20    1
    20     4    21    1
    21     5    22    1
    22     7    23    1
    23     7    24    1
    24     7    25    1
    25     8    26    1
    26     8    27    1
    27     8    28    1
    28     9    29    1
    29    10    30    1
    30    10    31    1
    31    13    32    1
    32    13    33    1
    33    14    34    1
    34    14    35    1
