@<TRIPOS>MOLECULE
NuBBE_1136
 55 59 0 0 0
SMALL
GASTEIGER

@<TRIPOS>ATOM
      1 O          -0.1525   -0.9615    3.3801 O.3     1  LIG1       -0.3938
      2 C          -1.0169   -0.7053    2.2728 C.3     1  LIG1        0.0573
      3 C          -0.2480   -0.1240    1.0578 C.3     1  LIG1        0.0383
      4 C           0.8169   -1.1024    0.5738 C.2     1  LIG1       -0.0708
      5 C           1.2456   -1.2449   -0.6939 C.2     1  LIG1       -0.0576
      6 C           2.2761   -2.2002   -1.1206 C.ar    1  LIG1       -0.0246
      7 C           3.0778   -1.8806   -2.2231 C.ar    1  LIG1       -0.0526
      8 C           4.0634   -2.7570   -2.6935 C.ar    1  LIG1       -0.0372
      9 C           4.2152   -3.9755   -2.0242 C.ar    1  LIG1        0.0465
     10 N           5.0895   -5.0122   -2.2469 N.ar    1  LIG1       -0.3606
     11 H           5.7903   -5.0240   -2.9760 H       1  LIG1        0.1653
     12 C           4.8772   -6.0176   -1.3397 C.ar    1  LIG1        0.0027
     13 C           3.8453   -5.6292   -0.5180 C.ar    1  LIG1       -0.0366
     14 C           3.4225   -4.3386   -0.9364 C.ar    1  LIG1        0.0002
     15 C           2.4333   -3.4436   -0.4880 C.ar    1  LIG1       -0.0454
     16 C          -1.2598    0.2732   -0.0015 C.ar    1  LIG1       -0.0295
     17 C          -1.9954   -0.5880   -0.8177 C.ar    1  LIG1       -0.0334
     18 C          -2.8596    0.0150   -1.7368 C.ar    1  LIG1        0.0468
     19 C          -3.0273    1.4001   -1.8330 C.ar    1  LIG1       -0.0001
     20 C          -3.9787    1.6302   -2.8654 C.ar    1  LIG1       -0.0367
     21 C          -4.3544    0.4087   -3.3766 C.ar    1  LIG1        0.0027
     22 N          -3.6702   -0.5591   -2.6901 N.ar    1  LIG1       -0.3606
     23 H          -3.7380   -1.5534   -2.8579 H       1  LIG1        0.1653
     24 C          -2.2942    2.2469   -0.9751 C.ar    1  LIG1       -0.0486
     25 C          -1.4109    1.6589   -0.0707 C.ar    1  LIG1       -0.0357
     26 C          -0.5280    2.3730    0.9185 C.3     1  LIG1        0.0039
     27 H           0.0685    3.1165    0.3824 H       1  LIG1        0.0392
     28 C          -1.3021    2.9861    2.0575 C.2     1  LIG1       -0.0778
     29 C          -1.3582    4.2838    2.4203 C.2     1  LIG1       -0.0790
     30 C          -0.6481    5.4172    1.7332 C.3     1  LIG1       -0.0440
     31 C          -2.1895    4.7090    3.6036 C.3     1  LIG1       -0.0440
     32 C           0.4249    1.2428    1.3768 C.3     1  LIG1       -0.0274
     33 H          -0.6883   -1.4099    4.0571 H       1  LIG1        0.2094
     34 H          -1.7965   -0.0196    2.6192 H       1  LIG1        0.0569
     35 H          -1.5097   -1.6491    2.0051 H       1  LIG1        0.0569
     36 H           1.2772   -1.6962    1.3623 H       1  LIG1        0.0582
     37 H           0.8446   -0.6110   -1.4827 H       1  LIG1        0.0621
     38 H           2.9490   -0.9266   -2.7307 H       1  LIG1        0.0624
     39 H           4.6834   -2.4911   -3.5432 H       1  LIG1        0.0638
     40 H           5.4768   -6.9171   -1.3569 H       1  LIG1        0.0807
     41 H           3.4382   -6.2039    0.3035 H       1  LIG1        0.0638
     42 H           1.8007   -3.7316    0.3458 H       1  LIG1        0.0630
     43 H          -1.8771   -1.6652   -0.7661 H       1  LIG1        0.0641
     44 H          -4.3427    2.5910   -3.2019 H       1  LIG1        0.0638
     45 H          -5.0450    0.1471   -4.1669 H       1  LIG1        0.0807
     46 H          -2.4081    3.3254   -1.0235 H       1  LIG1        0.0627
     47 H          -1.8809    2.2753    2.6456 H       1  LIG1        0.0578
     48 H          -0.0778    5.1128    0.8542 H       1  LIG1        0.0274
     49 H           0.0500    5.8980    2.4267 H       1  LIG1        0.0274
     50 H          -1.3743    6.1670    1.4013 H       1  LIG1        0.0274
     51 H          -2.6804    3.8623    4.0946 H       1  LIG1        0.0274
     52 H          -2.9703    5.4076    3.2858 H       1  LIG1        0.0274
     53 H          -1.5601    5.2050    4.3498 H       1  LIG1        0.0274
     54 H           0.7203    1.3373    2.4288 H       1  LIG1        0.0286
     55 H           1.3565    1.3479    0.8000 H       1  LIG1        0.0286
@<TRIPOS>BOND
     1     1     2    1
     2     2     3    1
     3     3     4    1
     4     4     5    2
     5     5     6    1
     6     6     7   ar
     7     7     8   ar
     8     8     9   ar
     9     9    10   ar
    10    10    11    1
    11    10    12   ar
    12    12    13   ar
    13     9    14   ar
    14    13    14   ar
    15    14    15   ar
    16     6    15   ar
    17     3    16    1
    18    16    17   ar
    19    17    18   ar
    20    18    19   ar
    21    19    20   ar
    22    20    21   ar
    23    21    22   ar
    24    18    22   ar
    25    22    23    1
    26    19    24   ar
    27    24    25   ar
    28    16    25   ar
    29    25    26    1
    30    28    29    2
    31    29    30    1
    32    29    31    1
    33    26    32    1
    34     3    32    1
    35    26    28    1
    36    26    27    1
    37     1    33    1
    38     2    34    1
    39     2    35    1
    40     4    36    1
    41     5    37    1
    42     7    38    1
    43     8    39    1
    44    12    40    1
    45    13    41    1
    46    15    42    1
    47    17    43    1
    48    20    44    1
    49    21    45    1
    50    24    46    1
    51    28    47    1
    52    30    48    1
    53    30    49    1
    54    30    50    1
    55    31    51    1
    56    31    52    1
    57    31    53    1
    58    32    54    1
    59    32    55    1
