@<TRIPOS>MOLECULE
NuBBE_1189
 37 39 0 0 0
SMALL
GASTEIGER

@<TRIPOS>ATOM
      1 O          -1.3238   -0.8526    0.2458 O.2     1  LIG1       -0.2864
      2 C          -0.1260   -0.6133    0.1897 C.ar    1  LIG1        0.2003
      3 C           0.4329    0.7761    0.1232 C.ar    1  LIG1        0.0644
      4 C          -0.4196    1.9845    0.0782 C.ar    1  LIG1       -0.0076
      5 C          -1.6719    1.9545   -0.5494 C.ar    1  LIG1       -0.0086
      6 C          -2.5022    3.0812   -0.5718 C.ar    1  LIG1        0.1590
      7 O          -3.7228    2.9590   -1.1776 O.3     1  LIG1       -0.5033
      8 C          -2.0847    4.2798    0.0119 C.ar    1  LIG1        0.1613
      9 O          -2.7473    5.4743    0.0735 O.3     1  LIG1       -0.4915
     10 C          -4.0175    5.5543   -0.5548 C.3     1  LIG1        0.0790
     11 C          -0.8327    4.3181    0.6324 C.ar    1  LIG1       -0.0157
     12 C          -0.0141    3.1870    0.6748 C.ar    1  LIG1       -0.0501
     13 C           1.7709    0.8838    0.0885 C.ar    1  LIG1        0.1038
     14 O           2.6855   -0.1351    0.1364 O.2     1  LIG1       -0.4620
     15 C           0.8514   -1.7168    0.1878 C.ar    1  LIG1        0.0682
     16 C           2.2043   -1.4144    0.1760 C.ar    1  LIG1        0.1421
     17 C           3.1508   -2.4320    0.2004 C.ar    1  LIG1        0.0265
     18 C           2.7377   -3.7651    0.2172 C.ar    1  LIG1        0.1620
     19 O           3.7077   -4.7276    0.2467 O.3     1  LIG1       -0.5032
     20 C           1.3734   -4.0913    0.2046 C.ar    1  LIG1        0.1622
     21 O           0.8063   -5.3375    0.1991 O.3     1  LIG1       -0.4914
     22 C           1.6793   -6.4585    0.1592 C.3     1  LIG1        0.0790
     23 C           0.4311   -3.0527    0.1977 C.ar    1  LIG1       -0.0019
     24 H          -2.0126    1.0384   -1.0253 H       1  LIG1        0.0661
     25 H          -3.8479    2.0352   -1.4533 H       1  LIG1        0.2923
     26 H          -4.3718    6.5841   -0.4534 H       1  LIG1        0.0660
     27 H          -4.7452    4.9085   -0.0531 H       1  LIG1        0.0660
     28 H          -3.9465    5.3431   -1.6266 H       1  LIG1        0.0660
     29 H          -0.4922    5.2406    1.0978 H       1  LIG1        0.0655
     30 H           0.9386    3.2688    1.1928 H       1  LIG1        0.0625
     31 H           2.3087    1.8218    0.0163 H       1  LIG1        0.1037
     32 H           4.2035   -2.1680    0.2039 H       1  LIG1        0.0692
     33 H           4.5832   -4.3080    0.2670 H       1  LIG1        0.2923
     34 H           1.0656   -7.3631    0.1201 H       1  LIG1        0.0660
     35 H           2.2831   -6.5175    1.0706 H       1  LIG1        0.0660
     36 H           2.2966   -6.4496   -0.7453 H       1  LIG1        0.0660
     37 H          -0.6317   -3.2901    0.1987 H       1  LIG1        0.0663
@<TRIPOS>BOND
     1     1     2    2
     2     2     3   ar
     3     3     4    1
     4     4     5   ar
     5     5     6   ar
     6     6     7    1
     7     6     8   ar
     8     8     9    1
     9     9    10    1
    10     8    11   ar
    11    11    12   ar
    12     4    12   ar
    13     3    13   ar
    14    13    14   ar
    15     2    15   ar
    16    15    16   ar
    17    14    16   ar
    18    16    17   ar
    19    17    18   ar
    20    18    19    1
    21    18    20   ar
    22    20    21    1
    23    21    22    1
    24    20    23   ar
    25    15    23   ar
    26     5    24    1
    27     7    25    1
    28    10    26    1
    29    10    27    1
    30    10    28    1
    31    11    29    1
    32    12    30    1
    33    13    31    1
    34    17    32    1
    35    19    33    1
    36    22    34    1
    37    22    35    1
    38    22    36    1
    39    23    37    1
