@<TRIPOS>MOLECULE
NuBBE_1644
 69 70 0 0 0
SMALL
GASTEIGER

@<TRIPOS>ATOM
      1 C          -1.2108   -5.4422   -6.6301 C.3     1  LIG1       -0.0440
      2 C          -0.0516   -5.1149   -5.7243 C.2     1  LIG1       -0.0796
      3 C           0.8991   -6.2618   -5.5444 C.3     1  LIG1       -0.0440
      4 C           0.0888   -3.9015   -5.1539 C.2     1  LIG1       -0.0850
      5 C           1.1916   -3.4391   -4.2256 C.3     1  LIG1       -0.0308
      6 C           1.3972   -4.2059   -2.8967 C.3     1  LIG1       -0.0286
      7 C           0.3009   -4.1271   -1.8465 C.2     1  LIG1       -0.0762
      8 C          -1.0942   -3.9580   -2.3614 C.3     1  LIG1       -0.0438
      9 C           0.6265   -4.2710   -0.5450 C.2     1  LIG1       -0.0847
     10 C          -0.2247   -4.1835    0.7000 C.3     1  LIG1       -0.0308
     11 C          -1.4403   -3.2375    0.7808 C.3     1  LIG1       -0.0286
     12 C          -1.2179   -1.7326    0.6666 C.2     1  LIG1       -0.0762
     13 C          -2.3974   -0.9272    1.1371 C.3     1  LIG1       -0.0438
     14 C          -0.0864   -1.1789    0.1851 C.2     1  LIG1       -0.0847
     15 C           0.3663    0.2488    0.0185 C.3     1  LIG1       -0.0308
     16 C          -0.1604    1.3152    0.9902 C.3     1  LIG1       -0.0286
     17 C           0.3808    2.7353    0.8083 C.2     1  LIG1       -0.0759
     18 C           1.3491    2.9766   -0.3109 C.3     1  LIG1       -0.0438
     19 C          -0.0842    3.7128    1.6164 C.2     1  LIG1       -0.0806
     20 C           0.2688    5.1833    1.6349 C.3     1  LIG1       -0.0056
     21 C           0.3191    5.8881    2.9821 C.ar    1  LIG1        0.0024
     22 C           0.5974    7.2760    3.0162 C.ar    1  LIG1       -0.0132
     23 C           0.6571    7.9720    4.2362 C.ar    1  LIG1        0.1176
     24 O           0.9486    9.3051    4.2871 O.3     1  LIG1       -0.5067
     25 C           0.4390    7.3315    5.4496 C.ar    1  LIG1       -0.0130
     26 C           0.1802    5.9744    5.4138 C.ar    1  LIG1        0.0093
     27 C          -0.0369    5.0228    6.5204 C.3     1  LIG1        0.0740
     28 C           0.1318    5.2793    4.2174 C.ar    1  LIG1        0.1390
     29 O          -0.0716    3.9134    4.4112 O.3     1  LIG1       -0.4250
     30 C          -0.1208    3.7110    5.7866 C.2     1  LIG1        0.3168
     31 O          -0.2399    2.6397    6.3021 O.2     1  LIG1       -0.2500
     32 H          -1.7059   -6.3615   -6.2959 H       1  LIG1        0.0274
     33 H          -0.8450   -5.6037   -7.6493 H       1  LIG1        0.0274
     34 H          -1.9691   -4.6536   -6.6584 H       1  LIG1        0.0274
     35 H           1.4234   -6.4576   -6.4822 H       1  LIG1        0.0274
     36 H           0.3518   -7.1605   -5.2408 H       1  LIG1        0.0274
     37 H           1.6688   -6.0887   -4.7977 H       1  LIG1        0.0274
     38 H          -0.6636   -3.1393   -5.3665 H       1  LIG1        0.0572
     39 H           1.0201   -2.3790   -3.9921 H       1  LIG1        0.0310
     40 H           2.1279   -3.4626   -4.7976 H       1  LIG1        0.0310
     41 H           2.3392   -3.8347   -2.4678 H       1  LIG1        0.0313
     42 H           1.5659   -5.2681   -3.0752 H       1  LIG1        0.0313
     43 H          -1.3050   -4.6924   -3.1407 H       1  LIG1        0.0274
     44 H          -1.2325   -2.9440   -2.7489 H       1  LIG1        0.0274
     45 H          -1.8627   -4.1528   -1.6254 H       1  LIG1        0.0274
     46 H           1.6781   -4.4557   -0.3103 H       1  LIG1        0.0572
     47 H           0.4461   -3.8891    1.5198 H       1  LIG1        0.0310
     48 H          -0.5515   -5.2022    0.9440 H       1  LIG1        0.0310
     49 H          -1.8940   -3.4269    1.7632 H       1  LIG1        0.0313
     50 H          -2.2287   -3.5259    0.0831 H       1  LIG1        0.0313
     51 H          -3.2546   -1.5667    1.3752 H       1  LIG1        0.0274
     52 H          -2.7336   -0.2294    0.3641 H       1  LIG1        0.0274
     53 H          -2.1410   -0.3886    2.0533 H       1  LIG1        0.0274
     54 H           0.6922   -1.8456   -0.1742 H       1  LIG1        0.0572
     55 H           0.1702    0.5420   -1.0198 H       1  LIG1        0.0310
     56 H           1.4596    0.2160    0.1270 H       1  LIG1        0.0310
     57 H           0.0619    0.9834    2.0141 H       1  LIG1        0.0313
     58 H          -1.2473    1.3805    0.8893 H       1  LIG1        0.0313
     59 H           2.1963    2.2894   -0.2431 H       1  LIG1        0.0274
     60 H           1.7642    3.9851   -0.3143 H       1  LIG1        0.0274
     61 H           0.8427    2.8306   -1.2708 H       1  LIG1        0.0274
     62 H          -0.8464    3.4108    2.3330 H       1  LIG1        0.0575
     63 H          -0.4909    5.6936    1.0284 H       1  LIG1        0.0357
     64 H           1.2392    5.3538    1.1577 H       1  LIG1        0.0357
     65 H           0.7810    7.8077    2.0849 H       1  LIG1        0.0658
     66 H           1.1034    9.6335    3.3868 H       1  LIG1        0.2921
     67 H           0.4958    7.8757    6.3856 H       1  LIG1        0.0658
     68 H          -0.9809    5.2158    7.0389 H       1  LIG1        0.0428
     69 H           0.8197    5.0063    7.2008 H       1  LIG1        0.0428
@<TRIPOS>BOND
     1     1     2    1
     2     2     3    1
     3     2     4    2
     4     4     5    1
     5     5     6    1
     6     6     7    1
     7     7     8    1
     8     7     9    2
     9     9    10    1
    10    10    11    1
    11    11    12    1
    12    12    13    1
    13    12    14    2
    14    14    15    1
    15    15    16    1
    16    16    17    1
    17    17    18    1
    18    17    19    2
    19    19    20    1
    20    20    21    1
    21    21    22   ar
    22    22    23   ar
    23    23    24    1
    24    23    25   ar
    25    25    26   ar
    26    26    27    1
    27    26    28   ar
    28    21    28   ar
    29    28    29    1
    30    29    30    1
    31    27    30    1
    32    30    31    2
    33     1    32    1
    34     1    33    1
    35     1    34    1
    36     3    35    1
    37     3    36    1
    38     3    37    1
    39     4    38    1
    40     5    39    1
    41     5    40    1
    42     6    41    1
    43     6    42    1
    44     8    43    1
    45     8    44    1
    46     8    45    1
    47     9    46    1
    48    10    47    1
    49    10    48    1
    50    11    49    1
    51    11    50    1
    52    13    51    1
    53    13    52    1
    54    13    53    1
    55    14    54    1
    56    15    55    1
    57    15    56    1
    58    16    57    1
    59    16    58    1
    60    18    59    1
    61    18    60    1
    62    18    61    1
    63    19    62    1
    64    20    63    1
    65    20    64    1
    66    22    65    1
    67    24    66    1
    68    25    67    1
    69    27    68    1
    70    27    69    1
