REMARK  Name = NuBBE_2201
REMARK  10 active torsions:
REMARK  status: ('A' for Active; 'I' for Inactive)
REMARK    1  A    between atoms: C_1  and  C_2
REMARK    2  A    between atoms: C_2  and  C_3
REMARK    3  A    between atoms: C_7  and  C_8
REMARK    4  A    between atoms: C_7  and  C_10
REMARK    5  A    between atoms: C_14  and  C_15
REMARK    6  A    between atoms: C_15  and  C_16
REMARK    7  A    between atoms: C_16  and  O_17
REMARK    8  A    between atoms: O_17  and  C_18
REMARK    9  A    between atoms: C_21  and  C_22
REMARK   10  A    between atoms: C_21  and  C_23
REMARK                            x       y       z     vdW  Elec       q    Type
REMARK                         _______ _______ _______ _____ _____    ______ ____
ROOT
ATOM      1  C   LIG A   1       0.037   1.379   2.041  0.00  0.00    +0.012 C 
ATOM      2  C   LIG A   1      -0.533   0.677   0.778  0.00  0.00    -0.019 C 
ATOM      3  C   LIG A   1      -1.131  -0.785   1.183  0.00  0.00    +0.012 C 
ATOM      4  C   LIG A   1      -2.711  -0.860   1.458  0.00  0.00    -0.031 C 
ATOM      5  C   LIG A   1      -3.080  -0.721   2.954  0.00  0.00    +0.011 C 
ATOM      6  C   LIG A   1      -3.257  -2.234   0.981  0.00  0.00    +0.011 C 
ATOM      7  C   LIG A   1      -3.517   0.191   0.670  0.00  0.00    +0.007 C 
ATOM      8  C   LIG A   1      -2.962   1.578   0.860  0.00  0.00    +0.001 C 
ATOM      9  C   LIG A   1      -1.613   1.634   0.185  0.00  0.00    +0.007 C 
ENDROOT
BRANCH   2  10
ATOM     10  C   LIG A   1       0.662   0.579  -0.295  0.00  0.00    +0.061 C 
ATOM     11  C   LIG A   1       1.184   1.933  -0.816  0.00  0.00    +0.138 C 
ATOM     12  C   LIG A   1       2.298   1.883  -1.822  0.00  0.00    +0.085 C 
ATOM     13  C   LIG A   1       1.915   1.048  -3.047  0.00  0.00    -0.008 C 
ATOM     14  C   LIG A   1       0.742   1.716  -3.801  0.00  0.00    +0.016 C 
ATOM     15  C   LIG A   1       1.502  -0.356  -2.558  0.00  0.00    +0.012 C 
ATOM     16  C   LIG A   1       0.370  -0.330  -1.519  0.00  0.00    +0.012 C 
ATOM     17  O   LIG A   1       0.837   3.033  -0.385  0.00  0.00    -0.297 OA
BRANCH  13  18
ATOM     18  C   LIG A   1       3.091   0.902  -4.013  0.00  0.00    -0.028 C 
ATOM     19  C   LIG A   1       4.330   1.394  -3.854  0.00  0.00    +0.004 C 
ENDBRANCH  13  18
ENDBRANCH   2  10
BRANCH   3  20
ATOM     20  C   LIG A   1      -0.350  -1.559   2.315  0.00  0.00    +0.125 C 
BRANCH  20  21
ATOM     21  C   LIG A   1       1.051  -2.058   2.003  0.00  0.00    +0.307 C 
ATOM     22  O   LIG A   1       1.620  -1.941   0.925  0.00  0.00    -0.251 OA
BRANCH  21  23
ATOM     23  O   LIG A   1       1.586  -2.711   3.071  0.00  0.00    -0.468 OA
ATOM     24  C   LIG A   1       2.899  -3.236   2.817  0.00  0.00    +0.280 C 
ENDBRANCH  21  23
ENDBRANCH  20  21
ENDBRANCH   3  20
TORSDOF 5
