REMARK  Name = NuBBE_1800
REMARK  20 active torsions:
REMARK  status: ('A' for Active; 'I' for Inactive)
REMARK    1  A    between atoms: C_4  and  C_5
REMARK    2  A    between atoms: C_5  and  C_6
REMARK    3  A    between atoms: C_6  and  O_7
REMARK    4  A    between atoms: C_6  and  C_11
REMARK    5  A    between atoms: O_7  and  C_8
REMARK    6  A    between atoms: C_8  and  C_9
REMARK    7  A    between atoms: C_8  and  C_10
REMARK    8  A    between atoms: C_11  and  O_12
REMARK    9  A    between atoms: O_12  and  C_13
REMARK   10  A    between atoms: C_13  and  C_14
REMARK   11  A    between atoms: C_13  and  C_15
REMARK   12  A    between atoms: C_17  and  C_18
REMARK   13  A    between atoms: C_18  and  C_19
REMARK   14  A    between atoms: C_19  and  C_20
REMARK   15  A    between atoms: C_20  and  C_21
REMARK   16  A    between atoms: C_21  and  C_22
REMARK   17  A    between atoms: C_22  and  C_23
REMARK   18  A    between atoms: C_23  and  C_24
REMARK   19  A    between atoms: C_24  and  C_25
REMARK   20  A    between atoms: C_25  and  C_26
REMARK                            x       y       z     vdW  Elec       q    Type
REMARK                         _______ _______ _______ _____ _____    ______ ____
ROOT
ATOM      1  O   LIG A   1      -3.812   2.254  -1.162  0.00  0.00    -0.251 OA
ATOM      2  C   LIG A   1      -2.651   1.934  -0.965  0.00  0.00    +0.311 C 
ATOM      3  O   LIG A   1      -2.078   0.797  -1.482  0.00  0.00    -0.461 OA
ATOM      4  C   LIG A   1      -1.629   2.737  -0.181  0.00  0.00    +0.104 C 
ATOM      5  C   LIG A   1      -0.363   2.196  -0.846  0.00  0.00    +0.059 C 
ATOM      6  C   LIG A   1      -0.714   0.729  -1.054  0.00  0.00    +0.177 C 
ENDROOT
BRANCH   6   7
ATOM      7  C   LIG A   1       0.158  -0.054  -2.059  0.00  0.00    +0.045 C 
BRANCH   7   8
ATOM      8  C   LIG A   1      -0.289  -1.538  -2.200  0.00  0.00    +0.003 C 
BRANCH   8   9
ATOM      9  C   LIG A   1       0.562  -2.360  -3.195  0.00  0.00    +0.000 C 
BRANCH   9  10
ATOM     10  C   LIG A   1       0.132  -3.846  -3.334  0.00  0.00    -0.000 C 
BRANCH  10  11
ATOM     11  C   LIG A   1       1.010  -4.597  -4.372  0.00  0.00    +0.000 C 
BRANCH  11  12
ATOM     12  C   LIG A   1       0.646  -6.083  -4.558  0.00  0.00    +0.001 C 
BRANCH  12  13
ATOM     13  C   LIG A   1       1.516  -6.880  -5.563  0.00  0.00    +0.013 C 
BRANCH  13  14
ATOM     14  C   LIG A   1       3.010  -6.977  -5.243  0.00  0.00    +0.088 C 
BRANCH  14  15
ATOM     15  C   LIG A   1       3.229  -7.633  -3.947  0.00  0.00    -0.106 C 
ATOM     16  C   LIG A   1       3.333  -8.171  -2.901  0.00  0.00    +0.004 C 
ENDBRANCH  14  15
ENDBRANCH  13  14
ENDBRANCH  12  13
ENDBRANCH  11  12
ENDBRANCH  10  11
ENDBRANCH   9  10
ENDBRANCH   8   9
ENDBRANCH   7   8
ENDBRANCH   6   7
BRANCH   4  17
ATOM     17  C   LIG A   1      -1.735   2.530   1.349  0.00  0.00    +0.048 C 
BRANCH  17  18
ATOM     18  C   LIG A   1      -0.720   3.364   2.183  0.00  0.00    +0.145 C 
BRANCH  18  19
ATOM     19  C   LIG A   1      -0.818   3.013   3.684  0.00  0.00    +0.191 C 
BRANCH  19  20
ATOM     20  O   LIG A   1      -0.631   1.628   3.998  0.00  0.00    -0.375 OA
BRANCH  20  21
ATOM     21  C   LIG A   1      -0.585   1.421   5.426  0.00  0.00    +0.112 C 
ATOM     22  C   LIG A   1      -1.950   1.662   6.068  0.00  0.00    +0.037 C 
ATOM     23  C   LIG A   1      -0.135  -0.009   5.705  0.00  0.00    +0.037 C 
ENDBRANCH  20  21
ENDBRANCH  19  20
ENDBRANCH  18  19
BRANCH  18  24
ATOM     24  O   LIG A   1      -0.975   4.776   1.960  0.00  0.00    -0.372 OA
BRANCH  24  25
ATOM     25  C   LIG A   1      -0.136   5.718   2.662  0.00  0.00    +0.112 C 
ATOM     26  C   LIG A   1       1.339   5.579   2.281  0.00  0.00    +0.037 C 
ATOM     27  C   LIG A   1      -0.649   7.151   2.437  0.00  0.00    +0.037 C 
ENDBRANCH  24  25
ENDBRANCH  18  24
ENDBRANCH  17  18
ENDBRANCH   4  17
TORSDOF 16
