@<TRIPOS>MOLECULE
NuBBE_680
 74 77 0 0 0
SMALL
GASTEIGER

@<TRIPOS>ATOM
      1 C           4.3875    1.5575    6.0741 C.3     1  LIG1       -0.0648
      2 C           3.5940    1.4144    4.7939 C.3     1  LIG1       -0.0499
      3 C           3.7228    2.6139    3.8370 C.3     1  LIG1       -0.0256
      4 H           4.7816    2.7791    3.5972 H       1  LIG1        0.0340
      5 C           3.1787    3.9048    4.4533 C.3     1  LIG1       -0.0590
      6 C           3.0239    2.3595    2.5291 C.2     1  LIG1       -0.0777
      7 C           2.8566    1.1526    1.9778 C.2     1  LIG1       -0.0230
      8 C           2.2656    1.0028    0.6880 C.2     1  LIG1        0.1279
      9 C           0.9994    1.3592    0.4209 C.2     1  LIG1       -0.0114
     10 C           0.5998    1.0031   -0.9268 C.2     1  LIG1       -0.0076
     11 C          -0.1689    1.8045   -1.6428 C.2     1  LIG1       -0.0069
     12 H          -0.7661    2.5863   -1.1424 H       1  LIG1        0.0660
     13 C          -0.4559    1.3501   -3.0671 C.2     1  LIG1        0.2043
     14 C          -0.0725   -0.3470   -3.5532 C.3     1  LIG1        0.1985
     15 O          -0.8463   -1.3827   -4.2981 O.3     1  LIG1       -0.4418
     16 C           0.9744   -0.1051   -4.6137 C.3     1  LIG1       -0.0130
     17 C           0.3536   -1.1478   -2.4010 C.2     1  LIG1        0.0311
     18 C           1.1453   -0.2087   -1.5690 C.2     1  LIG1        0.0255
     19 C           2.4373   -0.3542   -1.3019 C.2     1  LIG1        0.1005
     20 O           3.0738    0.3206   -0.2500 O.2     1  LIG1       -0.4629
     21 C          -0.2488   -2.4388   -2.3437 C.2     1  LIG1        0.1097
     22 C          -0.4673   -3.6676   -1.3472 C.2     1  LIG1        0.1767
     23 C          -0.3054   -3.7338    0.2248 C.3     1  LIG1        0.0563
     24 H          -1.1862   -4.2280    0.6564 H       1  LIG1        0.0414
     25 C           0.9482   -4.6013    0.5639 C.3     1  LIG1       -0.0519
     26 C          -0.1500   -2.4401    0.9908 C.3     1  LIG1        0.1099
     27 H           0.0355   -2.5762    2.0659 H       1  LIG1        0.0738
     28 O          -1.1436   -1.3657    0.8993 O.3     1  LIG1       -0.4589
     29 C          -2.2100   -1.3043    0.0615 C.2     1  LIG1        0.3411
     30 C          -2.4476    0.1615   -0.3999 C.3     1  LIG1        0.1795
     31 H          -1.9329    0.8187    0.3142 H       1  LIG1        0.0764
     32 O          -1.9194    0.1917   -1.6988 O.3     1  LIG1       -0.3639
     33 C          -2.6516   -0.3285   -2.8030 C.3     1  LIG1        0.0380
     34 C          -3.7557    0.7994   -0.6946 C.ar    1  LIG1       -0.0082
     35 C          -4.8592    0.1406   -0.2301 C.ar    1  LIG1       -0.0556
     36 C          -6.0904    0.6611   -0.5288 C.ar    1  LIG1       -0.0614
     37 C          -6.2268    1.7571   -1.3933 C.ar    1  LIG1       -0.0617
     38 C          -5.1242    2.3624   -1.9813 C.ar    1  LIG1       -0.0614
     39 C          -3.8763    1.9325   -1.5805 C.ar    1  LIG1       -0.0556
     40 O          -2.6973   -2.2648   -0.4808 O.2     1  LIG1       -0.2475
     41 C           1.1416   -1.9154    0.5004 C.3     1  LIG1       -0.0270
     42 O          -0.8587   -4.7627   -1.8454 O.2     1  LIG1       -0.2914
     43 C          -0.9451   -2.5989   -3.6982 C.2     1  LIG1        0.3443
     44 O          -1.8623   -3.5900   -4.1514 O.2     1  LIG1       -0.2448
     45 O          -1.0943    2.1674   -3.7470 O.2     1  LIG1       -0.2880
     46 H           4.2780    0.6457    6.6692 H       1  LIG1        0.0230
     47 H           4.0361    2.3984    6.6742 H       1  LIG1        0.0230
     48 H           5.4498    1.6927    5.8498 H       1  LIG1        0.0230
     49 H           2.5361    1.2397    5.0302 H       1  LIG1        0.0268
     50 H           3.9658    0.5017    4.3147 H       1  LIG1        0.0268
     51 H           3.2266    4.7371    3.7400 H       1  LIG1        0.0235
     52 H           3.7690    4.2005    5.3246 H       1  LIG1        0.0235
     53 H           2.1345    3.7904    4.7637 H       1  LIG1        0.0235
     54 H           2.6871    3.2315    1.9678 H       1  LIG1        0.0576
     55 H           3.1953    0.2313    2.4434 H       1  LIG1        0.0651
     56 H           0.3246    1.7812    1.1717 H       1  LIG1        0.0660
     57 H           0.4346    0.3572   -5.4509 H       1  LIG1        0.0276
     58 H           1.3821   -1.0618   -4.9589 H       1  LIG1        0.0276
     59 H           1.7555    0.5531   -4.2585 H       1  LIG1        0.0276
     60 H           3.0325   -1.1687   -1.6910 H       1  LIG1        0.1036
     61 H           0.8414   -5.6349    0.2414 H       1  LIG1        0.0238
     62 H           1.1465   -4.5815    1.6452 H       1  LIG1        0.0238
     63 H           1.8616   -4.2304    0.0754 H       1  LIG1        0.0238
     64 H          -2.2373    0.1390   -3.6868 H       1  LIG1        0.0524
     65 H          -3.7046   -0.0994   -2.9598 H       1  LIG1        0.0524
     66 H          -2.5161   -1.3853   -2.7590 H       1  LIG1        0.0524
     67 H          -4.7367   -0.7686    0.3476 H       1  LIG1        0.0621
     68 H          -6.9398    0.1968   -0.0500 H       1  LIG1        0.0618
     69 H          -7.2146    2.1524   -1.5878 H       1  LIG1        0.0618
     70 H          -5.2262    3.1611   -2.7146 H       1  LIG1        0.0618
     71 H          -3.0116    2.3953   -2.0759 H       1  LIG1        0.0621
     72 H           1.0528   -0.8864    0.7185 H       1  LIG1        0.0265
     73 H           1.1867   -2.1697   -0.5465 H       1  LIG1        0.0265
     74 H           2.1337   -2.2578    0.8039 H       1  LIG1        0.0265
@<TRIPOS>BOND
     1     1     2    1
     2     3     5    1
     3     3     6    1
     4     6     7    2
     5     8     9    2
     6     9    10    1
     7    10    11    2
     8    11    13    1
     9    13    14    1
    10    14    15    1
    11    14    17    1
    12    17    18    1
    13    10    18    1
    14    18    19    2
    15    19    20    1
    16     8    20    1
    17    17    21    2
    18    22    23    1
    19    23    24    1
    20    23    25    1
    21    26    28    1
    22    28    29    1
    23    29    30    1
    24    30    31    1
    25    30    32    1
    26    32    33    1
    27    30    34    1
    28    34    35   ar
    29    35    36   ar
    30    36    37   ar
    31    37    38   ar
    32    38    39   ar
    33    34    39   ar
    34    29    40    2
    35    26    41    1
    36    22    42    2
    37    21    43    1
    38    15    43    1
    39     7     8    1
    40    11    12    1
    41    13    45    2
    42    14    16    1
    43    21    22    1
    44    43    44    2
    45     3     4    1
    46     3     2    1
    47    26    27    1
    48    26    23    1
    49     1    46    1
    50     1    47    1
    51     1    48    1
    52     2    49    1
    53     2    50    1
    54     5    51    1
    55     5    52    1
    56     5    53    1
    57     6    54    1
    58     7    55    1
    59     9    56    1
    60    16    57    1
    61    16    58    1
    62    16    59    1
    63    19    60    1
    64    25    61    1
    65    25    62    1
    66    25    63    1
    67    33    64    1
    68    33    65    1
    69    33    66    1
    70    35    67    1
    71    36    68    1
    72    37    69    1
    73    38    70    1
    74    39    71    1
    75    41    72    1
    76    41    73    1
    77    41    74    1
