@<TRIPOS>MOLECULE
NuBBE_350
 36 37 0 0 0
SMALL
GASTEIGER

@<TRIPOS>ATOM
      1 O          -1.3469    0.6097   -0.8958 O.2     1  LIG1       -0.2918
      2 C          -0.2258    0.4984   -0.3998 C.2     1  LIG1        0.1692
      3 C           1.0229    0.1825   -1.2253 C.3     1  LIG1        0.1081
      4 C           0.8701    0.7673   -2.6505 C.3     1  LIG1        0.0937
      5 O           2.1372    1.2595   -3.1105 O.3     1  LIG1       -0.3865
      6 C           0.3814   -0.2018   -3.6920 C.2     1  LIG1       -0.0129
      7 C           0.3748   -1.5325   -3.4942 C.2     1  LIG1        0.1218
      8 O          -0.0530   -2.5004   -4.3675 O.2     1  LIG1       -0.4952
      9 C          -0.5854   -2.0718   -5.6154 C.3     1  LIG1        0.0788
     10 C           0.9134   -2.0878   -2.2698 C.2     1  LIG1        0.0179
     11 C           1.2235   -1.3179   -1.2152 C.2     1  LIG1        0.1108
     12 O           1.7847   -1.8346   -0.0636 O.2     1  LIG1       -0.5101
     13 C          -0.0298    0.6511    1.0751 C.2     1  LIG1       -0.0178
     14 C          -1.0644    0.9424    1.8783 C.2     1  LIG1       -0.0513
     15 C          -0.9560    1.0894    3.3372 C.ar    1  LIG1       -0.0249
     16 C          -2.0586    0.7547    4.1355 C.ar    1  LIG1       -0.0546
     17 C          -2.0027    0.8944    5.5251 C.ar    1  LIG1       -0.0612
     18 C          -0.8470    1.3812    6.1316 C.ar    1  LIG1       -0.0617
     19 C           0.2481    1.7380    5.3487 C.ar    1  LIG1       -0.0612
     20 C           0.1917    1.5985    3.9590 C.ar    1  LIG1       -0.0546
     21 H           1.8857    0.6663   -0.7483 H       1  LIG1        0.0489
     22 H           0.2011    1.6352   -2.6364 H       1  LIG1        0.0650
     23 H           2.7032    0.4823   -3.2620 H       1  LIG1        0.2103
     24 H           0.0182    0.2453   -4.6099 H       1  LIG1        0.0634
     25 H          -0.9208   -2.9591   -6.1607 H       1  LIG1        0.0660
     26 H           0.1855   -1.5778   -6.2157 H       1  LIG1        0.0660
     27 H          -1.4518   -1.4174   -5.4738 H       1  LIG1        0.0660
     28 H           1.0650   -3.1629   -2.2537 H       1  LIG1        0.0687
     29 H           1.8585   -2.8019   -0.1575 H       1  LIG1        0.2917
     30 H           0.9744    0.4915    1.4485 H       1  LIG1        0.0653
     31 H          -2.0633    1.0576    1.4603 H       1  LIG1        0.0624
     32 H          -2.9711    0.3721    3.6827 H       1  LIG1        0.0623
     33 H          -2.8623    0.6233    6.1323 H       1  LIG1        0.0618
     34 H          -0.8024    1.4900    7.2121 H       1  LIG1        0.0618
     35 H           1.1474    2.1296    5.8176 H       1  LIG1        0.0618
     36 H           1.0544    1.9057    3.3735 H       1  LIG1        0.0623
@<TRIPOS>BOND
     1     1     2    2
     2     2     3    1
     3     3     4    1
     4     4     5    1
     5     4     6    1
     6     6     7    2
     7     7     8    1
     8     8     9    1
     9     7    10    1
    10    10    11    2
    11     3    11    1
    12    11    12    1
    13     2    13    1
    14    13    14    2
    15    14    15    1
    16    15    16   ar
    17    16    17   ar
    18    17    18   ar
    19    18    19   ar
    20    19    20   ar
    21    15    20   ar
    22     3    21    1
    23     4    22    1
    24     5    23    1
    25     6    24    1
    26     9    25    1
    27     9    26    1
    28     9    27    1
    29    10    28    1
    30    12    29    1
    31    13    30    1
    32    14    31    1
    33    16    32    1
    34    17    33    1
    35    18    34    1
    36    19    35    1
    37    20    36    1
