@<TRIPOS>MOLECULE
NuBBE_1310
 52 54 0 0 0
SMALL
GASTEIGER

@<TRIPOS>ATOM
      1 O          -4.0437   -3.8306    0.4402 O.3     1  LIG1       -0.5058
      2 C          -2.7149   -3.6545    0.1807 C.ar    1  LIG1        0.1350
      3 C          -1.8631   -4.7612    0.2153 C.ar    1  LIG1        0.0261
      4 C          -0.4837   -4.6158   -0.0159 C.ar    1  LIG1        0.1687
      5 O           0.1684   -5.8223    0.0028 O.3     1  LIG1       -0.4912
      6 C           1.5722   -5.8901   -0.2092 C.3     1  LIG1        0.0790
      7 C           0.0478   -3.3319   -0.2517 C.ar    1  LIG1        0.2051
      8 O           1.4066   -3.2150   -0.3832 O.3     1  LIG1       -0.4885
      9 C           1.9074   -2.1876   -1.2341 C.3     1  LIG1        0.0791
     10 C          -0.8260   -2.2230   -0.2584 C.ar    1  LIG1        0.1881
     11 C          -2.1927   -2.3859   -0.0748 C.ar    1  LIG1        0.1128
     12 C          -3.0244   -1.1727   -0.1993 C.ar    1  LIG1        0.2382
     13 C          -2.3582    0.1375    0.0601 C.ar    1  LIG1        0.2107
     14 O          -3.0572    1.2808    0.4008 O.3     1  LIG1       -0.4883
     15 C          -4.2842    1.0519    1.0863 C.3     1  LIG1        0.0791
     16 C          -1.0163    0.1577   -0.1128 C.ar    1  LIG1        0.1812
     17 C          -0.1633    1.3416    0.0326 C.ar    1  LIG1        0.0282
     18 C           0.4566    1.5934    1.2531 C.ar    1  LIG1       -0.0053
     19 C           1.4380    2.5915    1.3744 C.ar    1  LIG1        0.1658
     20 O           2.0701    2.8507    2.5730 O.3     1  LIG1       -0.4913
     21 C           2.1740    1.7402    3.4609 C.3     1  LIG1        0.0790
     22 C           1.7978    3.3878    0.2605 C.ar    1  LIG1        0.2035
     23 O           2.8485    4.2462    0.4812 O.3     1  LIG1       -0.4885
     24 C           2.9394    5.4746   -0.2284 C.3     1  LIG1        0.0791
     25 C           1.1501    3.1576   -0.9695 C.ar    1  LIG1        0.1658
     26 O           1.5854    3.8268   -2.0896 O.3     1  LIG1       -0.4913
     27 C           0.5901    4.0991   -3.0753 C.3     1  LIG1        0.0790
     28 C           0.1708    2.1427   -1.0636 C.ar    1  LIG1       -0.0053
     29 O          -0.2874   -0.9706   -0.4480 O.2     1  LIG1       -0.4470
     30 O          -4.2129   -1.2442   -0.5624 O.2     1  LIG1       -0.2830
     31 H          -4.2938   -4.7587    0.2967 H       1  LIG1        0.2922
     32 H          -2.2573   -5.7531    0.4275 H       1  LIG1        0.0692
     33 H           1.8097   -6.9105   -0.5274 H       1  LIG1        0.0660
     34 H           2.1031   -5.6973    0.7283 H       1  LIG1        0.0660
     35 H           1.9302   -5.2521   -1.0192 H       1  LIG1        0.0660
     36 H           2.9169   -2.4693   -1.5446 H       1  LIG1        0.0660
     37 H           1.9984   -1.2522   -0.6752 H       1  LIG1        0.0660
     38 H           1.3033   -2.0649   -2.1409 H       1  LIG1        0.0660
     39 H          -4.6119    2.0061    1.5064 H       1  LIG1        0.0660
     40 H          -4.1612    0.3425    1.9136 H       1  LIG1        0.0660
     41 H          -5.0642    0.7195    0.3962 H       1  LIG1        0.0660
     42 H           0.1769    0.9786    2.1003 H       1  LIG1        0.0662
     43 H           2.6803    0.9009    2.9715 H       1  LIG1        0.0660
     44 H           1.1951    1.4362    3.8462 H       1  LIG1        0.0660
     45 H           2.7712    2.0422    4.3257 H       1  LIG1        0.0660
     46 H           3.8674    5.4842   -0.8110 H       1  LIG1        0.0660
     47 H           3.0128    6.2827    0.5085 H       1  LIG1        0.0660
     48 H           2.0911    5.7129   -0.8713 H       1  LIG1        0.0660
     49 H           1.0553    4.6901   -3.8701 H       1  LIG1        0.0660
     50 H          -0.2302    4.6867   -2.6492 H       1  LIG1        0.0660
     51 H           0.2152    3.1857   -3.5461 H       1  LIG1        0.0660
     52 H          -0.3035    1.9151   -2.0117 H       1  LIG1        0.0662
@<TRIPOS>BOND
     1     1     2    1
     2     2     3   ar
     3     3     4   ar
     4     4     5    1
     5     5     6    1
     6     4     7   ar
     7     7     8    1
     8     8     9    1
     9     7    10   ar
    10    10    11   ar
    11     2    11   ar
    12    11    12   ar
    13    12    13   ar
    14    13    14    1
    15    14    15    1
    16    13    16   ar
    17    16    17    1
    18    17    18   ar
    19    18    19   ar
    20    19    20    1
    21    20    21    1
    22    19    22   ar
    23    22    23    1
    24    23    24    1
    25    22    25   ar
    26    25    26    1
    27    26    27    1
    28    25    28   ar
    29    17    28   ar
    30    16    29   ar
    31    10    29   ar
    32    12    30    2
    33     1    31    1
    34     3    32    1
    35     6    33    1
    36     6    34    1
    37     6    35    1
    38     9    36    1
    39     9    37    1
    40     9    38    1
    41    15    39    1
    42    15    40    1
    43    15    41    1
    44    18    42    1
    45    21    43    1
    46    21    44    1
    47    21    45    1
    48    24    46    1
    49    24    47    1
    50    24    48    1
    51    27    49    1
    52    27    50    1
    53    27    51    1
    54    28    52    1
