@<TRIPOS>MOLECULE
NuBBE_2122
 24 23 0 0 0
SMALL
GASTEIGER

@<TRIPOS>ATOM
      1 C          -2.8971   -0.0784   -2.3907 C.2     1  LIG1       -0.1026
      2 C          -1.9632    0.8626   -2.1787 C.2     1  LIG1       -0.0911
      3 C          -1.8365    1.6423   -0.9013 C.3     1  LIG1       -0.0350
      4 C          -0.4675    1.4928   -0.2219 C.3     1  LIG1       -0.0496
      5 C          -0.1381    0.0508    0.1852 C.3     1  LIG1       -0.0528
      6 C           1.2286   -0.0535    0.8741 C.3     1  LIG1       -0.0533
      7 C           1.5455   -1.4981    1.2729 C.3     1  LIG1       -0.0559
      8 C           2.8947   -1.6207    1.9667 C.3     1  LIG1       -0.0653
      9 H          -2.9426   -0.6125   -3.3330 H       1  LIG1        0.0532
     10 H          -3.6278   -0.3347   -1.6312 H       1  LIG1        0.0532
     11 H          -1.2552    1.0899   -2.9723 H       1  LIG1        0.0566
     12 H          -2.6261    1.3588   -0.1947 H       1  LIG1        0.0307
     13 H          -1.9970    2.7028   -1.1354 H       1  LIG1        0.0307
     14 H          -0.4608    2.1289    0.6724 H       1  LIG1        0.0268
     15 H           0.3153    1.8777   -0.8871 H       1  LIG1        0.0268
     16 H          -0.1362   -0.5947   -0.7005 H       1  LIG1        0.0265
     17 H          -0.9188   -0.3235    0.8583 H       1  LIG1        0.0265
     18 H           1.2454    0.5873    1.7637 H       1  LIG1        0.0265
     19 H           2.0076    0.3145    0.1951 H       1  LIG1        0.0265
     20 H           1.5472   -2.1347    0.3805 H       1  LIG1        0.0263
     21 H           0.7658   -1.8808    1.9417 H       1  LIG1        0.0263
     22 H           3.7015   -1.2308    1.3381 H       1  LIG1        0.0230
     23 H           3.1140   -2.6718    2.1828 H       1  LIG1        0.0230
     24 H           2.9014   -1.0742    2.9152 H       1  LIG1        0.0230
@<TRIPOS>BOND
     1     1     2    2
     2     2     3    1
     3     3     4    1
     4     4     5    1
     5     5     6    1
     6     6     7    1
     7     7     8    1
     8     1     9    1
     9     1    10    1
    10     2    11    1
    11     3    12    1
    12     3    13    1
    13     4    14    1
    14     4    15    1
    15     5    16    1
    16     5    17    1
    17     6    18    1
    18     6    19    1
    19     7    20    1
    20     7    21    1
    21     8    22    1
    22     8    23    1
    23     8    24    1
