REMARK  Name = NuBBE_2397
REMARK  9 active torsions:
REMARK  status: ('A' for Active; 'I' for Inactive)
REMARK    1  A    between atoms: C_1  and  C_3
REMARK    2  A    between atoms: C_1  and  C_11
REMARK    3  A    between atoms: C_4  and  C_5
REMARK    4  A    between atoms: C_12  and  O_13
REMARK    5  A    between atoms: C_15  and  O_18
REMARK    6  A    between atoms: O_18  and  C_19
REMARK    7  A    between atoms: C_19  and  C_20
REMARK    8  A    between atoms: C_21  and  C_22
REMARK    9  A    between atoms: C_21  and  C_23
REMARK                            x       y       z     vdW  Elec       q    Type
REMARK                         _______ _______ _______ _____ _____    ______ ____
ROOT
ATOM      1  C   LIG A   1      -1.004  -0.395   1.083  0.00  0.00    +0.063 A 
ATOM      2  C   LIG A   1      -0.060   0.639   1.109  0.00  0.00    +0.131 A 
ATOM      3  C   LIG A   1       1.295   0.368   0.884  0.00  0.00    +0.091 A 
ATOM      4  C   LIG A   1       1.729  -0.941   0.658  0.00  0.00    +0.124 A 
ATOM      5  C   LIG A   1       0.798  -1.980   0.677  0.00  0.00    +0.046 A 
ATOM      6  C   LIG A   1      -0.555  -1.709   0.892  0.00  0.00    +0.019 A 
ENDROOT
BRANCH   1   7
ATOM      7  C   LIG A   1      -2.475  -0.219   1.247  0.00  0.00    +0.190 C 
ATOM      8  O   LIG A   1      -3.142  -1.116   1.750  0.00  0.00    -0.287 OA
BRANCH   7   9
ATOM      9  C   LIG A   1      -3.106   1.014   0.704  0.00  0.00    +0.052 C 
ATOM     10  C   LIG A   1      -4.433   1.187   0.785  0.00  0.00    +0.012 C 
BRANCH  10  11
ATOM     11  C   LIG A   1      -5.047   2.422   0.302  0.00  0.00    -0.025 A 
ATOM     12  C   LIG A   1      -5.188   3.509   1.171  0.00  0.00    +0.008 A 
ATOM     13  C   LIG A   1      -5.747   4.704   0.718  0.00  0.00    +0.001 A 
ATOM     14  C   LIG A   1      -6.165   4.819  -0.607  0.00  0.00    +0.000 A 
ATOM     15  C   LIG A   1      -6.020   3.741  -1.480  0.00  0.00    +0.001 A 
ATOM     16  C   LIG A   1      -5.460   2.544  -1.028  0.00  0.00    +0.008 A 
ENDBRANCH  10  11
ENDBRANCH   7   9
ENDBRANCH   1   7
BRANCH   2  17
ATOM     17  O   LIG A   1      -0.434   1.925   1.386  0.00  0.00    -0.506 OA
ATOM     18  H   LIG A   1       0.353   2.495   1.408  0.00  0.00    +0.292 HD
ENDBRANCH   2  17
BRANCH   4  19
ATOM     19  O   LIG A   1       3.076  -1.080   0.444  0.00  0.00    -0.488 OA
BRANCH  19  20
ATOM     20  C   LIG A   1       3.530  -2.410   0.192  0.00  0.00    +0.256 C 
BRANCH  20  21
ATOM     21  C   LIG A   1       5.018  -2.390   0.012  0.00  0.00    +0.012 C 
ATOM     22  C   LIG A   1       5.723  -2.785  -1.068  0.00  0.00    -0.076 C 
ATOM     23  C   LIG A   1       5.125  -3.264  -2.362  0.00  0.00    +0.038 C 
ATOM     24  C   LIG A   1       7.229  -2.774  -1.052  0.00  0.00    +0.038 C 
ENDBRANCH  20  21
ENDBRANCH  19  20
ENDBRANCH   4  19
TORSDOF 7
