REMARK  Name = NuBBE_1108
REMARK  14 active torsions:
REMARK  status: ('A' for Active; 'I' for Inactive)
REMARK    1  A    between atoms: C_1  and  C_2
REMARK    2  A    between atoms: C_2  and  C_3
REMARK    3  A    between atoms: C_3  and  C_4
REMARK    4  A    between atoms: C_4  and  C_5
REMARK    5  A    between atoms: C_5  and  O_6
REMARK    6  A    between atoms: C_5  and  C_7
REMARK    7  A    between atoms: C_7  and  O_8
REMARK    8  A    between atoms: C_7  and  C_9
REMARK    9  A    between atoms: C_7  and  C_10
REMARK   10  A    between atoms: C_11  and  C_12
REMARK   11  A    between atoms: C_12  and  C_13
REMARK   12  A    between atoms: C_14  and  O_15
REMARK   13  A    between atoms: O_15  and  C_16
REMARK   14  A    between atoms: N_19  and  C_20
REMARK                            x       y       z     vdW  Elec       q    Type
REMARK                         _______ _______ _______ _____ _____    ______ ____
ROOT
ATOM      1  C   LIG A   1      -1.727  -0.477  -1.300  0.00  0.00    +0.071 C 
ENDROOT
BRANCH   1   2
ATOM      2  C   LIG A   1      -1.347   0.646  -2.252  0.00  0.00    +0.063 A 
ATOM      3  C   LIG A   1      -0.363   0.665  -3.183  0.00  0.00    +0.138 A 
ATOM      4  C   LIG A   1      -0.033   1.933  -3.886  0.00  0.00    +0.041 A 
ATOM      5  C   LIG A   1      -0.733   3.109  -3.586  0.00  0.00    +0.055 A 
ATOM      6  N   LIG A   1      -1.824   3.051  -2.679  0.00  0.00    -0.311 N 
ATOM      7  C   LIG A   1      -2.613   4.246  -2.418  0.00  0.00    +0.152 C 
ATOM      8  C   LIG A   1      -2.198   1.872  -2.058  0.00  0.00    +0.259 A 
ATOM      9  O   LIG A   1      -3.204   1.802  -1.339  0.00  0.00    -0.267 OA
ATOM     10  C   LIG A   1      -0.354   4.319  -4.201  0.00  0.00    +0.026 A 
ATOM     11  C   LIG A   1       0.690   4.363  -5.126  0.00  0.00    +0.002 A 
ATOM     12  C   LIG A   1       1.365   3.197  -5.453  0.00  0.00    +0.001 A 
ATOM     13  C   LIG A   1       1.008   1.995  -4.837  0.00  0.00    +0.013 A 
BRANCH   3  14
ATOM     14  O   LIG A   1       0.487  -0.358  -3.542  0.00  0.00    -0.494 OA
ATOM     15  C   LIG A   1       0.066  -1.708  -3.467  0.00  0.00    +0.277 C 
ENDBRANCH   3  14
ENDBRANCH   1   2
BRANCH   1  18
ATOM     16  C   LIG A   1      -2.741  -1.445   1.503  0.00  0.00    +0.038 C 
ATOM     17  C   LIG A   1      -1.422  -0.773   1.229  0.00  0.00    -0.076 C 
ATOM     18  C   LIG A   1      -0.989  -0.377   0.013  0.00  0.00    -0.023 C 
BRANCH  17  19
ATOM     19  C   LIG A   1      -0.578  -0.506   2.461  0.00  0.00    +0.033 C 
BRANCH  19  20
ATOM     20  C   LIG A   1       0.359  -1.674   2.797  0.00  0.00    +0.038 C 
BRANCH  20  21
ATOM     21  C   LIG A   1       1.215  -1.379   4.043  0.00  0.00    +0.146 C 
BRANCH  21  22
ATOM     22  C   LIG A   1       2.237  -2.505   4.384  0.00  0.00    +0.086 C 
ATOM     23  C   LIG A   1       3.257  -2.701   3.258  0.00  0.00    +0.043 C 
ATOM     24  C   LIG A   1       2.979  -2.205   5.693  0.00  0.00    +0.043 C 
BRANCH  22  25
ATOM     25  O   LIG A   1       1.522  -3.731   4.609  0.00  0.00    -0.387 OA
ATOM     26  H   LIG A   1       1.439  -4.200   3.761  0.00  0.00    +0.210 HD
ENDBRANCH  22  25
ENDBRANCH  21  22
BRANCH  21  27
ATOM     27  O   LIG A   1       0.325  -1.182   5.149  0.00  0.00    -0.389 OA
ATOM     28  H   LIG A   1       0.055  -2.074   5.441  0.00  0.00    +0.210 HD
ENDBRANCH  21  27
ENDBRANCH  20  21
ENDBRANCH  19  20
ENDBRANCH  17  19
ENDBRANCH   1  18
TORSDOF 9
