@<TRIPOS>MOLECULE
NuBBE_24
 35 36 0 0 0
SMALL
GASTEIGER

@<TRIPOS>ATOM
      1 O           0.5132    2.4483   -0.9866 O.2     1  LIG1       -0.2708
      2 C          -0.0216    1.7684   -0.1242 C.2     1  LIG1        0.2369
      3 N          -1.2179    2.0719    0.4811 N.am    1  LIG1       -0.3116
      4 H          -1.6097    1.4339    1.1588 H       1  LIG1        0.1490
      5 C          -2.0409    3.1968    0.0670 C.3     1  LIG1        0.0142
      6 C          -3.0224    2.8185   -1.0561 C.3     1  LIG1       -0.0311
      7 C          -4.0064    1.7307   -0.6156 C.3     1  LIG1       -0.0612
      8 C          -3.7981    4.0479   -1.5355 C.3     1  LIG1       -0.0612
      9 C           0.5572    0.4897    0.3696 C.2     1  LIG1        0.0007
     10 C           1.7012    0.0208   -0.1503 C.2     1  LIG1       -0.0496
     11 C           2.2807   -1.2489    0.2921 C.ar    1  LIG1       -0.0212
     12 C           1.9392   -2.4417   -0.3607 C.ar    1  LIG1       -0.0090
     13 C           2.5128   -3.6125    0.0926 C.ar    1  LIG1        0.1668
     14 O           2.2987   -4.8544   -0.4205 O.3     1  LIG1       -0.4526
     15 C           3.1418   -5.6528    0.4366 C.3     1  LIG1        0.2332
     16 O           3.8432   -4.8796    1.4324 O.3     1  LIG1       -0.4526
     17 C           3.3924   -3.6283    1.1495 C.ar    1  LIG1        0.1663
     18 C           3.7462   -2.4750    1.8152 C.ar    1  LIG1       -0.0156
     19 C           3.1793   -1.2717    1.3797 C.ar    1  LIG1       -0.0509
     20 H          -1.3845    4.0091   -0.2658 H       1  LIG1        0.0465
     21 H          -2.5805    3.5428    0.9555 H       1  LIG1        0.0465
     22 H          -2.4479    2.4280   -1.9053 H       1  LIG1        0.0311
     23 H          -4.6606    2.0833    0.1893 H       1  LIG1        0.0233
     24 H          -3.4830    0.8373   -0.2616 H       1  LIG1        0.0233
     25 H          -4.6408    1.4257   -1.4551 H       1  LIG1        0.0233
     26 H          -4.4162    4.4712   -0.7357 H       1  LIG1        0.0233
     27 H          -4.4614    3.7854   -2.3673 H       1  LIG1        0.0233
     28 H          -3.1168    4.8291   -1.8877 H       1  LIG1        0.0233
     29 H           0.0252   -0.0537    1.1398 H       1  LIG1        0.0669
     30 H           2.2416    0.5570   -0.9269 H       1  LIG1        0.0625
     31 H           1.2520   -2.4556   -1.1997 H       1  LIG1        0.0661
     32 H           3.8775   -6.1782   -0.1836 H       1  LIG1        0.1166
     33 H           2.5187   -6.3966    0.9468 H       1  LIG1        0.1166
     34 H           4.4427   -2.5009    2.6456 H       1  LIG1        0.0655
     35 H           3.4452   -0.3462    1.8867 H       1  LIG1        0.0625
@<TRIPOS>BOND
     1     1     2    2
     2     2     3   am
     3     3     4    1
     4     3     5    1
     5     5     6    1
     6     6     7    1
     7     6     8    1
     8     2     9    1
     9     9    10    2
    10    10    11    1
    11    11    12   ar
    12    12    13   ar
    13    13    14    1
    14    14    15    1
    15    15    16    1
    16    13    17   ar
    17    16    17    1
    18    17    18   ar
    19    18    19   ar
    20    11    19   ar
    21     5    20    1
    22     5    21    1
    23     6    22    1
    24     7    23    1
    25     7    24    1
    26     7    25    1
    27     8    26    1
    28     8    27    1
    29     8    28    1
    30     9    29    1
    31    10    30    1
    32    12    31    1
    33    15    32    1
    34    15    33    1
    35    18    34    1
    36    19    35    1
