REMARK  Name = NuBBE_8
REMARK  12 active torsions:
REMARK  status: ('A' for Active; 'I' for Inactive)
REMARK    1  A    between atoms: C_4  and  O_38
REMARK    2  A    between atoms: C_6  and  O_37
REMARK    3  A    between atoms: C_10  and  C_11
REMARK    4  A    between atoms: C_13  and  O_14
REMARK    5  A    between atoms: C_15  and  O_18
REMARK    6  A    between atoms: C_19  and  O_20
REMARK    7  A    between atoms: O_20  and  C_21
REMARK    8  A    between atoms: C_24  and  C_32
REMARK    9  A    between atoms: C_26  and  O_31
REMARK   10  A    between atoms: C_28  and  O_30
REMARK   11  A    between atoms: C_32  and  O_33
REMARK   12  A    between atoms: C_34  and  O_36
REMARK                            x       y       z     vdW  Elec       q    Type
REMARK                         _______ _______ _______ _____ _____    ______ ____
ROOT
ATOM      1  O   LIG A   1       0.709  -1.606  -2.024  0.00  0.00    -0.283 OA
ATOM      2  C   LIG A   1       1.128  -1.435  -0.888  0.00  0.00    +0.238 A 
ATOM      3  C   LIG A   1       1.605  -2.599  -0.147  0.00  0.00    +0.109 A 
ATOM      4  C   LIG A   1       1.357  -3.900  -0.603  0.00  0.00    +0.135 A 
ATOM      5  C   LIG A   1       1.769  -4.994   0.148  0.00  0.00    +0.091 A 
ATOM      6  C   LIG A   1       2.446  -4.769   1.343  0.00  0.00    +0.124 A 
ATOM      7  C   LIG A   1       2.704  -3.474   1.797  0.00  0.00    +0.092 A 
ATOM      8  C   LIG A   1       2.269  -2.382   1.048  0.00  0.00    +0.146 A 
ATOM      9  O   LIG A   1       2.524  -1.121   1.518  0.00  0.00    -0.451 OA
ATOM     10  C   LIG A   1       1.842  -0.036   0.957  0.00  0.00    +0.181 A 
ATOM     11  C   LIG A   1       1.096  -0.123  -0.169  0.00  0.00    +0.214 A 
ENDROOT
BRANCH  10  12
ATOM     12  C   LIG A   1       2.042   1.219   1.740  0.00  0.00    +0.025 A 
ATOM     13  C   LIG A   1       2.126   2.482   1.123  0.00  0.00    +0.060 A 
ATOM     14  C   LIG A   1       2.424   3.617   1.876  0.00  0.00    +0.159 A 
ATOM     15  C   LIG A   1       2.646   3.518   3.245  0.00  0.00    +0.158 A 
ATOM     16  C   LIG A   1       2.563   2.294   3.883  0.00  0.00    +0.050 A 
ATOM     17  C   LIG A   1       2.264   1.150   3.132  0.00  0.00    +0.015 A 
BRANCH  14  18
ATOM     18  O   LIG A   1       2.534   4.856   1.305  0.00  0.00    -0.503 OA
ATOM     19  H   LIG A   1       2.376   4.766   0.350  0.00  0.00    +0.292 HD
ENDBRANCH  14  18
BRANCH  15  20
ATOM     20  O   LIG A   1       2.967   4.630   3.968  0.00  0.00    -0.503 OA
ATOM     21  H   LIG A   1       2.990   5.354   3.310  0.00  0.00    +0.292 HD
ENDBRANCH  15  20
ENDBRANCH  10  12
BRANCH   6  22
ATOM     22  O   LIG A   1       2.878  -5.812   2.108  0.00  0.00    -0.506 OA
ATOM     23  H   LIG A   1       2.650  -6.646   1.662  0.00  0.00    +0.292 HD
ENDBRANCH   6  22
BRANCH   4  24
ATOM     24  O   LIG A   1       0.698  -4.169  -1.773  0.00  0.00    -0.506 OA
ATOM     25  H   LIG A   1       0.630  -3.331  -2.283  0.00  0.00    +0.292 HD
ENDBRANCH   4  24
BRANCH  11  26
ATOM     26  O   LIG A   1       0.314   0.932  -0.629  0.00  0.00    -0.453 OA
BRANCH  26  27
ATOM     27  C   LIG A   1      -0.877   0.608  -1.369  0.00  0.00    +0.340 C 
ATOM     28  O   LIG A   1      -1.453   1.836  -1.864  0.00  0.00    -0.331 OA
ATOM     29  C   LIG A   1      -2.675   1.666  -2.628  0.00  0.00    +0.179 C 
ATOM     30  C   LIG A   1      -3.165   0.212  -2.732  0.00  0.00    +0.177 C 
ATOM     31  C   LIG A   1      -3.151  -0.506  -1.379  0.00  0.00    +0.180 C 
ATOM     32  C   LIG A   1      -1.957  -0.096  -0.502  0.00  0.00    +0.214 C 
BRANCH  31  33
ATOM     33  O   LIG A   1      -4.388  -0.253  -0.692  0.00  0.00    -0.386 OA
ATOM     34  H   LIG A   1      -4.328  -0.709   0.171  0.00  0.00    +0.210 HD
ENDBRANCH  31  33
BRANCH  30  35
ATOM     35  O   LIG A   1      -4.452   0.101  -3.335  0.00  0.00    -0.387 OA
ATOM     36  H   LIG A   1      -5.092   0.035  -2.595  0.00  0.00    +0.210 HD
ENDBRANCH  30  35
BRANCH  32  37
ATOM     37  O   LIG A   1      -1.522  -1.252   0.229  0.00  0.00    -0.383 OA
ATOM     38  H   LIG A   1      -1.378  -1.984  -0.398  0.00  0.00    +0.210 HD
ENDBRANCH  32  37
BRANCH  29  39
ATOM     39  C   LIG A   1      -3.726   2.612  -2.030  0.00  0.00    +0.190 C 
BRANCH  39  40
ATOM     40  O   LIG A   1      -3.260   3.961  -2.107  0.00  0.00    -0.392 OA
ATOM     41  H   LIG A   1      -2.331   3.938  -1.806  0.00  0.00    +0.209 HD
ENDBRANCH  39  40
ENDBRANCH  29  39
ENDBRANCH  26  27
ENDBRANCH  11  26
TORSDOF 12
