@<TRIPOS>MOLECULE
NuBBE_208
 79 82 0 0 0
SMALL
GASTEIGER

@<TRIPOS>ATOM
      1 C          -3.5602   -4.7215    0.5193 C.3     1  LIG1        0.0790
      2 O          -2.4222   -4.4139   -0.2602 O.3     1  LIG1       -0.4913
      3 C          -2.0243   -3.1087   -0.1856 C.ar    1  LIG1        0.1653
      4 C          -1.4314   -2.5880   -1.3386 C.ar    1  LIG1        0.2013
      5 C          -0.9313   -1.2698   -1.3902 C.ar    1  LIG1        0.1690
      6 O          -0.2529   -0.7481   -2.4717 O.3     1  LIG1       -0.4910
      7 C           0.0870   -1.6559   -3.5395 C.3     1  LIG1        0.0790
      8 C          -1.0292   -0.4796   -0.2051 C.ar    1  LIG1        0.0091
      9 C          -0.5713    0.9856   -0.0995 C.3     1  LIG1        0.0185
     10 H           0.0512    1.2140   -0.9728 H       1  LIG1        0.0402
     11 C           0.3500    1.1437    1.1850 C.3     1  LIG1       -0.0013
     12 H           0.6673    2.1856    1.3167 H       1  LIG1        0.0335
     13 C          -0.2974    0.6354    2.5019 C.3     1  LIG1       -0.0081
     14 H           0.4424    0.0178    3.0297 H       1  LIG1        0.0330
     15 C          -1.5272   -0.2769    2.2919 C.3     1  LIG1       -0.0219
     16 C          -1.5492   -1.0410    0.9864 C.ar    1  LIG1       -0.0361
     17 C          -2.0894   -2.3360    0.9623 C.ar    1  LIG1       -0.0126
     18 C          -0.5708    1.7976    3.4707 C.3     1  LIG1        0.0477
     19 O          -1.4848    2.7224    2.9136 O.3     1  LIG1       -0.3947
     20 C           1.6249    0.3216    0.8979 C.3     1  LIG1        0.0548
     21 O           2.6666    0.2392    1.8598 O.3     1  LIG1       -0.3484
     22 C           3.7612   -0.6250    1.4101 C.3     1  LIG1        0.1879
     23 H           4.4434   -0.6568    2.2681 H       1  LIG1        0.0937
     24 C           3.3481   -2.1067    1.0915 C.3     1  LIG1        0.1341
     25 H           2.4835   -2.3976    1.6987 H       1  LIG1        0.0671
     26 C           3.0925   -2.3467   -0.4120 C.3     1  LIG1        0.1141
     27 H           3.0910   -3.4270   -0.5940 H       1  LIG1        0.0648
     28 C           4.0956   -1.6555   -1.3380 C.3     1  LIG1        0.1119
     29 H           3.5748   -0.8996   -1.9413 H       1  LIG1        0.0647
     30 C           5.1710   -0.9082   -0.5488 C.3     1  LIG1        0.1130
     31 H           5.8309   -1.5730    0.0203 H       1  LIG1        0.0647
     32 O           4.4991    0.0126    0.3436 O.3     1  LIG1       -0.3405
     33 C           6.0352   -0.1155   -1.5427 C.3     1  LIG1        0.0730
     34 O           7.0680    0.6093   -0.8819 O.3     1  LIG1       -0.3924
     35 O           4.5873   -2.5946   -2.2913 O.3     1  LIG1       -0.3865
     36 O           1.7981   -1.9482   -0.8331 O.3     1  LIG1       -0.3864
     37 O           4.4279   -2.9870    1.4853 O.3     1  LIG1       -0.3841
     38 C          -1.7268    1.9938   -0.2027 C.ar    1  LIG1       -0.0324
     39 C          -3.0535    1.6234   -0.4819 C.ar    1  LIG1       -0.0123
     40 C          -4.0982    2.5680   -0.5604 C.ar    1  LIG1        0.1653
     41 O          -5.3914    2.1660   -0.6772 O.3     1  LIG1       -0.4913
     42 C          -5.6563    0.8483   -0.1371 C.3     1  LIG1        0.0790
     43 C          -3.8088    3.9313   -0.5438 C.ar    1  LIG1        0.2010
     44 C          -2.4475    4.3339   -0.3521 C.ar    1  LIG1        0.1653
     45 O          -2.1130    5.6747   -0.3552 O.3     1  LIG1       -0.4913
     46 C          -0.7678    5.9557   -0.7411 C.3     1  LIG1        0.0790
     47 C          -1.4746    3.3469   -0.1227 C.ar    1  LIG1       -0.0123
     48 O          -4.7149    4.9021   -0.7366 O.3     1  LIG1       -0.5009
     49 O          -1.3379   -3.4601   -2.4006 O.3     1  LIG1       -0.5009
     50 H          -3.8959   -5.7280    0.2401 H       1  LIG1        0.0660
     51 H          -4.3818   -4.0248    0.3230 H       1  LIG1        0.0660
     52 H          -3.3050   -4.7441    1.5830 H       1  LIG1        0.0660
     53 H           0.8621   -1.2113   -4.1694 H       1  LIG1        0.0660
     54 H          -0.7866   -1.8480   -4.1748 H       1  LIG1        0.0660
     55 H           0.5361   -2.5910   -3.1768 H       1  LIG1        0.0660
     56 H          -2.4739    0.2621    2.4186 H       1  LIG1        0.0317
     57 H          -1.4921   -1.0199    3.1038 H       1  LIG1        0.0317
     58 H          -2.5091   -2.7337    1.8854 H       1  LIG1        0.0658
     59 H           0.3669    2.3249    3.6839 H       1  LIG1        0.0560
     60 H          -0.9790    1.4372    4.4199 H       1  LIG1        0.0560
     61 H          -1.4898    3.5150    3.4779 H       1  LIG1        0.2094
     62 H           2.0585    0.7021   -0.0299 H       1  LIG1        0.0564
     63 H           1.2550   -0.6907    0.8202 H       1  LIG1        0.0564
     64 H           6.5117   -0.7901   -2.2610 H       1  LIG1        0.0584
     65 H           5.4302    0.6088   -2.0995 H       1  LIG1        0.0584
     66 H           6.6302    1.3479   -0.4224 H       1  LIG1        0.2095
     67 H           3.8051   -2.9157   -2.7829 H       1  LIG1        0.2100
     68 H           1.8162   -1.0067   -1.0942 H       1  LIG1        0.2100
     69 H           4.1135   -3.9064    1.4052 H       1  LIG1        0.2101
     70 H          -3.2414    0.5824   -0.6487 H       1  LIG1        0.0658
     71 H          -6.7123    0.6039   -0.2663 H       1  LIG1        0.0660
     72 H          -5.4254    0.8261    0.9358 H       1  LIG1        0.0660
     73 H          -5.1098    0.0510   -0.6577 H       1  LIG1        0.0660
     74 H          -0.6185    7.0309   -0.7914 H       1  LIG1        0.0660
     75 H          -0.5477    5.5230   -1.7283 H       1  LIG1        0.0660
     76 H          -0.0440    5.5850    0.0011 H       1  LIG1        0.0660
     77 H          -0.4631    3.6530    0.1746 H       1  LIG1        0.0658
     78 H          -5.4987    4.6237   -0.2748 H       1  LIG1        0.2924
     79 H          -1.2761   -4.3555   -1.9894 H       1  LIG1        0.2924
@<TRIPOS>BOND
     1     1     2    1
     2     2     3    1
     3     3     4   ar
     4     4     5   ar
     5     5     6    1
     6     6     7    1
     7     5     8   ar
     8     8     9    1
     9     9    11    1
    10    11    12    1
    11    11    13    1
    12    13    14    1
    13    13    15    1
    14    15    16    1
    15     8    16   ar
    16    16    17   ar
    17     3    17   ar
    18    13    18    1
    19    18    19    1
    20    11    20    1
    21    20    21    1
    22    21    22    1
    23    22    23    1
    24    22    24    1
    25    24    26    1
    26    26    28    1
    27    28    29    1
    28    28    30    1
    29    30    32    1
    30    22    32    1
    31    33    34    1
    32    28    35    1
    33    38    39   ar
    34    39    40   ar
    35    40    41    1
    36    41    42    1
    37    40    43   ar
    38    43    44   ar
    39    44    45    1
    40    45    46    1
    41    44    47   ar
    42    38    47   ar
    43    43    48    1
    44     4    49    1
    45     9    38    1
    46     9    10    1
    47    24    37    1
    48    24    25    1
    49    26    36    1
    50    26    27    1
    51    30    33    1
    52    30    31    1
    53     1    50    1
    54     1    51    1
    55     1    52    1
    56     7    53    1
    57     7    54    1
    58     7    55    1
    59    15    56    1
    60    15    57    1
    61    17    58    1
    62    18    59    1
    63    18    60    1
    64    19    61    1
    65    20    62    1
    66    20    63    1
    67    33    64    1
    68    33    65    1
    69    34    66    1
    70    35    67    1
    71    36    68    1
    72    37    69    1
    73    39    70    1
    74    42    71    1
    75    42    72    1
    76    42    73    1
    77    46    74    1
    78    46    75    1
    79    46    76    1
    80    47    77    1
    81    48    78    1
    82    49    79    1
