@<TRIPOS>MOLECULE
NuBBE_215
 40 44 0 0 0
SMALL
GASTEIGER

@<TRIPOS>ATOM
      1 C          -2.7009    0.4357    3.0448 C.3     1  LIG1        0.0124
      2 C          -1.6108    1.4793    3.0494 C.2     1  LIG1        0.2130
      3 N          -0.6356    1.4022    2.0653 N.am    1  LIG1       -0.2940
      4 C          -0.5507    0.3361    1.0521 C.3     1  LIG1        0.0561
      5 C           0.1372    0.7606   -0.2477 C.ar    1  LIG1       -0.0120
      6 C           0.4247   -0.2564   -1.2022 C.ar    1  LIG1        0.0331
      7 C           0.1809   -1.6754   -0.8347 C.ar    1  LIG1       -0.0107
      8 C           0.0451   -2.7102   -1.7725 C.ar    1  LIG1       -0.0536
      9 C          -0.1478   -4.0364   -1.3708 C.ar    1  LIG1       -0.0612
     10 C          -0.2112   -4.3582   -0.0191 C.ar    1  LIG1       -0.0615
     11 C          -0.1002   -3.3534    0.9365 C.ar    1  LIG1       -0.0579
     12 C           0.0745   -2.0202    0.5374 C.ar    1  LIG1       -0.0375
     13 C           0.1627   -0.9237    1.5797 C.3     1  LIG1       -0.0042
     14 C           0.9915    0.1783   -2.3974 C.ar    1  LIG1        0.1742
     15 C           1.2628    1.5108   -2.6414 C.ar    1  LIG1        0.1671
     16 O           1.8266    1.7249   -3.8621 O.3     1  LIG1       -0.4526
     17 C           1.8992    0.3812   -4.3668 C.3     1  LIG1        0.2333
     18 O           1.3836   -0.5994   -3.4495 O.3     1  LIG1       -0.4520
     19 C           1.0174    2.4999   -1.7148 C.ar    1  LIG1       -0.0126
     20 C           0.4712    2.1201   -0.4869 C.ar    1  LIG1       -0.0367
     21 C           0.2563    3.1439    0.5991 C.3     1  LIG1       -0.0113
     22 C           0.3526    2.4729    1.9684 C.3     1  LIG1        0.0193
     23 O          -1.6310    2.3750    3.8948 O.2     1  LIG1       -0.2759
     24 H          -2.2877   -0.5700    3.1266 H       1  LIG1        0.0323
     25 H          -3.3078    0.5306    2.1408 H       1  LIG1        0.0323
     26 H          -3.3540    0.5966    3.9086 H       1  LIG1        0.0323
     27 H          -1.5812    0.0776    0.7762 H       1  LIG1        0.0554
     28 H           0.0798   -2.5056   -2.8389 H       1  LIG1        0.0624
     29 H          -0.2441   -4.8177   -2.1205 H       1  LIG1        0.0618
     30 H          -0.3532   -5.3909    0.2886 H       1  LIG1        0.0618
     31 H          -0.1591   -3.6123    1.9910 H       1  LIG1        0.0620
     32 H           1.2200   -0.7199    1.7941 H       1  LIG1        0.0335
     33 H          -0.2924   -1.2587    2.5174 H       1  LIG1        0.0335
     34 H           2.9468    0.1426   -4.5831 H       1  LIG1        0.1166
     35 H           1.3274    0.3240   -5.3001 H       1  LIG1        0.1166
     36 H           1.2704    3.5321   -1.9331 H       1  LIG1        0.0658
     37 H          -0.7299    3.6029    0.4617 H       1  LIG1        0.0328
     38 H           1.0155    3.9316    0.5338 H       1  LIG1        0.0328
     39 H           0.2091    3.2239    2.7516 H       1  LIG1        0.0468
     40 H           1.3424    2.0255    2.1236 H       1  LIG1        0.0468
@<TRIPOS>BOND
     1     1     2    1
     2     2     3   am
     3     3     4    1
     4     4     5    1
     5     5     6   ar
     6     6     7    1
     7     7     8   ar
     8     8     9   ar
     9     9    10   ar
    10    10    11   ar
    11     7    12   ar
    12    11    12   ar
    13    12    13    1
    14     4    13    1
    15     6    14   ar
    16    14    15   ar
    17    15    16    1
    18    16    17    1
    19    17    18    1
    20    14    18    1
    21    15    19   ar
    22    19    20   ar
    23     5    20   ar
    24    20    21    1
    25    21    22    1
    26     3    22    1
    27     2    23    2
    28     1    24    1
    29     1    25    1
    30     1    26    1
    31     4    27    1
    32     8    28    1
    33     9    29    1
    34    10    30    1
    35    11    31    1
    36    13    32    1
    37    13    33    1
    38    17    34    1
    39    17    35    1
    40    19    36    1
    41    21    37    1
    42    21    38    1
    43    22    39    1
    44    22    40    1
