REMARK  Name = NuBBE_1237
REMARK  9 active torsions:
REMARK  status: ('A' for Active; 'I' for Inactive)
REMARK    1  A    between atoms: C_6  and  O_7
REMARK    2  A    between atoms: O_7  and  C_8
REMARK    3  A    between atoms: C_9  and  O_10
REMARK    4  A    between atoms: O_10  and  C_11
REMARK    5  A    between atoms: C_12  and  O_13
REMARK    6  A    between atoms: O_13  and  C_14
REMARK    7  A    between atoms: N_15  and  C_16
REMARK    8  A    between atoms: C_18  and  O_19
REMARK    9  A    between atoms: O_19  and  C_20
REMARK                            x       y       z     vdW  Elec       q    Type
REMARK                         _______ _______ _______ _____ _____    ______ ____
ROOT
ATOM      1  O   LIG A   1      -1.250   1.026   2.882  0.00  0.00    -0.286 OA
ATOM      2  C   LIG A   1      -0.788   0.988   1.761  0.00  0.00    +0.201 A 
ATOM      3  C   LIG A   1      -0.544  -0.281   1.004  0.00  0.00    +0.091 A 
ATOM      4  C   LIG A   1       0.512  -0.282   0.099  0.00  0.00    +0.060 A 
ATOM      5  C   LIG A   1       0.773  -1.470  -0.583  0.00  0.00    +0.076 A 
ATOM      6  C   LIG A   1      -0.009  -2.620  -0.403  0.00  0.00    +0.167 A 
ATOM      7  C   LIG A   1      -1.094  -2.607   0.512  0.00  0.00    +0.204 A 
ATOM      8  C   LIG A   1      -1.380  -1.413   1.207  0.00  0.00    +0.178 A 
ATOM      9  N   LIG A   1       1.199   0.918  -0.175  0.00  0.00    -0.340 N 
ATOM     10  C   LIG A   1       2.493   0.852  -0.855  0.00  0.00    +0.149 C 
ATOM     11  C   LIG A   1       0.597   2.173   0.069  0.00  0.00    +0.095 A 
ATOM     12  C   LIG A   1       0.870   3.368  -0.633  0.00  0.00    +0.144 A 
ATOM     13  C   LIG A   1       0.171   4.549  -0.324  0.00  0.00    +0.048 A 
ATOM     14  C   LIG A   1      -0.781   4.574   0.697  0.00  0.00    +0.004 A 
ATOM     15  C   LIG A   1      -1.063   3.425   1.404  0.00  0.00    +0.014 A 
ATOM     16  C   LIG A   1      -0.402   2.231   1.069  0.00  0.00    +0.050 A 
ENDROOT
BRANCH   6  17
ATOM     17  O   LIG A   1       0.264  -3.757  -1.127  0.00  0.00    -0.491 OA
ATOM     18  C   LIG A   1       0.861  -3.581  -2.412  0.00  0.00    +0.277 C 
ENDBRANCH   6  17
BRANCH   7  19
ATOM     19  O   LIG A   1      -1.979  -3.645   0.687  0.00  0.00    -0.488 OA
ATOM     20  C   LIG A   1      -1.513  -4.967   0.436  0.00  0.00    +0.277 C 
ENDBRANCH   7  19
BRANCH   8  21
ATOM     21  O   LIG A   1      -2.525  -1.145   1.917  0.00  0.00    -0.491 OA
ATOM     22  C   LIG A   1      -3.077  -2.119   2.784  0.00  0.00    +0.277 C 
ENDBRANCH   8  21
BRANCH  12  23
ATOM     23  O   LIG A   1       1.734   3.309  -1.700  0.00  0.00    -0.493 OA
ATOM     24  C   LIG A   1       2.484   4.490  -1.960  0.00  0.00    +0.277 C 
ENDBRANCH  12  23
TORSDOF 4
