REMARK  Name = NuBBE_2318
REMARK  11 active torsions:
REMARK  status: ('A' for Active; 'I' for Inactive)
REMARK    1  A    between atoms: C_3  and  O_29
REMARK    2  A    between atoms: C_4  and  C_26
REMARK    3  A    between atoms: C_5  and  C_22
REMARK    4  A    between atoms: C_7  and  O_9
REMARK    5  A    between atoms: O_9  and  C_10
REMARK    6  A    between atoms: C_10  and  C_11
REMARK    7  A    between atoms: C_13  and  O_19
REMARK    8  A    between atoms: C_14  and  O_17
REMARK    9  A    between atoms: O_17  and  C_18
REMARK   10  A    between atoms: O_19  and  C_20
REMARK   11  A    between atoms: C_26  and  C_27
REMARK                            x       y       z     vdW  Elec       q    Type
REMARK                         _______ _______ _______ _____ _____    ______ ____
ROOT
ATOM      1  C   LIG A   1       2.212  -1.583  -2.872  0.00  0.00    +0.215 C 
ATOM      2  O   LIG A   1       2.485  -2.597  -3.506  0.00  0.00    -0.287 OA
ATOM      3  C   LIG A   1       0.840  -0.875  -3.012  0.00  0.00    +0.241 C 
ATOM      4  C   LIG A   1       0.923   0.647  -2.810  0.00  0.00    +0.046 C 
ATOM      5  C   LIG A   1      -0.586   0.943  -2.613  0.00  0.00    +0.054 C 
ATOM      6  C   LIG A   1      -1.067  -0.297  -1.831  0.00  0.00    +0.258 C 
ATOM      7  O   LIG A   1      -0.092  -1.331  -2.035  0.00  0.00    -0.312 OA
ATOM      8  C   LIG A   1      -0.944   2.294  -2.002  0.00  0.00    +0.013 C 
ATOM      9  C   LIG A   1       1.725   0.971  -1.516  0.00  0.00    +0.040 C 
ATOM     10  C   LIG A   1       2.982   0.169  -1.344  0.00  0.00    -0.022 C 
ATOM     11  C   LIG A   1       3.221  -0.996  -1.955  0.00  0.00    +0.048 C 
ENDROOT
BRANCH   3  12
ATOM     12  O   LIG A   1       0.279  -1.214  -4.279  0.00  0.00    -0.358 OA
ATOM     13  H   LIG A   1       0.575  -2.135  -4.430  0.00  0.00    +0.213 HD
ENDBRANCH   3  12
BRANCH   6  14
ATOM     14  O   LIG A   1      -1.207  -0.011  -0.445  0.00  0.00    -0.346 OA
BRANCH  14  15
ATOM     15  C   LIG A   1      -1.653  -1.149   0.286  0.00  0.00    +0.198 C 
BRANCH  15  16
ATOM     16  C   LIG A   1      -1.809  -0.781   1.739  0.00  0.00    -0.018 A 
ATOM     17  C   LIG A   1      -0.714  -0.298   2.469  0.00  0.00    +0.055 A 
ATOM     18  C   LIG A   1      -0.816  -0.019   3.839  0.00  0.00    +0.162 A 
ATOM     19  C   LIG A   1      -2.046  -0.200   4.493  0.00  0.00    +0.162 A 
ATOM     20  C   LIG A   1      -3.149  -0.653   3.757  0.00  0.00    +0.050 A 
ATOM     21  C   LIG A   1      -3.030  -0.951   2.397  0.00  0.00    +0.010 A 
BRANCH  19  22
ATOM     22  O   LIG A   1      -2.150   0.153   5.812  0.00  0.00    -0.491 OA
ATOM     23  C   LIG A   1      -3.071  -0.604   6.590  0.00  0.00    +0.277 C 
ENDBRANCH  19  22
BRANCH  18  24
ATOM     24  O   LIG A   1       0.353   0.443   4.389  0.00  0.00    -0.491 OA
ATOM     25  C   LIG A   1       0.580   0.118   5.755  0.00  0.00    +0.277 C 
ENDBRANCH  18  24
ENDBRANCH  15  16
ENDBRANCH  14  15
ENDBRANCH   6  14
BRANCH   4  26
ATOM     26  C   LIG A   1       1.495   1.422  -4.035  0.00  0.00    +0.040 C 
BRANCH  26  27
ATOM     27  C   LIG A   1       2.921   1.115  -4.417  0.00  0.00    -0.034 C 
ATOM     28  C   LIG A   1       3.287   0.198  -5.322  0.00  0.00    +0.004 C 
ENDBRANCH  26  27
ENDBRANCH   4  26
TORSDOF 8
