REMARK  Name = NuBBE_1012
REMARK  3 active torsions:
REMARK  status: ('A' for Active; 'I' for Inactive)
REMARK    1  A    between atoms: O_1  and  C_2
REMARK    2  A    between atoms: C_5  and  O_15
REMARK    3  A    between atoms: C_11  and  O_13
REMARK                            x       y       z     vdW  Elec       q    Type
REMARK                         _______ _______ _______ _____ _____    ______ ____
ROOT
ATOM      1  C   LIG A   1      -1.244   1.598  -0.113  0.00  0.00    +0.123 A 
ATOM      2  C   LIG A   1      -0.605   0.373   0.148  0.00  0.00    +0.030 A 
ATOM      3  C   LIG A   1       0.815   0.346   0.177  0.00  0.00    -0.007 A 
ATOM      4  C   LIG A   1       1.537  -0.942   0.549  0.00  0.00    +0.176 C 
ATOM      5  C   LIG A   1       0.844  -2.153  -0.006  0.00  0.00    +0.183 C 
ATOM      6  C   LIG A   1      -0.654  -2.137  -0.055  0.00  0.00    +0.183 C 
ATOM      7  C   LIG A   1      -1.381  -0.907   0.405  0.00  0.00    +0.180 C 
ATOM      8  O   LIG A   1       0.135  -2.011  -1.252  0.00  0.00    -0.362 OA
ATOM      9  C   LIG A   1       1.534   1.518  -0.105  0.00  0.00    +0.007 A 
ATOM     10  C   LIG A   1       0.871   2.705  -0.418  0.00  0.00    +0.004 A 
ATOM     11  C   LIG A   1      -0.519   2.745  -0.408  0.00  0.00    +0.046 A 
ENDROOT
BRANCH   1  12
ATOM     12  O   LIG A   1      -2.607   1.731  -0.099  0.00  0.00    -0.506 OA
ATOM     13  H   LIG A   1      -3.001   0.849   0.054  0.00  0.00    +0.292 HD
ENDBRANCH   1  12
BRANCH   7  14
ATOM     14  O   LIG A   1      -2.644  -0.862  -0.261  0.00  0.00    -0.384 OA
ATOM     15  H   LIG A   1      -2.428  -0.841  -1.215  0.00  0.00    +0.210 HD
ENDBRANCH   7  14
BRANCH   4  16
ATOM     16  O   LIG A   1       2.891  -0.934   0.117  0.00  0.00    -0.385 OA
ATOM     17  H   LIG A   1       3.317  -1.722   0.490  0.00  0.00    +0.210 HD
ENDBRANCH   4  16
TORSDOF 3
