@<TRIPOS>MOLECULE
NuBBE_1950
 83 87 0 0 0
SMALL
GASTEIGER

@<TRIPOS>ATOM
      1 C          -3.4531    1.5063    1.8096 C.3     1  LIG1       -0.0588
      2 C          -2.2204    1.2525    0.9144 C.3     1  LIG1       -0.0231
      3 C          -2.1034   -0.2883    0.5739 C.3     1  LIG1       -0.0289
      4 H          -1.3264   -0.3877   -0.1939 H       1  LIG1        0.0312
      5 C          -1.6080   -1.1311    1.7571 C.3     1  LIG1       -0.0194
      6 C          -1.7397   -2.6744    1.6316 C.3     1  LIG1       -0.0187
      7 C          -2.5563   -1.8972    2.6541 C.3     1  LIG1       -0.0401
      8 C          -2.5528   -3.3197    0.4795 C.3     1  LIG1       -0.0230
      9 H          -3.4407   -3.7421    0.9770 H       1  LIG1        0.0316
     10 C          -3.0784   -2.3035   -0.5605 C.3     1  LIG1       -0.0485
     11 C          -3.3777   -0.9057   -0.0317 C.3     1  LIG1       -0.0489
     12 C          -1.8261   -4.5360   -0.2131 C.3     1  LIG1        0.0267
     13 C          -0.6636   -4.1139   -1.1334 C.3     1  LIG1       -0.0528
     14 C          -2.8408   -5.3496   -1.0541 C.3     1  LIG1       -0.0528
     15 C          -1.2442   -5.5201    0.8164 C.2     1  LIG1        0.1392
     16 O          -0.9359   -6.6652    0.5256 O.2     1  LIG1       -0.2968
     17 C          -1.0757   -5.0197    2.2271 C.3     1  LIG1        0.0069
     18 C          -0.6531   -3.5689    2.2186 C.3     1  LIG1       -0.0399
     19 C          -0.3449   -0.5832    2.3876 C.3     1  LIG1       -0.0460
     20 C          -0.4031    0.9128    2.6660 C.3     1  LIG1       -0.0463
     21 C          -0.8669    1.8146    1.5093 C.3     1  LIG1       -0.0233
     22 C          -1.0536    3.2314    2.1578 C.3     1  LIG1       -0.0588
     23 C           0.0697    2.0768    0.2418 C.3     1  LIG1       -0.0325
     24 H           0.5530    3.0507    0.4009 H       1  LIG1        0.0309
     25 C          -0.9460    2.2621   -0.9208 C.3     1  LIG1       -0.0489
     26 C          -2.3553    2.1106   -0.3603 C.3     1  LIG1       -0.0466
     27 C           1.2424    1.1413   -0.2035 C.3     1  LIG1       -0.0402
     28 H           0.8190    0.1499   -0.4028 H       1  LIG1        0.0301
     29 C           1.9319    1.5890   -1.5490 C.3     1  LIG1       -0.0465
     30 C           2.6485    2.9551   -1.5247 C.3     1  LIG1       -0.0314
     31 C           3.3340    3.3389   -2.8331 C.2     1  LIG1       -0.0716
     32 C           2.6407    4.0519   -3.7426 C.2     1  LIG1       -0.0991
     33 C           4.8117    2.9848   -3.0767 C.3     1  LIG1        0.0002
     34 C           5.8093    3.6326   -2.0893 C.3     1  LIG1        0.0504
     35 O           5.6271    3.1924   -0.7504 O.3     1  LIG1       -0.3944
     36 C           5.0683    1.4788   -3.1751 C.3     1  LIG1       -0.0566
     37 C           2.3571    0.9616    0.8354 C.3     1  LIG1       -0.0621
     38 H          -3.3832    0.9747    2.7627 H       1  LIG1        0.0235
     39 H          -4.3781    1.1940    1.3140 H       1  LIG1        0.0235
     40 H          -3.5906    2.5697    2.0320 H       1  LIG1        0.0235
     41 H          -2.3101   -2.0052    3.7079 H       1  LIG1        0.0276
     42 H          -3.6291   -1.8173    2.5233 H       1  LIG1        0.0276
     43 H          -3.9934   -2.7018   -1.0158 H       1  LIG1        0.0268
     44 H          -2.3649   -2.1802   -1.3797 H       1  LIG1        0.0268
     45 H          -4.2030   -0.9530    0.6851 H       1  LIG1        0.0268
     46 H          -3.7383   -0.3026   -0.8701 H       1  LIG1        0.0268
     47 H          -1.0177   -3.6444   -2.0571 H       1  LIG1        0.0239
     48 H          -0.0640   -4.9802   -1.4384 H       1  LIG1        0.0239
     49 H           0.0145   -3.4132   -0.6377 H       1  LIG1        0.0239
     50 H          -3.3407   -4.7345   -1.8096 H       1  LIG1        0.0239
     51 H          -3.6100   -5.7978   -0.4149 H       1  LIG1        0.0239
     52 H          -2.3493   -6.1709   -1.5888 H       1  LIG1        0.0239
     53 H          -0.2932   -5.6288    2.7088 H       1  LIG1        0.0342
     54 H          -2.0124   -5.1760    2.7689 H       1  LIG1        0.0342
     55 H           0.2696   -3.4419    1.6403 H       1  LIG1        0.0275
     56 H          -0.4178   -3.2830    3.2497 H       1  LIG1        0.0275
     57 H           0.4938   -0.8427    1.7412 H       1  LIG1        0.0271
     58 H          -0.1497   -1.0720    3.3508 H       1  LIG1        0.0271
     59 H           0.5518    1.2646    3.0708 H       1  LIG1        0.0271
     60 H          -1.1097    1.0416    3.5002 H       1  LIG1        0.0271
     61 H          -1.7246    3.2109    3.0225 H       1  LIG1        0.0235
     62 H          -1.4451    3.9690    1.4494 H       1  LIG1        0.0235
     63 H          -0.0908    3.6152    2.5182 H       1  LIG1        0.0235
     64 H          -0.8118    1.5114   -1.7054 H       1  LIG1        0.0268
     65 H          -0.8251    3.2467   -1.3880 H       1  LIG1        0.0268
     66 H          -3.0284    1.6843   -1.1086 H       1  LIG1        0.0271
     67 H          -2.7594    3.1038   -0.1287 H       1  LIG1        0.0271
     68 H           1.2075    1.5844   -2.3701 H       1  LIG1        0.0271
     69 H           2.6568    0.8113   -1.8121 H       1  LIG1        0.0271
     70 H           3.3707    2.9868   -0.7125 H       1  LIG1        0.0310
     71 H           1.9203    3.7371   -1.2742 H       1  LIG1        0.0310
     72 H           1.6049    4.3321   -3.5675 H       1  LIG1        0.0534
     73 H           3.0752    4.3789   -4.6822 H       1  LIG1        0.0534
     74 H           5.0893    3.3927   -4.0613 H       1  LIG1        0.0365
     75 H           5.7349    4.7247   -2.1251 H       1  LIG1        0.0563
     76 H           6.8335    3.3582   -2.3693 H       1  LIG1        0.0563
     77 H           6.1431    3.7867   -0.1801 H       1  LIG1        0.2094
     78 H           4.7423    0.9433   -2.2814 H       1  LIG1        0.0236
     79 H           6.1402    1.2788   -3.2943 H       1  LIG1        0.0236
     80 H           4.5616    1.0525   -4.0478 H       1  LIG1        0.0236
     81 H           2.8889    1.8929    1.0415 H       1  LIG1        0.0233
     82 H           3.0849    0.2254    0.4730 H       1  LIG1        0.0233
     83 H           2.0098    0.5863    1.7914 H       1  LIG1        0.0233
@<TRIPOS>BOND
     1     1     2    1
     2     2     3    1
     3     3     4    1
     4     3     5    1
     5     5     6    1
     6     6     7    1
     7     5     7    1
     8     6     8    1
     9     8     9    1
    10     8    10    1
    11    10    11    1
    12     3    11    1
    13     8    12    1
    14    12    13    1
    15    12    14    1
    16    12    15    1
    17    15    16    2
    18    15    17    1
    19    17    18    1
    20     6    18    1
    21     5    19    1
    22    19    20    1
    23    20    21    1
    24     2    21    1
    25    21    22    1
    26    21    23    1
    27    23    25    1
    28    25    26    1
    29     2    26    1
    30    27    28    1
    31    27    29    1
    32    29    30    1
    33    30    31    1
    34    31    32    2
    35    31    33    1
    36    33    34    1
    37    34    35    1
    38    33    36    1
    39    27    37    1
    40    23    27    1
    41    23    24    1
    42     1    38    1
    43     1    39    1
    44     1    40    1
    45     7    41    1
    46     7    42    1
    47    10    43    1
    48    10    44    1
    49    11    45    1
    50    11    46    1
    51    13    47    1
    52    13    48    1
    53    13    49    1
    54    14    50    1
    55    14    51    1
    56    14    52    1
    57    17    53    1
    58    17    54    1
    59    18    55    1
    60    18    56    1
    61    19    57    1
    62    19    58    1
    63    20    59    1
    64    20    60    1
    65    22    61    1
    66    22    62    1
    67    22    63    1
    68    25    64    1
    69    25    65    1
    70    26    66    1
    71    26    67    1
    72    29    68    1
    73    29    69    1
    74    30    70    1
    75    30    71    1
    76    32    72    1
    77    32    73    1
    78    33    74    1
    79    34    75    1
    80    34    76    1
    81    35    77    1
    82    36    78    1
    83    36    79    1
    84    36    80    1
    85    37    81    1
    86    37    82    1
    87    37    83    1
