REMARK  Name = NuBBE_482
REMARK  20 active torsions:
REMARK  status: ('A' for Active; 'I' for Inactive)
REMARK    1  A    between atoms: C_1  and  C_2
REMARK    2  A    between atoms: C_6  and  C_7
REMARK    3  A    between atoms: C_6  and  C_12
REMARK    4  A    between atoms: C_7  and  O_8
REMARK    5  A    between atoms: O_8  and  C_9
REMARK    6  A    between atoms: C_9  and  C_10
REMARK    7  A    between atoms: C_12  and  O_13
REMARK    8  A    between atoms: O_13  and  C_14
REMARK    9  A    between atoms: C_14  and  C_15
REMARK   10  A    between atoms: C_17  and  O_19
REMARK   11  A    between atoms: O_19  and  C_20
REMARK   12  A    between atoms: C_20  and  C_21
REMARK   13  A    between atoms: C_25  and  C_26
REMARK   14  A    between atoms: C_31  and  C_32
REMARK   15  A    between atoms: C_35  and  C_36
REMARK   16  A    between atoms: C_36  and  O_37
REMARK   17  A    between atoms: O_37  and  C_38
REMARK   18  A    between atoms: C_41  and  C_42
REMARK   19  A    between atoms: C_41  and  O_43
REMARK   20  A    between atoms: C_44  and  C_46
REMARK                            x       y       z     vdW  Elec       q    Type
REMARK                         _______ _______ _______ _____ _____    ______ ____
ROOT
ATOM      1  C   LIG A   1      -2.937  -0.265  -0.420  0.00  0.00    +0.012 C 
ATOM      2  C   LIG A   1      -1.451   0.153  -0.409  0.00  0.00    -0.019 C 
ATOM      3  C   LIG A   1      -0.616  -0.632  -1.454  0.00  0.00    +0.008 C 
ATOM      4  C   LIG A   1      -0.357  -2.073  -1.117  0.00  0.00    +0.005 C 
ATOM      5  C   LIG A   1       0.235  -2.475   0.269  0.00  0.00    +0.011 C 
ATOM      6  C   LIG A   1       0.360  -4.073   0.344  0.00  0.00    +0.079 C 
ATOM      7  C   LIG A   1      -1.015  -4.650  -0.130  0.00  0.00    +0.189 C 
ATOM      8  C   LIG A   1      -2.182  -3.888   0.623  0.00  0.00    +0.046 C 
ATOM      9  C   LIG A   1      -1.897  -2.632   1.559  0.00  0.00    +0.011 C 
ATOM     10  C   LIG A   1      -0.605  -1.785   1.366  0.00  0.00    -0.025 C 
ATOM     11  C   LIG A   1       0.229  -1.736   2.687  0.00  0.00    +0.012 C 
ATOM     12  C   LIG A   1      -0.727  -0.232   0.934  0.00  0.00    +0.006 C 
ATOM     13  C   LIG A   1      -0.985   0.836   1.995  0.00  0.00    +0.031 C 
ATOM     14  C   LIG A   1      -0.308   2.081   1.481  0.00  0.00    -0.026 C 
ATOM     15  C   LIG A   1      -0.411   2.479   0.197  0.00  0.00    -0.060 C 
ATOM     16  C   LIG A   1      -1.368   1.750  -0.769  0.00  0.00    -0.005 C 
ATOM     17  C   LIG A   1      -1.043   1.888  -2.305  0.00  0.00    +0.016 C 
ATOM     18  C   LIG A   1      -2.658   2.614  -0.567  0.00  0.00    +0.012 C 
ATOM     19  C   LIG A   1      -2.440   4.124  -0.922  0.00  0.00    +0.019 C 
ATOM     20  C   LIG A   1      -1.101   4.794  -0.396  0.00  0.00    +0.077 C 
ATOM     21  C   LIG A   1       0.093   3.794  -0.342  0.00  0.00    +0.064 C 
ATOM     22  C   LIG A   1       1.512   4.365   0.015  0.00  0.00    +0.073 C 
ATOM     23  C   LIG A   1       1.764   4.883   1.432  0.00  0.00    +0.042 C 
ATOM     24  C   LIG A   1       1.817   5.456  -1.063  0.00  0.00    +0.018 C 
ATOM     25  C   LIG A   1       3.180   6.136  -0.891  0.00  0.00    +0.010 C 
ATOM     26  C   LIG A   1       0.699   6.511  -1.150  0.00  0.00    +0.007 C 
ATOM     27  C   LIG A   1      -0.698   5.916  -1.387  0.00  0.00    +0.019 C 
ENDROOT
BRANCH  20  28
ATOM     28  C   LIG A   1      -1.412   5.396   0.993  0.00  0.00    +0.314 C 
ATOM     29  O   LIG A   1      -0.951   6.423   1.442  0.00  0.00    -0.250 OA
BRANCH  28  30
ATOM     30  O   LIG A   1      -2.252   4.577   1.689  0.00  0.00    -0.468 OA
ATOM     31  C   LIG A   1      -2.189   4.679   3.107  0.00  0.00    +0.280 C 
ENDBRANCH  28  30
ENDBRANCH  20  28
BRANCH  22  32
ATOM     32  O   LIG A   1       2.500   3.323  -0.165  0.00  0.00    -0.388 OA
ATOM     33  H   LIG A   1       2.105   2.584  -0.659  0.00  0.00    +0.210 HD
ENDBRANCH  22  32
BRANCH   6  34
ATOM     34  C   LIG A   1       0.614  -4.761   1.740  0.00  0.00    +0.246 C 
BRANCH  34  35
ATOM     35  O   LIG A   1       0.624  -6.215   1.579  0.00  0.00    -0.464 OA
BRANCH  35  36
ATOM     36  C   LIG A   1       1.819  -6.846   1.410  0.00  0.00    +0.304 C 
ATOM     37  C   LIG A   1       1.637  -8.185   0.753  0.00  0.00    +0.136 C 
ATOM     38  O   LIG A   1       2.918  -6.359   1.659  0.00  0.00    -0.251 OA
ENDBRANCH  35  36
ENDBRANCH  34  35
ENDBRANCH   6  34
BRANCH   6  39
ATOM     39  C   LIG A   1       1.584  -4.467  -0.540  0.00  0.00    +0.246 C 
BRANCH  39  40
ATOM     40  O   LIG A   1       2.811  -3.951   0.034  0.00  0.00    -0.464 OA
BRANCH  40  41
ATOM     41  C   LIG A   1       3.360  -2.845  -0.550  0.00  0.00    +0.304 C 
ATOM     42  C   LIG A   1       4.604  -2.426   0.169  0.00  0.00    +0.136 C 
ATOM     43  O   LIG A   1       2.870  -2.220  -1.465  0.00  0.00    -0.251 OA
ENDBRANCH  40  41
ENDBRANCH  39  40
ENDBRANCH   6  39
BRANCH   7  44
ATOM     44  O   LIG A   1      -1.246  -4.523  -1.579  0.00  0.00    -0.461 OA
BRANCH  44  45
ATOM     45  C   LIG A   1      -0.669  -5.312  -2.489  0.00  0.00    +0.304 C 
ATOM     46  C   LIG A   1      -0.786  -4.716  -3.864  0.00  0.00    +0.136 C 
ATOM     47  O   LIG A   1      -0.050  -6.355  -2.232  0.00  0.00    -0.251 OA
ENDBRANCH  44  45
ENDBRANCH   7  44
TORSDOF 11
