REMARK  Name = NuBBE_1776
REMARK  7 active torsions:
REMARK  status: ('A' for Active; 'I' for Inactive)
REMARK    1  A    between atoms: O_1  and  C_2
REMARK    2  A    between atoms: O_1  and  C_3
REMARK    3  A    between atoms: C_7  and  C_10
REMARK    4  A    between atoms: C_12  and  O_13
REMARK    5  A    between atoms: C_14  and  O_17
REMARK    6  A    between atoms: C_19  and  O_21
REMARK    7  A    between atoms: O_21  and  C_22
REMARK                            x       y       z     vdW  Elec       q    Type
REMARK                         _______ _______ _______ _____ _____    ______ ____
ROOT
ATOM      1  C   LIG A   1      -2.110  -2.330  -0.198  0.00  0.00    +0.130 A 
ATOM      2  C   LIG A   1      -1.502  -1.062  -0.195  0.00  0.00    +0.036 A 
ATOM      3  C   LIG A   1      -0.112  -0.983  -0.300  0.00  0.00    +0.132 A 
ATOM      4  O   LIG A   1       0.599   0.181  -0.320  0.00  0.00    -0.484 OA
ATOM      5  C   LIG A   1      -0.162   1.372  -0.562  0.00  0.00    +0.204 C 
ATOM      6  C   LIG A   1      -1.428   1.389   0.293  0.00  0.00    +0.054 C 
ATOM      7  C   LIG A   1      -2.309   0.206  -0.104  0.00  0.00    +0.046 C 
ATOM      8  C   LIG A   1       0.670  -2.131  -0.357  0.00  0.00    +0.091 A 
ATOM      9  C   LIG A   1       0.081  -3.386  -0.356  0.00  0.00    +0.127 A 
ATOM     10  C   LIG A   1      -1.316  -3.486  -0.288  0.00  0.00    +0.091 A 
ENDROOT
BRANCH   5  11
ATOM     11  C   LIG A   1       0.743   2.558  -0.268  0.00  0.00    -0.004 A 
ATOM     12  C   LIG A   1       1.779   2.464   0.681  0.00  0.00    +0.056 A 
ATOM     13  C   LIG A   1       2.604   3.555   0.925  0.00  0.00    +0.159 A 
ATOM     14  C   LIG A   1       2.408   4.749   0.240  0.00  0.00    +0.158 A 
ATOM     15  C   LIG A   1       1.392   4.870  -0.695  0.00  0.00    +0.049 A 
ATOM     16  C   LIG A   1       0.558   3.776  -0.951  0.00  0.00    +0.011 A 
BRANCH  13  17
ATOM     17  O   LIG A   1       3.623   3.500   1.837  0.00  0.00    -0.503 OA
ATOM     18  H   LIG A   1       3.615   2.611   2.234  0.00  0.00    +0.292 HD
ENDBRANCH  13  17
BRANCH  14  19
ATOM     19  O   LIG A   1       3.221   5.817   0.491  0.00  0.00    -0.503 OA
ATOM     20  H   LIG A   1       3.844   5.493   1.169  0.00  0.00    +0.292 HD
ENDBRANCH  14  19
ENDBRANCH   5  11
BRANCH   1  21
ATOM     21  O   LIG A   1      -3.479  -2.340  -0.168  0.00  0.00    -0.495 OA
ATOM     22  C   LIG A   1      -4.084  -3.467   0.454  0.00  0.00    +0.277 C 
ENDBRANCH   1  21
BRANCH   9  23
ATOM     23  O   LIG A   1       0.771  -4.568  -0.431  0.00  0.00    -0.495 OA
ATOM     24  C   LIG A   1       2.195  -4.450  -0.487  0.00  0.00    +0.277 C 
ENDBRANCH   9  23
TORSDOF 5
