REMARK  Name = NuBBE_1866
REMARK  7 active torsions:
REMARK  status: ('A' for Active; 'I' for Inactive)
REMARK    1  A    between atoms: C_1  and  O_2
REMARK    2  A    between atoms: O_2  and  C_3
REMARK    3  A    between atoms: C_5  and  O_19
REMARK    4  A    between atoms: C_7  and  O_18
REMARK    5  A    between atoms: C_9  and  O_11
REMARK    6  A    between atoms: C_12  and  O_14
REMARK    7  A    between atoms: C_15  and  O_17
REMARK                            x       y       z     vdW  Elec       q    Type
REMARK                         _______ _______ _______ _____ _____    ______ ____
ROOT
ATOM      1  C   LIG A   1      -0.076  -0.548  -0.795  0.00  0.00    +0.180 C 
ATOM      2  C   LIG A   1      -0.168   0.965  -1.072  0.00  0.00    +0.177 C 
ATOM      3  C   LIG A   1      -0.902   1.734   0.030  0.00  0.00    +0.176 C 
ATOM      4  C   LIG A   1      -0.279   1.478   1.403  0.00  0.00    +0.176 C 
ATOM      5  C   LIG A   1      -0.191  -0.023   1.698  0.00  0.00    +0.176 C 
ATOM      6  C   LIG A   1       0.536  -0.809   0.593  0.00  0.00    +0.177 C 
ENDROOT
BRANCH   1   8
ATOM      7  C   LIG A   1       0.778  -2.491  -1.927  0.00  0.00    +0.194 C 
ATOM      8  O   LIG A   1       0.717  -1.071  -1.888  0.00  0.00    -0.374 OA
ENDBRANCH   1   8
BRANCH   4   9
ATOM      9  O   LIG A   1       1.047   2.026   1.472  0.00  0.00    -0.387 OA
ATOM     10  H   LIG A   1       0.955   2.997   1.471  0.00  0.00    +0.210 HD
ENDBRANCH   4   9
BRANCH   5  11
ATOM     11  O   LIG A   1       0.530  -0.232   2.928  0.00  0.00    -0.387 OA
ATOM     12  H   LIG A   1       1.255   0.426   2.916  0.00  0.00    +0.210 HD
ENDBRANCH   5  11
BRANCH   6  13
ATOM     13  O   LIG A   1       0.445  -2.204   0.938  0.00  0.00    -0.387 OA
ATOM     14  H   LIG A   1       0.649  -2.246   1.895  0.00  0.00    +0.210 HD
ENDBRANCH   6  13
BRANCH   3  15
ATOM     15  O   LIG A   1      -2.280   1.348   0.038  0.00  0.00    -0.387 OA
ATOM     16  H   LIG A   1      -2.558   1.389  -0.901  0.00  0.00    +0.210 HD
ENDBRANCH   3  15
BRANCH   2  17
ATOM     17  O   LIG A   1      -0.878   1.169  -2.309  0.00  0.00    -0.387 OA
ATOM     18  H   LIG A   1      -0.447   0.560  -2.944  0.00  0.00    +0.210 HD
ENDBRANCH   2  17
TORSDOF 6
