@<TRIPOS>MOLECULE
NuBBE_1955
 43 44 0 0 0
SMALL
GASTEIGER

@<TRIPOS>ATOM
      1 C          -1.0466   -1.7243    1.3906 C.3     1  LIG1        0.0788
      2 O           0.0018   -0.7579    1.6657 O.3     1  LIG1       -0.4940
      3 C           0.4739   -0.0661    0.5917 C.ar    1  LIG1        0.1377
      4 C           1.0084   -0.9376   -0.4481 C.ar    1  LIG1        0.0442
      5 C           1.2470   -2.2940   -0.1720 C.ar    1  LIG1       -0.0489
      6 C           1.0003   -3.2342   -1.1463 C.ar    1  LIG1       -0.0575
      7 C           0.7580   -2.8005   -2.4343 C.ar    1  LIG1       -0.0179
      8 C           0.8806   -1.4388   -2.7820 C.ar    1  LIG1        0.1442
      9 O           0.7769   -1.0266   -4.0909 O.3     1  LIG1       -0.4930
     10 C           0.4307   -2.0524   -5.0321 C.3     1  LIG1        0.0789
     11 C           1.0419   -0.4852   -1.7495 C.ar    1  LIG1        0.0972
     12 N           1.3434    0.9107   -1.8727 N.ar    1  LIG1       -0.3077
     13 C           2.4442    1.2457   -2.7649 C.3     1  LIG1        0.0154
     14 C           0.4496    1.3071    0.4551 C.ar    1  LIG1        0.0620
     15 C          -0.0182    2.4666    1.3824 C.3     1  LIG1        0.0109
     16 C          -1.3452    2.5777    2.2200 C.3     1  LIG1        0.0800
     17 O          -2.4623    2.4166    1.3395 O.3     1  LIG1       -0.3872
     18 C          -1.5715    1.7368    3.4656 C.2     1  LIG1       -0.0513
     19 C          -1.6858    0.2820    3.2949 C.3     1  LIG1       -0.0416
     20 C          -1.7711    2.1463    4.7266 C.2     1  LIG1       -0.0973
     21 C           1.1696    1.7916   -0.7949 C.ar    1  LIG1        0.2584
     22 O           1.6294    2.9635   -0.8161 O.2     1  LIG1       -0.2673
     23 H          -0.7124   -2.6494    0.9312 H       1  LIG1        0.0660
     24 H          -1.8396   -1.2857    0.7783 H       1  LIG1        0.0660
     25 H          -1.4465   -2.0585    2.3528 H       1  LIG1        0.0660
     26 H           1.3855   -2.6299    0.8538 H       1  LIG1        0.0625
     27 H           0.9117   -4.2851   -0.8877 H       1  LIG1        0.0619
     28 H           0.5027   -3.5761   -3.1460 H       1  LIG1        0.0655
     29 H          -0.6166   -2.3557   -4.9021 H       1  LIG1        0.0660
     30 H           1.0939   -2.9242   -4.9611 H       1  LIG1        0.0660
     31 H           0.5541   -1.6667   -6.0456 H       1  LIG1        0.0660
     32 H           2.1224    2.0107   -3.4717 H       1  LIG1        0.0457
     33 H           2.8456    0.3735   -3.2850 H       1  LIG1        0.0457
     34 H           3.2719    1.6556   -2.1630 H       1  LIG1        0.0457
     35 H          -0.1185    3.3439    0.7119 H       1  LIG1        0.0344
     36 H           0.8225    2.7323    2.0378 H       1  LIG1        0.0344
     37 H          -1.3994    3.6266    2.5542 H       1  LIG1        0.0643
     38 H          -3.2542    2.3539    1.9001 H       1  LIG1        0.2102
     39 H          -0.6959   -0.1344    3.4884 H       1  LIG1        0.0275
     40 H          -2.1092    0.1095    2.3067 H       1  LIG1        0.0275
     41 H          -2.3547   -0.2338    3.9856 H       1  LIG1        0.0275
     42 H          -1.8250    3.1787    5.0290 H       1  LIG1        0.0535
     43 H          -1.8934    1.3880    5.5042 H       1  LIG1        0.0535
@<TRIPOS>BOND
     1     1     2    1
     2     2     3    1
     3     3     4   ar
     4     4     5   ar
     5     5     6   ar
     6     6     7   ar
     7     7     8   ar
     8     8     9    1
     9     9    10    1
    10     8    11   ar
    11     4    11   ar
    12    11    12   ar
    13    12    13    1
    14     3    14   ar
    15    14    15    1
    16    15    16    1
    17    16    17    1
    18    16    18    1
    19    18    19    1
    20    18    20    2
    21    14    21   ar
    22    12    21   ar
    23    21    22    2
    24     1    23    1
    25     1    24    1
    26     1    25    1
    27     5    26    1
    28     6    27    1
    29     7    28    1
    30    10    29    1
    31    10    30    1
    32    10    31    1
    33    13    32    1
    34    13    33    1
    35    13    34    1
    36    15    35    1
    37    15    36    1
    38    16    37    1
    39    17    38    1
    40    19    39    1
    41    19    40    1
    42    19    41    1
    43    20    42    1
    44    20    43    1
