@<TRIPOS>MOLECULE
NuBBE_2123
 29 28 0 0 0
SMALL
GASTEIGER

@<TRIPOS>ATOM
      1 C          -1.3483    2.7192    1.0284 C.3     1  LIG1       -0.0653
      2 C          -2.1714    1.4506    1.1805 C.3     1  LIG1       -0.0559
      3 C          -2.6297    0.8383   -0.1475 C.3     1  LIG1       -0.0533
      4 C          -1.5858    0.6121   -1.2529 C.3     1  LIG1       -0.0531
      5 C          -0.5240   -0.4610   -0.9858 C.3     1  LIG1       -0.0531
      6 C           0.3898   -0.1533    0.2018 C.3     1  LIG1       -0.0531
      7 C           1.4205   -1.2144    0.5188 C.3     1  LIG1       -0.0533
      8 C           2.4164   -1.4160   -0.6095 C.3     1  LIG1       -0.0559
      9 C           3.4318   -2.4627   -0.2229 C.3     1  LIG1       -0.0653
     10 H          -1.1007    3.1257    2.0132 H       1  LIG1        0.0230
     11 H          -1.9155    3.4747    0.4755 H       1  LIG1        0.0230
     12 H          -0.4053    2.5563    0.5010 H       1  LIG1        0.0230
     13 H          -3.0546    1.6692    1.7841 H       1  LIG1        0.0263
     14 H          -1.6353    0.7229    1.7967 H       1  LIG1        0.0263
     15 H          -3.3938    1.5089   -0.5605 H       1  LIG1        0.0265
     16 H          -3.1358   -0.1114    0.0574 H       1  LIG1        0.0265
     17 H          -1.0981    1.5528   -1.5242 H       1  LIG1        0.0265
     18 H          -2.1346    0.2974   -2.1522 H       1  LIG1        0.0265
     19 H           0.0605   -0.5795   -1.8928 H       1  LIG1        0.0265
     20 H          -1.0311   -1.4286   -0.8069 H       1  LIG1        0.0265
     21 H          -0.1750   -0.0843    1.1082 H       1  LIG1        0.0265
     22 H           0.8864    0.8149    0.0358 H       1  LIG1        0.0265
     23 H           0.9097   -2.1503    0.7629 H       1  LIG1        0.0265
     24 H           1.9502   -0.8991    1.4284 H       1  LIG1        0.0265
     25 H           2.9131   -0.4636   -0.8305 H       1  LIG1        0.0263
     26 H           1.8960   -1.7346   -1.5160 H       1  LIG1        0.0263
     27 H           3.9578   -2.1798    0.6929 H       1  LIG1        0.0230
     28 H           4.1649   -2.5788   -1.0267 H       1  LIG1        0.0230
     29 H           2.9419   -3.4260   -0.0572 H       1  LIG1        0.0230
@<TRIPOS>BOND
     1     1     2    1
     2     2     3    1
     3     3     4    1
     4     4     5    1
     5     5     6    1
     6     6     7    1
     7     7     8    1
     8     8     9    1
     9     1    10    1
    10     1    11    1
    11     1    12    1
    12     2    13    1
    13     2    14    1
    14     3    15    1
    15     3    16    1
    16     4    17    1
    17     4    18    1
    18     5    19    1
    19     5    20    1
    20     6    21    1
    21     6    22    1
    22     7    23    1
    23     7    24    1
    24     8    25    1
    25     8    26    1
    26     9    27    1
    27     9    28    1
    28     9    29    1
