REMARK  Name = NuBBE_1407
REMARK  8 active torsions:
REMARK  status: ('A' for Active; 'I' for Inactive)
REMARK    1  A    between atoms: C_1  and  C_2
REMARK    2  A    between atoms: C_4  and  C_5
REMARK    3  A    between atoms: C_5  and  O_6
REMARK    4  A    between atoms: C_11  and  C_31
REMARK    5  A    between atoms: C_14  and  C_30
REMARK    6  A    between atoms: C_15  and  C_29
REMARK    7  A    between atoms: C_18  and  C_19
REMARK    8  A    between atoms: C_22  and  C_24
REMARK                            x       y       z     vdW  Elec       q    Type
REMARK                         _______ _______ _______ _____ _____    ______ ____
ROOT
ATOM      1  C   LIG A   1      -0.378  -4.152  -4.425  0.00  0.00    +0.044 C 
ATOM      2  C   LIG A   1      -0.110  -3.295  -3.210  0.00  0.00    -0.046 C 
ATOM      3  C   LIG A   1      -0.256  -1.821  -3.274  0.00  0.00    -0.028 C 
ATOM      4  C   LIG A   1      -0.834  -1.284  -4.379  0.00  0.00    +0.096 C 
ATOM      5  C   LIG A   1       0.324  -3.898  -2.095  0.00  0.00    +0.003 C 
ATOM      6  C   LIG A   1       0.574  -3.202  -0.870  0.00  0.00    +0.001 C 
ATOM      7  C   LIG A   1       0.598  -1.859  -0.779  0.00  0.00    -0.053 C 
ATOM      8  C   LIG A   1       0.379  -1.005  -2.078  0.00  0.00    +0.015 C 
ATOM      9  C   LIG A   1      -0.532   0.191  -1.662  0.00  0.00    +0.016 C 
ATOM     10  C   LIG A   1      -1.402  -0.106  -0.439  0.00  0.00    +0.009 C 
ATOM     11  C   LIG A   1      -0.588  -0.253   0.898  0.00  0.00    -0.020 C 
ATOM     12  C   LIG A   1       0.737  -1.112   0.603  0.00  0.00    -0.004 C 
ATOM     13  C   LIG A   1       1.978  -0.176   0.569  0.00  0.00    +0.012 C 
ATOM     14  C   LIG A   1       2.222   0.594   1.868  0.00  0.00    +0.008 C 
ATOM     15  C   LIG A   1       0.977   1.352   2.402  0.00  0.00    -0.022 C 
ATOM     16  C   LIG A   1       0.696   0.892   3.853  0.00  0.00    +0.012 C 
ATOM     17  C   LIG A   1      -0.243   1.212   1.428  0.00  0.00    +0.003 C 
ATOM     18  C   LIG A   1      -1.457   2.008   1.975  0.00  0.00    +0.015 C 
ATOM     19  C   LIG A   1      -1.141   3.503   2.123  0.00  0.00    +0.052 C 
ATOM     20  C   LIG A   1      -2.311   4.235   2.775  0.00  0.00    +0.015 C 
ATOM     21  C   LIG A   1       1.337   2.862   2.482  0.00  0.00    +0.081 C 
ATOM     22  C   LIG A   1       0.151   3.710   2.901  0.00  0.00    +0.137 C 
ATOM     23  O   LIG A   1       0.281   4.595   3.746  0.00  0.00    -0.297 OA
ATOM     24  C   LIG A   1       1.022  -2.145   1.740  0.00  0.00    +0.016 C 
ATOM     25  C   LIG A   1      -1.571  -0.974   1.857  0.00  0.00    +0.012 C 
ATOM     26  C   LIG A   1       1.773  -0.541  -2.592  0.00  0.00    +0.021 C 
ENDROOT
BRANCH   4  27
ATOM     27  C   LIG A   1      -0.977   0.106  -4.846  0.00  0.00    +0.330 C 
ATOM     28  O   LIG A   1      -1.875   0.491  -5.574  0.00  0.00    -0.246 OA
BRANCH  27  29
ATOM     29  O   LIG A   1       0.033   0.914  -4.504  0.00  0.00    -0.477 OA
ATOM     30  H   LIG A   1      -0.187   1.760  -4.944  0.00  0.00    +0.295 HD
ENDBRANCH  27  29
ENDBRANCH   4  27
TORSDOF 2
