@<TRIPOS>MOLECULE
NuBBE_666
 17 18 0 0 0
SMALL
GASTEIGER

@<TRIPOS>ATOM
      1 O          -3.8221   -0.3824    0.1648 O.2     1  LIG1       -0.2452
      2 C          -2.5984   -0.4095    0.1591 C.ar    1  LIG1        0.3372
      3 O          -1.8279    0.7451    0.1910 O.2     1  LIG1       -0.4222
      4 C          -0.4248    0.6832    0.0882 C.ar    1  LIG1        0.1390
      5 C           0.2647    1.8918    0.0269 C.ar    1  LIG1       -0.0186
      6 C           1.6497    1.8743   -0.1267 C.ar    1  LIG1       -0.0582
      7 C           2.3289    0.6557   -0.2019 C.ar    1  LIG1       -0.0610
      8 C           1.6263   -0.5511   -0.1192 C.ar    1  LIG1       -0.0511
      9 C           0.2372   -0.5415    0.0208 C.ar    1  LIG1        0.0176
     10 C          -0.5423   -1.7670    0.0768 C.ar    1  LIG1       -0.0443
     11 C          -1.8755   -1.6942    0.1309 C.ar    1  LIG1        0.0236
     12 H          -0.2719    2.8343    0.0835 H       1  LIG1        0.0654
     13 H           2.2004    2.8092   -0.1958 H       1  LIG1        0.0619
     14 H           3.4087    0.6457   -0.3312 H       1  LIG1        0.0618
     15 H           2.1732   -1.4888   -0.1798 H       1  LIG1        0.0625
     16 H          -0.0307   -2.7228    0.0595 H       1  LIG1        0.0627
     17 H          -2.4956   -2.5819    0.1528 H       1  LIG1        0.0689
@<TRIPOS>BOND
     1     1     2    2
     2     2     3   ar
     3     3     4   ar
     4     4     5   ar
     5     5     6   ar
     6     6     7   ar
     7     7     8   ar
     8     8     9   ar
     9     4     9   ar
    10     9    10   ar
    11    10    11   ar
    12     2    11   ar
    13     5    12    1
    14     6    13    1
    15     7    14    1
    16     8    15    1
    17    10    16    1
    18    11    17    1
