REMARK  Name = NuBBE_2473
REMARK  12 active torsions:
REMARK  status: ('A' for Active; 'I' for Inactive)
REMARK    1  A    between atoms: C_1  and  O_2
REMARK    2  A    between atoms: O_2  and  C_3
REMARK    3  A    between atoms: C_5  and  C_6
REMARK    4  A    between atoms: C_6  and  C_7
REMARK    5  A    between atoms: C_9  and  C_11
REMARK    6  A    between atoms: C_11  and  O_12
REMARK    7  A    between atoms: C_13  and  C_15
REMARK    8  A    between atoms: C_18  and  O_19
REMARK    9  A    between atoms: C_20  and  O_21
REMARK   10  A    between atoms: O_21  and  C_22
REMARK   11  A    between atoms: C_28  and  O_29
REMARK   12  A    between atoms: O_29  and  C_30
REMARK                            x       y       z     vdW  Elec       q    Type
REMARK                         _______ _______ _______ _____ _____    ______ ____
ROOT
ATOM      1  C   LIG A   1      -0.069  -0.538  -0.372  0.00  0.00    +0.027 C 
ATOM      2  C   LIG A   1      -1.379   0.257  -0.432  0.00  0.00    +0.053 C 
ATOM      3  C   LIG A   1      -1.071   1.471   0.456  0.00  0.00    +0.154 C 
ATOM      4  O   LIG A   1      -0.036   1.051   1.372  0.00  0.00    -0.371 OA
ATOM      5  C   LIG A   1       0.254  -0.329   1.103  0.00  0.00    +0.165 C 
ENDROOT
BRANCH   3   6
ATOM      6  C   LIG A   1      -2.205   2.050   1.270  0.00  0.00    -0.015 A 
ATOM      7  C   LIG A   1      -2.209   3.421   1.558  0.00  0.00    +0.010 A 
ATOM      8  C   LIG A   1      -3.227   3.986   2.325  0.00  0.00    +0.049 A 
ATOM      9  C   LIG A   1      -4.260   3.187   2.820  0.00  0.00    +0.159 A 
ATOM     10  C   LIG A   1      -4.270   1.813   2.580  0.00  0.00    +0.162 A 
ATOM     11  C   LIG A   1      -3.229   1.261   1.814  0.00  0.00    +0.055 A 
BRANCH   9  12
ATOM     12  O   LIG A   1      -5.248   3.788   3.542  0.00  0.00    -0.503 OA
ATOM     13  H   LIG A   1      -5.021   4.726   3.659  0.00  0.00    +0.292 HD
ENDBRANCH   9  12
BRANCH  10  14
ATOM     14  O   LIG A   1      -5.171   0.875   3.012  0.00  0.00    -0.491 OA
ATOM     15  C   LIG A   1      -6.271   1.333   3.787  0.00  0.00    +0.277 C 
ENDBRANCH  10  14
ENDBRANCH   3   6
BRANCH   1  16
ATOM     16  C   LIG A   1       1.023   0.016  -1.306  0.00  0.00    +0.041 C 
BRANCH  16  19
ATOM     17  C   LIG A   1       3.720  -2.546  -2.162  0.00  0.00    +0.162 A 
ATOM     18  C   LIG A   1       2.505  -1.850  -2.137  0.00  0.00    +0.053 A 
ATOM     19  C   LIG A   1       2.314  -0.764  -1.272  0.00  0.00    -0.043 A 
ATOM     20  C   LIG A   1       3.345  -0.399  -0.404  0.00  0.00    +0.007 A 
ATOM     21  C   LIG A   1       4.549  -1.102  -0.399  0.00  0.00    +0.050 A 
ATOM     22  C   LIG A   1       4.751  -2.174  -1.275  0.00  0.00    +0.162 A 
BRANCH  17  24
ATOM     23  C   LIG A   1       2.984  -3.940  -3.956  0.00  0.00    +0.277 C 
ATOM     24  O   LIG A   1       3.993  -3.585  -3.019  0.00  0.00    -0.491 OA
ENDBRANCH  17  24
BRANCH  22  25
ATOM     25  O   LIG A   1       5.911  -2.908  -1.338  0.00  0.00    -0.491 OA
ATOM     26  C   LIG A   1       6.955  -2.548  -0.444  0.00  0.00    +0.277 C 
ENDBRANCH  22  25
ENDBRANCH  16  19
ENDBRANCH   1  16
BRANCH   2  27
ATOM     27  C   LIG A   1      -1.931   0.623  -1.800  0.00  0.00    +0.162 C 
BRANCH  27  28
ATOM     28  O   LIG A   1      -2.181  -0.576  -2.526  0.00  0.00    -0.395 OA
ATOM     29  H   LIG A   1      -2.801  -0.357  -3.243  0.00  0.00    +0.209 HD
ENDBRANCH  27  28
ENDBRANCH   2  27
TORSDOF 9
