@<TRIPOS>MOLECULE
NuBBE_452
 58 58 0 0 0
SMALL
GASTEIGER

@<TRIPOS>ATOM
      1 O           1.8226   -0.8294    4.4614 O.3     1  LIG1       -0.3903
      2 C           1.2853   -2.0485    3.9500 C.3     1  LIG1        0.0703
      3 H           2.0972   -2.7788    3.8913 H       1  LIG1        0.0609
      4 C           0.0949   -2.5417    4.8072 C.3     1  LIG1        0.0310
      5 H          -0.3449   -3.4304    4.3368 H       1  LIG1        0.0483
      6 C           0.6186   -2.9410    6.1770 C.3     1  LIG1       -0.0473
      7 N          -0.9683   -1.4996    4.9613 N.3     1  LIG1       -0.3083
      8 H          -1.6621   -1.8094    5.6251 H       1  LIG1        0.1225
      9 C          -1.6243   -1.3026    3.6614 C.3     1  LIG1        0.0080
     10 H          -2.1648   -2.2195    3.3883 H       1  LIG1        0.0460
     11 C          -2.6608   -0.1289    3.6033 C.3     1  LIG1       -0.0375
     12 C          -3.3890    0.1653    2.2432 C.3     1  LIG1       -0.0516
     13 C          -2.6622    0.8393    1.0321 C.3     1  LIG1       -0.0530
     14 C          -1.5717    0.0154    0.3820 C.3     1  LIG1       -0.0531
     15 C          -0.6920    0.4117   -0.7598 C.3     1  LIG1       -0.0531
     16 C          -1.5021    0.5692   -2.0004 C.3     1  LIG1       -0.0531
     17 C          -0.6357    1.0787   -3.1371 C.3     1  LIG1       -0.0531
     18 C           0.4439    0.0732   -3.5508 C.3     1  LIG1       -0.0530
     19 C           1.2377    0.4823   -4.7919 C.3     1  LIG1       -0.0507
     20 C           2.0458    1.7812   -4.6410 C.3     1  LIG1       -0.0271
     21 C           2.8566    2.1069   -5.9005 C.3     1  LIG1        0.0524
     22 O           1.9782    2.2593   -7.0276 O.3     1  LIG1       -0.3921
     23 C           3.6527    3.3971   -5.7461 C.3     1  LIG1       -0.0389
     24 C          -0.5239   -1.0575    2.6840 C.3     1  LIG1       -0.0352
     25 C           0.7801   -1.7931    2.5681 C.3     1  LIG1       -0.0240
     26 H           1.0359   -0.3051    4.7476 H       1  LIG1        0.2098
     27 H           1.4028   -3.6932    6.0497 H       1  LIG1        0.0245
     28 H          -0.1817   -3.3701    6.7771 H       1  LIG1        0.0245
     29 H           1.0451   -2.0807    6.6982 H       1  LIG1        0.0245
     30 H          -3.4526   -0.3705    4.3270 H       1  LIG1        0.0280
     31 H          -2.2097    0.8053    3.9609 H       1  LIG1        0.0280
     32 H          -4.1961    0.8727    2.4965 H       1  LIG1        0.0266
     33 H          -3.9022   -0.7445    1.9080 H       1  LIG1        0.0266
     34 H          -2.2308    1.7874    1.3675 H       1  LIG1        0.0265
     35 H          -3.4142    1.0632    0.2708 H       1  LIG1        0.0265
     36 H          -1.9068   -1.0210    0.2334 H       1  LIG1        0.0265
     37 H          -0.7695    0.1483    1.0699 H       1  LIG1        0.0265
     38 H           0.0639   -0.3868   -0.8664 H       1  LIG1        0.0265
     39 H          -0.1279    1.3160   -0.4973 H       1  LIG1        0.0265
     40 H          -2.3006    1.2864   -1.7926 H       1  LIG1        0.0265
     41 H          -1.9697   -0.3906   -2.2490 H       1  LIG1        0.0265
     42 H          -0.1766    2.0248   -2.8271 H       1  LIG1        0.0265
     43 H          -1.3027    1.2876   -3.9764 H       1  LIG1        0.0265
     44 H          -0.0418   -0.8894   -3.7573 H       1  LIG1        0.0265
     45 H           1.1475   -0.1059   -2.7290 H       1  LIG1        0.0265
     46 H           0.5474    0.5630   -5.6383 H       1  LIG1        0.0266
     47 H           1.9318   -0.3352   -5.0238 H       1  LIG1        0.0266
     48 H           2.7202    1.6972   -3.7827 H       1  LIG1        0.0290
     49 H           1.3523    2.6076   -4.4419 H       1  LIG1        0.0290
     50 H           3.5386    1.2804   -6.1325 H       1  LIG1        0.0590
     51 H           2.5050    2.3107   -7.8017 H       1  LIG1        0.2098
     52 H           2.9910    4.2454   -5.5389 H       1  LIG1        0.0254
     53 H           4.1862    3.6368   -6.6714 H       1  LIG1        0.0254
     54 H           4.3841    3.3179   -4.9346 H       1  LIG1        0.0254
     55 H          -0.2710    0.0129    2.7567 H       1  LIG1        0.0281
     56 H          -0.9953   -1.4522    1.8021 H       1  LIG1        0.0281
     57 H           1.4698   -1.1904    1.9601 H       1  LIG1        0.0291
     58 H           0.6157   -2.7268    2.0178 H       1  LIG1        0.0291
@<TRIPOS>BOND
     1     1     2    1
     2     2     3    1
     3     2     4    1
     4     4     5    1
     5     4     6    1
     6     4     7    1
     7     7     8    1
     8     7     9    1
     9    11    12    1
    10    12    13    1
    11    13    14    1
    12    14    15    1
    13    15    16    1
    14    16    17    1
    15    17    18    1
    16    18    19    1
    17    19    20    1
    18    20    21    1
    19    21    22    1
    20    21    23    1
    21     9    24    1
    22    24    25    1
    23     2    25    1
    24     9    11    1
    25     9    10    1
    26     1    26    1
    27     6    27    1
    28     6    28    1
    29     6    29    1
    30    11    30    1
    31    11    31    1
    32    12    32    1
    33    12    33    1
    34    13    34    1
    35    13    35    1
    36    14    36    1
    37    14    37    1
    38    15    38    1
    39    15    39    1
    40    16    40    1
    41    16    41    1
    42    17    42    1
    43    17    43    1
    44    18    44    1
    45    18    45    1
    46    19    46    1
    47    19    47    1
    48    20    48    1
    49    20    49    1
    50    21    50    1
    51    22    51    1
    52    23    52    1
    53    23    53    1
    54    23    54    1
    55    24    55    1
    56    24    56    1
    57    25    57    1
    58    25    58    1
