REMARK  Name = NuBBE_2225
REMARK  3 active torsions:
REMARK  status: ('A' for Active; 'I' for Inactive)
REMARK    1  A    between atoms: C_3  and  C_14
REMARK    2  A    between atoms: C_4  and  O_5
REMARK    3  A    between atoms: C_9  and  C_13
REMARK                            x       y       z     vdW  Elec       q    Type
REMARK                         _______ _______ _______ _____ _____    ______ ____
ROOT
ATOM      1  C   LIG A   1       1.185   1.401   0.128  0.00  0.00    +0.005 A 
ATOM      2  C   LIG A   1       2.382   0.690   0.085  0.00  0.00    +0.007 A 
ATOM      3  C   LIG A   1       2.381  -0.709   0.011  0.00  0.00    -0.008 A 
ATOM      4  C   LIG A   1       1.147  -1.386  -0.020  0.00  0.00    +0.134 A 
ATOM      5  C   LIG A   1      -0.073  -0.680   0.036  0.00  0.00    +0.104 A 
ATOM      6  C   LIG A   1      -0.041   0.726   0.099  0.00  0.00    -0.026 A 
ATOM      7  C   LIG A   1      -1.315   1.511   0.212  0.00  0.00    +0.080 C 
ATOM      8  C   LIG A   1      -2.457   0.714  -0.393  0.00  0.00    +0.178 C 
ATOM      9  O   LIG A   1      -2.498  -0.602   0.179  0.00  0.00    -0.458 OA
ATOM     10  C   LIG A   1      -1.393  -1.395   0.100  0.00  0.00    +0.343 C 
ATOM     11  O   LIG A   1      -1.517  -2.611   0.152  0.00  0.00    -0.245 OA
ATOM     12  C   LIG A   1      -3.798   1.377  -0.102  0.00  0.00    +0.052 C 
ATOM     13  C   LIG A   1       3.700  -1.432  -0.012  0.00  0.00    +0.048 C 
ENDROOT
BRANCH   4  14
ATOM     14  O   LIG A   1       1.122  -2.752  -0.105  0.00  0.00    -0.506 OA
ATOM     15  H   LIG A   1       2.012  -3.129  -0.063  0.00  0.00    +0.292 HD
ENDBRANCH   4  14
TORSDOF 1
