REMARK  Name = NuBBE_628
REMARK  9 active torsions:
REMARK  status: ('A' for Active; 'I' for Inactive)
REMARK    1  A    between atoms: C_2  and  O_3
REMARK    2  A    between atoms: C_2  and  C_8
REMARK    3  A    between atoms: O_3  and  C_4
REMARK    4  A    between atoms: C_4  and  C_5
REMARK    5  A    between atoms: C_5  and  C_6
REMARK    6  A    between atoms: C_6  and  C_7
REMARK    7  A    between atoms: C_10  and  O_11
REMARK    8  A    between atoms: C_12  and  O_13
REMARK    9  A    between atoms: C_14  and  O_15
REMARK                            x       y       z     vdW  Elec       q    Type
REMARK                         _______ _______ _______ _____ _____    ______ ____
ROOT
ATOM      1  C   LIG A   1       0.504  -1.506  -0.133  0.00  0.00    +0.066 A 
ATOM      2  C   LIG A   1       0.167  -2.870  -0.042  0.00  0.00    +0.064 A 
ATOM      3  C   LIG A   1       0.988  -3.817  -0.650  0.00  0.00    +0.163 A 
ATOM      4  C   LIG A   1       2.123  -3.416  -1.347  0.00  0.00    +0.201 A 
ATOM      5  C   LIG A   1       2.442  -2.069  -1.450  0.00  0.00    +0.163 A 
ATOM      6  C   LIG A   1       1.641  -1.107  -0.853  0.00  0.00    +0.064 A 
ENDROOT
BRANCH   1   8
ATOM      7  O   LIG A   1      -1.507  -0.730   0.896  0.00  0.00    -0.245 OA
ATOM      8  C   LIG A   1      -0.362  -0.507   0.552  0.00  0.00    +0.339 C 
BRANCH   8   9
ATOM      9  O   LIG A   1       0.345   0.633   0.766  0.00  0.00    -0.461 OA
BRANCH   9  10
ATOM     10  C   LIG A   1      -0.314   1.685   1.492  0.00  0.00    +0.232 C 
BRANCH  10  11
ATOM     11  C   LIG A   1      -1.150   2.541   0.540  0.00  0.00    +0.041 C 
BRANCH  11  12
ATOM     12  C   LIG A   1      -1.850   3.696   1.257  0.00  0.00    +0.000 C 
ATOM     13  C   LIG A   1      -2.693   4.537   0.306  0.00  0.00    +0.004 C 
ENDBRANCH  11  12
ENDBRANCH  10  11
ENDBRANCH   9  10
ENDBRANCH   8   9
ENDBRANCH   1   8
BRANCH   3  14
ATOM     14  O   LIG A   1       0.727  -5.158  -0.587  0.00  0.00    -0.503 OA
ATOM     15  H   LIG A   1      -0.097  -5.291  -0.085  0.00  0.00    +0.292 HD
ENDBRANCH   3  14
BRANCH   4  16
ATOM     16  O   LIG A   1       2.943  -4.338  -1.937  0.00  0.00    -0.501 OA
ATOM     17  H   LIG A   1       2.530  -5.201  -1.727  0.00  0.00    +0.292 HD
ENDBRANCH   4  16
BRANCH   5  18
ATOM     18  O   LIG A   1       3.554  -1.677  -2.136  0.00  0.00    -0.503 OA
ATOM     19  H   LIG A   1       3.962  -2.510  -2.448  0.00  0.00    +0.292 HD
ENDBRANCH   5  18
TORSDOF 8
