@<TRIPOS>MOLECULE
NuBBE_2223
 40 42 0 0 0
SMALL
GASTEIGER

@<TRIPOS>ATOM
      1 O          -2.3645    3.4524    0.0831 O.2     1  LIG1       -0.4916
      2 C          -3.1232    3.9487    1.1809 C.3     1  LIG1        0.0790
      3 C          -1.1138    2.9394    0.4004 C.2     1  LIG1        0.1637
      4 C          -0.6674    1.8905   -0.3077 C.2     1  LIG1       -0.0242
      5 C           0.6788    1.1961   -0.1463 C.3     1  LIG1        0.0364
      6 C           0.4302   -0.2898    0.1765 C.ar    1  LIG1       -0.0232
      7 C           0.4946   -1.3020   -0.8213 C.ar    1  LIG1        0.0025
      8 C           0.1600   -2.6412   -0.4916 C.ar    1  LIG1        0.1684
      9 O           0.1623   -3.5602   -1.5136 O.3     1  LIG1       -0.4910
     10 C           0.7658   -4.8200   -1.2173 C.3     1  LIG1        0.0790
     11 C          -0.2610   -2.9429    0.8054 C.ar    1  LIG1        0.2011
     12 C          -0.2813   -1.9604    1.7856 C.ar    1  LIG1        0.1623
     13 C           0.0382   -0.6490    1.4832 C.ar    1  LIG1       -0.0117
     14 O          -0.6778   -2.2688    3.0559 O.3     1  LIG1       -0.5032
     15 O          -0.7709   -4.1614    1.1686 O.3     1  LIG1       -0.5009
     16 C           0.9818   -0.9856   -2.2207 C.3     1  LIG1       -0.0238
     17 C           0.9434    0.4937   -2.5885 C.3     1  LIG1       -0.0476
     18 C           1.4940    1.3505   -1.4552 C.3     1  LIG1       -0.0359
     19 C           1.5020    1.8634    0.9464 C.2     1  LIG1       -0.0660
     20 C           1.0953    2.9144    1.6702 C.2     1  LIG1       -0.0140
     21 C          -0.2316    3.5424    1.4585 C.2     1  LIG1        0.2197
     22 O          -0.5456    4.5103    2.1365 O.2     1  LIG1       -0.2840
     23 H          -4.1647    4.0293    0.8536 H       1  LIG1        0.0660
     24 H          -2.7960    4.9538    1.4601 H       1  LIG1        0.0660
     25 H          -3.0923    3.2657    2.0364 H       1  LIG1        0.0660
     26 H          -1.3365    1.4851   -1.0644 H       1  LIG1        0.0621
     27 H           1.0062   -5.3029   -2.1702 H       1  LIG1        0.0660
     28 H           0.0640   -5.4858   -0.7082 H       1  LIG1        0.0660
     29 H           1.6923   -4.7151   -0.6440 H       1  LIG1        0.0660
     30 H          -0.0524    0.0962    2.2697 H       1  LIG1        0.0658
     31 H          -0.8363   -3.2336    3.0368 H       1  LIG1        0.2923
     32 H          -1.2967   -4.4510    0.4000 H       1  LIG1        0.2924
     33 H           0.3864   -1.5289   -2.9636 H       1  LIG1        0.0314
     34 H           2.0161   -1.3445   -2.3016 H       1  LIG1        0.0314
     35 H          -0.0816    0.7931   -2.8335 H       1  LIG1        0.0269
     36 H           1.5357    0.6584   -3.4967 H       1  LIG1        0.0269
     37 H           1.5118    2.4018   -1.7753 H       1  LIG1        0.0280
     38 H           2.5432    1.0650   -1.2902 H       1  LIG1        0.0280
     39 H           2.4824    1.4386    1.1548 H       1  LIG1        0.0585
     40 H           1.7090    3.3543    2.4475 H       1  LIG1        0.0654
@<TRIPOS>BOND
     1     1     2    1
     2     1     3    1
     3     3     4    2
     4     4     5    1
     5     5     6    1
     6     6     7   ar
     7     7     8   ar
     8     8     9    1
     9     9    10    1
    10     8    11   ar
    11    11    12   ar
    12    12    13   ar
    13     6    13   ar
    14    12    14    1
    15    11    15    1
    16     7    16    1
    17    16    17    1
    18    17    18    1
    19     5    18    1
    20     5    19    1
    21    19    20    2
    22    20    21    1
    23     3    21    1
    24    21    22    2
    25     2    23    1
    26     2    24    1
    27     2    25    1
    28     4    26    1
    29    10    27    1
    30    10    28    1
    31    10    29    1
    32    13    30    1
    33    14    31    1
    34    15    32    1
    35    16    33    1
    36    16    34    1
    37    17    35    1
    38    17    36    1
    39    18    37    1
    40    18    38    1
    41    19    39    1
    42    20    40    1
