@<TRIPOS>MOLECULE
NuBBE_42
 35 34 0 0 0
SMALL
GASTEIGER

@<TRIPOS>ATOM
      1 N          -0.2642    1.2857    3.0279 N.pl3   1  LIG1       -0.1296
      2 C          -0.9366    0.5807    2.1863 C.cat   1  LIG1        0.3790
      3 N          -2.2907    0.6218    2.2068 N.pl3   1  LIG1       -0.2891
      4 N          -0.3716   -0.2693    1.2657 N.pl3   1  LIG1       -0.2557
      5 C          -1.1562   -1.0821    0.3293 C.3     1  LIG1        0.0862
      6 C          -1.5064   -0.2529   -0.8826 C.2     1  LIG1       -0.0519
      7 C          -2.2160   -0.6421   -1.9603 C.2     1  LIG1       -0.0767
      8 C          -2.8270   -2.0042   -2.1387 C.3     1  LIG1       -0.0440
      9 C          -2.4455    0.2958   -3.1195 C.3     1  LIG1       -0.0440
     10 C           1.0281   -0.6890    1.4511 C.3     1  LIG1        0.0862
     11 C           1.8879   -0.1902    0.3178 C.2     1  LIG1       -0.0519
     12 C           3.0153    0.5519    0.3729 C.2     1  LIG1       -0.0767
     13 C           3.6852    1.0403    1.6308 C.3     1  LIG1       -0.0440
     14 C           3.7079    0.9845   -0.8942 C.3     1  LIG1       -0.0440
     15 H          -0.9056    1.8144    3.6201 H       1  LIG1        0.3062
     16 H          -2.7091    1.3626    2.7532 H       1  LIG1        0.2547
     17 H          -2.7386    0.5292    1.3084 H       1  LIG1        0.2547
     18 H          -2.0663   -1.4510    0.8158 H       1  LIG1        0.0702
     19 H          -0.5955   -1.9701    0.0111 H       1  LIG1        0.0702
     20 H          -1.1220    0.7697   -0.8664 H       1  LIG1        0.0603
     21 H          -2.6646   -2.6604   -1.2795 H       1  LIG1        0.0274
     22 H          -2.4043   -2.4977   -3.0215 H       1  LIG1        0.0274
     23 H          -3.9099   -1.9146   -2.2844 H       1  LIG1        0.0274
     24 H          -2.0104    1.2851   -2.9459 H       1  LIG1        0.0274
     25 H          -3.5170    0.4308   -3.2982 H       1  LIG1        0.0274
     26 H          -1.9912   -0.1113   -4.0297 H       1  LIG1        0.0274
     27 H           1.0785   -1.7856    1.4704 H       1  LIG1        0.0702
     28 H           1.4152   -0.3749    2.4240 H       1  LIG1        0.0702
     29 H           1.5383   -0.4977   -0.6654 H       1  LIG1        0.0603
     30 H           3.1945    0.7130    2.5473 H       1  LIG1        0.0274
     31 H           3.7088    2.1364    1.6404 H       1  LIG1        0.0274
     32 H           4.7192    0.6799    1.6698 H       1  LIG1        0.0274
     33 H           3.1886    0.6356   -1.7921 H       1  LIG1        0.0274
     34 H           4.7319    0.5970   -0.9282 H       1  LIG1        0.0274
     35 H           3.7494    2.0787   -0.9423 H       1  LIG1        0.0274
@<TRIPOS>BOND
     1     1     2    2
     2     2     3    1
     3     2     4    1
     4     4     5    1
     5     5     6    1
     6     6     7    2
     7     7     8    1
     8     7     9    1
     9     4    10    1
    10    10    11    1
    11    11    12    2
    12    12    13    1
    13    12    14    1
    14     1    15    1
    15     3    16    1
    16     3    17    1
    17     5    18    1
    18     5    19    1
    19     6    20    1
    20     8    21    1
    21     8    22    1
    22     8    23    1
    23     9    24    1
    24     9    25    1
    25     9    26    1
    26    10    27    1
    27    10    28    1
    28    11    29    1
    29    13    30    1
    30    13    31    1
    31    13    32    1
    32    14    33    1
    33    14    34    1
    34    14    35    1
