@<TRIPOS>MOLECULE
NuBBE_1609
 75 80 0 0 0
SMALL
GASTEIGER

@<TRIPOS>ATOM
      1 C          -1.5463   -0.6771   -1.3190 C.3     1  LIG1       -0.0531
      2 C          -0.7801   -0.5215    0.0201 C.3     1  LIG1        0.0410
      3 C          -0.3897   -1.9718    0.5087 C.3     1  LIG1        0.1250
      4 C           0.7416   -2.7383   -0.2123 C.3     1  LIG1        0.0419
      5 C           0.2765   -3.2334   -1.6016 C.3     1  LIG1       -0.0531
      6 C           1.1279   -3.9916    0.6685 C.3     1  LIG1        0.1391
      7 H           1.4584   -3.6683    1.6662 H       1  LIG1        0.0793
      8 O          -0.0213   -4.8433    0.8784 O.3     1  LIG1       -0.4539
      9 C          -1.1829   -4.3182    1.3556 C.2     1  LIG1        0.3398
     10 O          -2.1074   -5.0214    1.7308 O.2     1  LIG1       -0.2478
     11 C          -1.3424   -2.8440    1.3055 C.3     1  LIG1        0.1858
     12 H          -2.3633   -2.5304    1.4498 H       1  LIG1        0.0743
     13 O          -0.3115   -2.0724    1.9452 O.3     1  LIG1       -0.3515
     14 C           2.2569   -4.8267    0.1100 C.ar    1  LIG1        0.0310
     15 C           2.1649   -5.9559   -0.7603 C.ar    1  LIG1       -0.0172
     16 C           3.4494   -6.3868   -0.9881 C.ar    1  LIG1        0.0921
     17 O           4.3329   -5.6072   -0.3172 O.2     1  LIG1       -0.4706
     18 C           3.6097   -4.6725    0.3489 C.ar    1  LIG1        0.0984
     19 C           1.9578   -1.8064   -0.3408 C.3     1  LIG1       -0.0409
     20 C           1.6358   -0.4243   -0.9074 C.3     1  LIG1       -0.0482
     21 C           0.5638    0.3253   -0.0821 C.3     1  LIG1       -0.0214
     22 H           0.9728    0.3332    0.9425 H       1  LIG1        0.0314
     23 C           0.3829    1.8827   -0.4515 C.3     1  LIG1        0.0019
     24 C          -0.1523    2.0363   -1.8971 C.3     1  LIG1       -0.0566
     25 C          -0.5765    2.4846    0.6455 C.3     1  LIG1       -0.0178
     26 H          -0.0673    2.2880    1.6043 H       1  LIG1        0.0317
     27 C          -1.9007    1.7160    0.7236 C.3     1  LIG1       -0.0107
     28 C          -1.7388    0.2172    1.0316 C.3     1  LIG1        0.1117
     29 H          -1.3550    0.1097    2.0541 H       1  LIG1        0.0740
     30 O          -3.0712   -0.3539    0.9443 O.3     1  LIG1       -0.4609
     31 C          -3.8996   -0.1817    2.0121 C.2     1  LIG1        0.3042
     32 O          -3.5856    0.3133    3.0838 O.2     1  LIG1       -0.2512
     33 C          -5.2637   -0.7091    1.6849 C.3     1  LIG1        0.0332
     34 C          -0.7855    4.0393    0.6227 C.3     1  LIG1        0.0270
     35 C          -1.5529    4.5908   -0.5893 C.3     1  LIG1       -0.0528
     36 C          -1.5559    4.5034    1.8855 C.3     1  LIG1       -0.0528
     37 C           0.6050    4.6715    0.6595 C.2     1  LIG1        0.1417
     38 O           0.8937    5.6008    1.4149 O.2     1  LIG1       -0.2967
     39 C           1.6111    4.1859   -0.3435 C.3     1  LIG1        0.0332
     40 C           1.7617    2.6613   -0.3613 C.3     1  LIG1        0.0709
     41 H           2.2747    2.3416    0.5561 H       1  LIG1        0.0605
     42 O           2.5692    2.2924   -1.4938 O.3     1  LIG1       -0.3788
     43 C           3.8844    2.8345   -1.4973 C.3     1  LIG1        0.0368
     44 H          -0.8842   -0.7067   -2.1836 H       1  LIG1        0.0237
     45 H          -2.2491    0.1374   -1.5075 H       1  LIG1        0.0237
     46 H          -2.1464   -1.5947   -1.3255 H       1  LIG1        0.0237
     47 H          -0.6679   -3.7844   -1.5385 H       1  LIG1        0.0237
     48 H           1.0159   -3.8863   -2.0730 H       1  LIG1        0.0237
     49 H           0.1367   -2.4247   -2.3164 H       1  LIG1        0.0237
     50 H           1.2660   -6.3933   -1.1739 H       1  LIG1        0.0653
     51 H           3.8791   -7.1901   -1.5703 H       1  LIG1        0.1029
     52 H           4.1905   -3.9720    0.9334 H       1  LIG1        0.1033
     53 H           2.7267   -2.2633   -0.9755 H       1  LIG1        0.0273
     54 H           2.4151   -1.6650    0.6484 H       1  LIG1        0.0273
     55 H           1.3534   -0.5066   -1.9597 H       1  LIG1        0.0269
     56 H           2.5842    0.1150   -0.8776 H       1  LIG1        0.0269
     57 H          -1.2378    1.9651   -1.9620 H       1  LIG1        0.0236
     58 H           0.2717    1.2885   -2.5726 H       1  LIG1        0.0236
     59 H           0.1176    2.9974   -2.3412 H       1  LIG1        0.0236
     60 H          -2.4948    1.8559   -0.1846 H       1  LIG1        0.0304
     61 H          -2.5251    2.1380    1.5161 H       1  LIG1        0.0304
     62 H          -6.0034   -0.2245    2.3282 H       1  LIG1        0.0342
     63 H          -5.5181   -0.4664    0.6487 H       1  LIG1        0.0342
     64 H          -5.2901   -1.7901    1.8365 H       1  LIG1        0.0342
     65 H          -0.9766    4.5659   -1.5145 H       1  LIG1        0.0239
     66 H          -1.8068    5.6474   -0.4377 H       1  LIG1        0.0239
     67 H          -2.4926    4.0557   -0.7554 H       1  LIG1        0.0239
     68 H          -1.5437    5.5958    1.9849 H       1  LIG1        0.0239
     69 H          -2.6111    4.2132    1.8521 H       1  LIG1        0.0239
     70 H          -1.1121    4.0908    2.7982 H       1  LIG1        0.0239
     71 H           1.3542    4.5834   -1.3304 H       1  LIG1        0.0367
     72 H           2.5734    4.6428   -0.0809 H       1  LIG1        0.0367
     73 H           4.4842    2.2690   -2.2152 H       1  LIG1        0.0524
     74 H           4.3504    2.7590   -0.5107 H       1  LIG1        0.0524
     75 H           3.8597    3.8762   -1.8304 H       1  LIG1        0.0524
@<TRIPOS>BOND
     1     2     3    1
     2     3     4    1
     3     4     6    1
     4     6     8    1
     5     8     9    1
     6     9    11    1
     7     3    11    1
     8    11    13    1
     9     3    13    1
    10    14    15   ar
    11    15    16   ar
    12    16    17   ar
    13    17    18   ar
    14    14    18   ar
    15     4    19    1
    16    19    20    1
    17    20    21    1
    18     2    21    1
    19    21    23    1
    20    23    25    1
    21    25    27    1
    22    27    28    1
    23     2    28    1
    24    30    31    1
    25    31    32    2
    26    31    33    1
    27    25    34    1
    28    34    37    1
    29    37    39    1
    30    39    40    1
    31    23    40    1
    32    42    43    1
    33     1     2    1
    34     4     5    1
    35     9    10    2
    36    11    12    1
    37    21    22    1
    38    23    24    1
    39    25    26    1
    40    28    29    1
    41    28    30    1
    42    34    35    1
    43    34    36    1
    44    37    38    2
    45     6    14    1
    46     6     7    1
    47    40    42    1
    48    40    41    1
    49     1    44    1
    50     1    45    1
    51     1    46    1
    52     5    47    1
    53     5    48    1
    54     5    49    1
    55    15    50    1
    56    16    51    1
    57    18    52    1
    58    19    53    1
    59    19    54    1
    60    20    55    1
    61    20    56    1
    62    24    57    1
    63    24    58    1
    64    24    59    1
    65    27    60    1
    66    27    61    1
    67    33    62    1
    68    33    63    1
    69    33    64    1
    70    35    65    1
    71    35    66    1
    72    35    67    1
    73    36    68    1
    74    36    69    1
    75    36    70    1
    76    39    71    1
    77    39    72    1
    78    43    73    1
    79    43    74    1
    80    43    75    1
