@<TRIPOS>MOLECULE
NuBBE_104
 71 75 0 0 0
SMALL
GASTEIGER

@<TRIPOS>ATOM
      1 C          -2.6573   -0.3309    2.2588 C.2     1  LIG1       -0.1022
      2 C          -1.9325    0.3669    1.3759 C.2     1  LIG1       -0.0816
      3 C          -0.9052   -0.1668    0.3933 C.3     1  LIG1        0.0470
      4 C          -1.6183   -0.7797   -0.8556 C.3     1  LIG1        0.2102
      5 H          -0.8344   -1.0090   -1.5922 H       1  LIG1        0.1062
      6 O          -2.2841   -1.9933   -0.4903 O.2     1  LIG1       -0.4699
      7 C          -1.4323   -2.9155    0.0378 C.2     1  LIG1        0.0981
      8 C          -0.2659   -2.6383    0.6484 C.2     1  LIG1        0.0749
      9 C           0.1769   -1.2056    0.9168 C.3     1  LIG1        0.0112
     10 C           0.6424   -1.0201    2.3880 C.3     1  LIG1       -0.0005
     11 C           1.2609    0.3175    2.6892 C.ar    1  LIG1        0.0666
     12 N           0.4232    1.3043    3.0884 N.ar    1  LIG1       -0.2429
     13 CA          0.9005    2.5358    3.3868 C.ar    1  LIG1        0.1484
     14 C          -0.0995    3.5499    3.8295 C.2     1  LIG1        0.3553
     15 O          -1.3267    3.3221    3.3105 O.3     1  LIG1       -0.4761
     16 OXT         0.1212    4.5107    4.5357 O.2     1  LIG1       -0.2434
     17 C           2.2367    2.8964    3.3097 C.ar    1  LIG1       -0.0195
     18 C           3.1305    1.8908    2.9068 C.ar    1  LIG1        0.0114
     19 C           2.6258    0.6215    2.6171 C.ar    1  LIG1        0.0691
     20 N           3.7046   -0.1740    2.2965 N.ar    1  LIG1       -0.3527
     21 C           4.8761    0.5459    2.3289 C.ar    1  LIG1        0.0475
     22 C           6.1905    0.1429    2.0619 C.ar    1  LIG1       -0.0378
     23 C           7.1984    1.1058    2.1703 C.ar    1  LIG1       -0.0598
     24 C           6.9020    2.4162    2.5368 C.ar    1  LIG1       -0.0611
     25 C           5.5835    2.7994    2.8094 C.ar    1  LIG1       -0.0520
     26 C           4.5473    1.8477    2.7030 C.ar    1  LIG1        0.0075
     27 C           0.6306   -3.7821    0.9487 C.2     1  LIG1        0.3381
     28 O          -0.0418   -4.9526    0.8610 O.3     1  LIG1       -0.4646
     29 C           0.7478   -6.1335    0.9336 C.3     1  LIG1        0.0820
     30 O           1.8322   -3.6558    1.1904 O.2     1  LIG1       -0.2452
     31 O          -2.5299    0.1264   -1.5222 O.3     1  LIG1       -0.3093
     32 C          -3.1606   -0.5278   -2.6414 C.3     1  LIG1        0.1918
     33 H          -3.5479   -1.4941   -2.2971 H       1  LIG1        0.0939
     34 O          -2.2097   -0.8514   -3.6639 O.3     1  LIG1       -0.3404
     35 C          -1.8564    0.1647   -4.6104 C.3     1  LIG1        0.1130
     36 H          -1.4423   -0.4049   -5.4522 H       1  LIG1        0.0647
     37 C          -3.0497    0.9620   -5.1652 C.3     1  LIG1        0.1119
     38 H          -2.6875    1.8361   -5.7166 H       1  LIG1        0.0647
     39 C          -4.0447    1.3955   -4.0823 C.3     1  LIG1        0.1141
     40 H          -4.9586    1.7260   -4.5939 H       1  LIG1        0.0648
     41 O          -3.5999    2.5139   -3.3237 O.3     1  LIG1       -0.3864
     42 O          -3.7316    0.1355   -6.1309 O.3     1  LIG1       -0.3865
     43 C          -0.7057    1.0558   -4.1221 C.3     1  LIG1        0.0730
     44 O          -1.0252    1.7922   -2.9508 O.3     1  LIG1       -0.3924
     45 C          -4.4141    0.2003   -3.1981 C.3     1  LIG1        0.1342
     46 H          -5.0682    0.5135   -2.3770 H       1  LIG1        0.0671
     47 O          -5.1593   -0.7451   -4.0122 O.3     1  LIG1       -0.3841
     48 H          -3.3555    0.1804    2.9145 H       1  LIG1        0.0532
     49 H          -2.5788   -1.4069    2.3532 H       1  LIG1        0.0532
     50 H          -2.0779    1.4482    1.3469 H       1  LIG1        0.0571
     51 H          -0.3468    0.7220    0.0619 H       1  LIG1        0.0410
     52 H          -1.8318   -3.9042   -0.1391 H       1  LIG1        0.1029
     53 H           1.0654   -1.0465    0.2843 H       1  LIG1        0.0363
     54 H           1.3902   -1.7764    2.6526 H       1  LIG1        0.0335
     55 H          -0.1822   -1.1994    3.0871 H       1  LIG1        0.0335
     56 H          -1.8882    4.0397    3.6632 H       1  LIG1        0.2955
     57 H           2.5682    3.9006    3.5460 H       1  LIG1        0.0648
     58 H           3.6491   -1.1593    2.0756 H       1  LIG1        0.1660
     59 H           6.4272   -0.8780    1.7793 H       1  LIG1        0.0638
     60 H           8.2298    0.8263    1.9659 H       1  LIG1        0.0618
     61 H           7.7013    3.1496    2.6145 H       1  LIG1        0.0618
     62 H           5.3649    3.8234    3.0982 H       1  LIG1        0.0624
     63 H           1.4730   -6.1530    0.1148 H       1  LIG1        0.0661
     64 H           0.0764   -6.9893    0.8196 H       1  LIG1        0.0661
     65 H           1.2422   -6.1991    1.9055 H       1  LIG1        0.0661
     66 H          -2.6803    2.3566   -3.0183 H       1  LIG1        0.2100
     67 H          -4.1254   -0.6144   -5.6346 H       1  LIG1        0.2100
     68 H           0.1865    0.4534   -3.9186 H       1  LIG1        0.0584
     69 H          -0.4479    1.7865   -4.8944 H       1  LIG1        0.0584
     70 H          -0.9751    1.1653   -2.2053 H       1  LIG1        0.2095
     71 H          -6.0257   -0.3409   -4.2075 H       1  LIG1        0.2101
@<TRIPOS>BOND
     1     1     2    2
     2     2     3    1
     3     3     4    1
     4     4     6    1
     5     6     7    1
     6     7     8    2
     7     8     9    1
     8     3     9    1
     9     9    10    1
    10    10    11    1
    11    11    12   ar
    12    12    13   ar
    13    13    14    1
    14    14    15    1
    15    14    16    2
    16    13    17   ar
    17    17    18   ar
    18    18    19   ar
    19    11    19   ar
    20    19    20   ar
    21    20    21   ar
    22    21    22   ar
    23    22    23   ar
    24    23    24   ar
    25    24    25   ar
    26    25    26   ar
    27    21    26   ar
    28    18    26   ar
    29     8    27    1
    30    27    28    1
    31    28    29    1
    32    27    30    2
    33    31    32    1
    34    32    33    1
    35    32    34    1
    36    34    35    1
    37    35    37    1
    38    37    38    1
    39    37    39    1
    40    37    42    1
    41    43    44    1
    42    32    45    1
    43    39    45    1
    44     4    31    1
    45     4     5    1
    46    35    43    1
    47    35    36    1
    48    39    41    1
    49    39    40    1
    50    45    47    1
    51    45    46    1
    52     1    48    1
    53     1    49    1
    54     2    50    1
    55     3    51    1
    56     7    52    1
    57     9    53    1
    58    10    54    1
    59    10    55    1
    60    15    56    1
    61    17    57    1
    62    20    58    1
    63    22    59    1
    64    23    60    1
    65    24    61    1
    66    25    62    1
    67    29    63    1
    68    29    64    1
    69    29    65    1
    70    41    66    1
    71    42    67    1
    72    43    68    1
    73    43    69    1
    74    44    70    1
    75    47    71    1
