REMARK  Name = NuBBE_324
REMARK  15 active torsions:
REMARK  status: ('A' for Active; 'I' for Inactive)
REMARK    1  A    between atoms: O_1  and  C_2
REMARK    2  A    between atoms: C_3  and  C_9
REMARK    3  A    between atoms: C_9  and  C_10
REMARK    4  A    between atoms: C_10  and  C_11
REMARK    5  A    between atoms: C_11  and  C_12
REMARK    6  A    between atoms: C_12  and  C_13
REMARK    7  A    between atoms: C_13  and  C_14
REMARK    8  A    between atoms: C_14  and  C_15
REMARK    9  A    between atoms: C_15  and  C_16
REMARK   10  A    between atoms: C_16  and  C_17
REMARK   11  A    between atoms: C_17  and  C_18
REMARK   12  A    between atoms: C_18  and  C_19
REMARK   13  A    between atoms: C_19  and  C_20
REMARK   14  A    between atoms: C_20  and  C_21
REMARK   15  A    between atoms: C_21  and  C_22
REMARK                            x       y       z     vdW  Elec       q    Type
REMARK                         _______ _______ _______ _____ _____    ______ ____
ROOT
ATOM      1  C   LIG A   1      -2.352   1.325  -0.522  0.00  0.00    -0.000 C 
ENDROOT
BRANCH   1   2
ATOM      2  C   LIG A   1      -1.082   0.922  -1.292  0.00  0.00    -0.000 C 
BRANCH   2   3
ATOM      3  C   LIG A   1       0.254   0.991  -0.588  0.00  0.00    -0.000 C 
BRANCH   3   4
ATOM      4  C   LIG A   1       1.542   0.643  -1.362  0.00  0.00    +0.000 C 
BRANCH   4   5
ATOM      5  C   LIG A   1       1.720  -0.818  -1.778  0.00  0.00    +0.000 C 
BRANCH   5   6
ATOM      6  C   LIG A   1       0.726  -1.268  -2.847  0.00  0.00    +0.005 C 
BRANCH   6   7
ATOM      7  C   LIG A   1       0.950  -2.677  -3.394  0.00  0.00    +0.046 C 
BRANCH   7   9
ATOM      8  C   LIG A   1      -0.333  -3.042  -5.649  0.00  0.00    +0.169 C 
ATOM      9  C   LIG A   1      -0.141  -3.114  -4.328  0.00  0.00    +0.082 C 
ATOM     10  C   LIG A   1      -1.279  -3.913  -3.918  0.00  0.00    +0.344 C 
ATOM     11  O   LIG A   1      -2.076  -4.329  -4.919  0.00  0.00    -0.419 OA
ATOM     12  C   LIG A   1      -1.536  -3.689  -6.022  0.00  0.00    +0.167 C 
ATOM     13  C   LIG A   1      -2.160  -3.638  -7.200  0.00  0.00    +0.062 C 
ATOM     14  O   LIG A   1      -1.506  -4.211  -2.687  0.00  0.00    -0.245 OA
BRANCH   8  15
ATOM     15  O   LIG A   1       0.448  -2.485  -6.615  0.00  0.00    -0.503 OA
ATOM     16  H   LIG A   1       0.719  -1.599  -6.325  0.00  0.00    +0.292 HD
ENDBRANCH   8  15
ENDBRANCH   7   9
ENDBRANCH   6   7
ENDBRANCH   5   6
ENDBRANCH   4   5
ENDBRANCH   3   4
ENDBRANCH   2   3
ENDBRANCH   1   2
BRANCH   1  17
ATOM     17  C   LIG A   1      -2.872   0.397   0.617  0.00  0.00    -0.000 C 
BRANCH  17  18
ATOM     18  C   LIG A   1      -2.072   0.472   1.915  0.00  0.00    -0.000 C 
BRANCH  18  19
ATOM     19  C   LIG A   1      -2.623  -0.193   3.185  0.00  0.00    +0.000 C 
BRANCH  19  20
ATOM     20  C   LIG A   1      -1.673  -0.153   4.419  0.00  0.00    +0.000 C 
BRANCH  20  21
ATOM     21  C   LIG A   1      -1.340   1.213   5.050  0.00  0.00    +0.005 C 
BRANCH  21  22
ATOM     22  C   LIG A   1      -0.613   2.249   4.196  0.00  0.00    +0.035 C 
BRANCH  22  23
ATOM     23  C   LIG A   1       0.751   1.976   3.594  0.00  0.00    -0.044 A 
ATOM     24  C   LIG A   1       0.831   2.127   2.206  0.00  0.00    +0.007 A 
ATOM     25  C   LIG A   1       2.039   2.164   1.519  0.00  0.00    +0.050 A 
ATOM     26  C   LIG A   1       3.182   1.944   2.205  0.00  0.00    +0.166 A 
ATOM     27  C   LIG A   1       3.160   1.800   3.563  0.00  0.00    +0.167 A 
ATOM     28  O   LIG A   1       4.438   1.738   4.043  0.00  0.00    -0.453 OA
ATOM     29  C   LIG A   1       5.206   1.722   2.808  0.00  0.00    +0.466 C 
ATOM     30  O   LIG A   1       4.409   1.932   1.638  0.00  0.00    -0.453 OA
ATOM     31  C   LIG A   1       1.963   1.824   4.290  0.00  0.00    +0.053 A 
ENDBRANCH  22  23
ENDBRANCH  21  22
ENDBRANCH  20  21
ENDBRANCH  19  20
ENDBRANCH  18  19
ENDBRANCH  17  18
ENDBRANCH   1  17
TORSDOF 15
