REMARK  Name = NuBBE_1383
REMARK  7 active torsions:
REMARK  status: ('A' for Active; 'I' for Inactive)
REMARK    1  A    between atoms: C_1  and  C_2
REMARK    2  A    between atoms: C_2  and  C_3
REMARK    3  A    between atoms: C_3  and  C_4
REMARK    4  A    between atoms: C_4  and  C_5
REMARK    5  A    between atoms: C_5  and  C_6
REMARK    6  A    between atoms: C_6  and  C_7
REMARK    7  A    between atoms: C_7  and  C_8
REMARK                            x       y       z     vdW  Elec       q    Type
REMARK                         _______ _______ _______ _____ _____    ______ ____
ROOT
ATOM      1  C   LIG A   1       0.173   0.736  -0.592  0.00  0.00    +0.000 C 
ENDROOT
BRANCH   1   2
ATOM      2  C   LIG A   1      -0.409  -0.112   0.545  0.00  0.00    -0.000 C 
BRANCH   2   3
ATOM      3  C   LIG A   1      -1.938  -0.012   0.609  0.00  0.00    -0.000 C 
BRANCH   3   5
ATOM      4  C   LIG A   1      -2.270  -2.330   1.615  0.00  0.00    +0.004 C 
ATOM      5  C   LIG A   1      -2.562  -0.842   1.737  0.00  0.00    -0.003 C 
ENDBRANCH   3   5
ENDBRANCH   2   3
ENDBRANCH   1   2
BRANCH   1   6
ATOM      6  C   LIG A   1       1.698   0.593  -0.682  0.00  0.00    +0.007 C 
BRANCH   6   7
ATOM      7  C   LIG A   1       2.282   1.433  -1.816  0.00  0.00    +0.071 C 
BRANCH   7   8
ATOM      8  C   LIG A   1       3.786   1.305  -1.942  0.00  0.00    +0.223 C 
ATOM      9  O   LIG A   1       4.488   0.579  -1.252  0.00  0.00    -0.301 OA
ENDBRANCH   7   8
ENDBRANCH   6   7
ENDBRANCH   1   6
TORSDOF 6
