@<TRIPOS>MOLECULE
NuBBE_1524
 81 84 0 0 0
SMALL
GASTEIGER

@<TRIPOS>ATOM
      1 C          -1.6970    0.3931   -0.8925 C.3     1  LIG1       -0.0553
      2 C          -0.1477    0.2639   -0.7816 C.3     1  LIG1       -0.0051
      3 C           0.2698   -1.1636   -1.2235 C.2     1  LIG1       -0.0633
      4 C           1.0873   -1.9599   -0.4840 C.2     1  LIG1       -0.0636
      5 C           1.8362   -1.4307    0.7243 C.3     1  LIG1       -0.0304
      6 C           1.7830    0.0792    0.8701 C.3     1  LIG1       -0.0428
      7 C           0.3567    0.6543    0.6675 C.3     1  LIG1       -0.0191
      8 C           0.5221    2.2344    0.6522 C.3     1  LIG1       -0.0219
      9 C          -0.2428    3.0739    1.7205 C.3     1  LIG1        0.0599
     10 H          -1.3017    2.7843    1.7008 H       1  LIG1        0.0416
     11 C           0.2832    2.7884    3.1119 C.2     1  LIG1        0.3081
     12 O           1.6104    2.9457    3.2475 O.3     1  LIG1       -0.4804
     13 O          -0.4010    2.4779    4.0853 O.2     1  LIG1       -0.2507
     14 C          -0.1618    4.6029    1.4692 C.3     1  LIG1       -0.0364
     15 C          -0.9153    5.4444    2.5168 C.3     1  LIG1       -0.0338
     16 C          -0.8686    6.9158    2.1826 C.2     1  LIG1       -0.0853
     17 C          -1.9134    7.7434    1.9777 C.2     1  LIG1       -0.0796
     18 C          -3.3598    7.3417    2.0729 C.3     1  LIG1       -0.0440
     19 C          -1.7024    9.1941    1.6233 C.3     1  LIG1       -0.0440
     20 H           1.5867    2.4590    0.8130 H       1  LIG1        0.0314
     21 C           0.2633    2.6448   -0.8129 C.3     1  LIG1       -0.0481
     22 C           0.4793    1.3779   -1.6431 C.3     1  LIG1       -0.0431
     23 C          -0.5629    0.0655    1.7596 C.3     1  LIG1       -0.0585
     24 C           1.3232   -3.4656   -0.8101 C.3     1  LIG1       -0.0073
     25 C           0.1549   -3.9721   -1.7316 C.3     1  LIG1       -0.0242
     26 C           0.0863   -5.5150   -2.0190 C.3     1  LIG1       -0.0053
     27 C          -1.2746   -5.8518   -2.6901 C.3     1  LIG1       -0.0572
     28 C           0.1781   -6.3014   -0.6764 C.3     1  LIG1        0.0607
     29 H           0.3249   -7.3674   -0.8882 H       1  LIG1        0.0599
     30 O          -1.0475   -6.2269    0.0592 O.3     1  LIG1       -0.3912
     31 C           1.3117   -5.8317    0.2354 C.3     1  LIG1       -0.0256
     32 C           1.2919   -4.3223    0.4862 C.3     1  LIG1       -0.0413
     33 C           1.1757   -6.0186   -2.9869 C.3     1  LIG1       -0.0572
     34 H          -0.7689   -3.7742   -1.1611 H       1  LIG1        0.0315
     35 C           0.0562   -3.0651   -2.9654 C.3     1  LIG1       -0.0451
     36 C          -0.3541   -1.6589   -2.5227 C.3     1  LIG1       -0.0306
     37 C           2.7299   -3.5529   -1.4466 C.3     1  LIG1       -0.0556
     38 H          -2.0195    0.4415   -1.9403 H       1  LIG1        0.0238
     39 H          -2.0808    1.2992   -0.4135 H       1  LIG1        0.0238
     40 H          -2.2077   -0.4606   -0.4326 H       1  LIG1        0.0238
     41 H           1.4480   -1.8948    1.6368 H       1  LIG1        0.0310
     42 H           2.8945   -1.7068    0.6636 H       1  LIG1        0.0310
     43 H           2.4817    0.5162    0.1432 H       1  LIG1        0.0274
     44 H           2.1692    0.3584    1.8586 H       1  LIG1        0.0274
     45 H           1.7808    2.7360    4.1942 H       1  LIG1        0.2951
     46 H          -0.5923    4.8299    0.4869 H       1  LIG1        0.0276
     47 H           0.8886    4.9204    1.4363 H       1  LIG1        0.0276
     48 H          -0.4689    5.3163    3.5098 H       1  LIG1        0.0308
     49 H          -1.9422    5.0775    2.5835 H       1  LIG1        0.0308
     50 H           0.1380    7.3300    2.1083 H       1  LIG1        0.0571
     51 H          -3.5148    6.4083    2.6177 H       1  LIG1        0.0274
     52 H          -3.7833    7.2300    1.0699 H       1  LIG1        0.0274
     53 H          -3.9332    8.1073    2.6065 H       1  LIG1        0.0274
     54 H          -0.6456    9.4418    1.4804 H       1  LIG1        0.0274
     55 H          -2.0932    9.8390    2.4177 H       1  LIG1        0.0274
     56 H          -2.2275    9.4368    0.6930 H       1  LIG1        0.0274
     57 H           0.9429    3.4420   -1.1334 H       1  LIG1        0.0269
     58 H          -0.7586    3.0151   -0.9483 H       1  LIG1        0.0269
     59 H           1.5497    1.2078   -1.8084 H       1  LIG1        0.0274
     60 H           0.0127    1.4719   -2.6301 H       1  LIG1        0.0274
     61 H          -0.1834    0.2651    2.7634 H       1  LIG1        0.0235
     62 H          -0.6391   -1.0251    1.6772 H       1  LIG1        0.0235
     63 H          -1.5857    0.4475    1.7029 H       1  LIG1        0.0235
     64 H          -2.1169   -5.4022   -2.1530 H       1  LIG1        0.0236
     65 H          -1.4399   -6.9356   -2.7161 H       1  LIG1        0.0236
     66 H          -1.3158   -5.5002   -3.7261 H       1  LIG1        0.0236
     67 H          -1.2367   -5.2965    0.2635 H       1  LIG1        0.2098
     68 H           2.2797   -6.1255   -0.1828 H       1  LIG1        0.0290
     69 H           1.2254   -6.3350    1.2070 H       1  LIG1        0.0290
     70 H           0.3971   -4.0712    1.0720 H       1  LIG1        0.0274
     71 H           2.1489   -4.0830    1.1287 H       1  LIG1        0.0274
     72 H           0.9136   -7.0080   -3.3818 H       1  LIG1        0.0236
     73 H           2.1465   -6.1481   -2.5088 H       1  LIG1        0.0236
     74 H           1.2980   -5.3536   -3.8469 H       1  LIG1        0.0236
     75 H          -0.6928   -3.4237   -3.6777 H       1  LIG1        0.0271
     76 H           1.0012   -3.0269   -3.5158 H       1  LIG1        0.0271
     77 H          -1.4439   -1.6811   -2.4033 H       1  LIG1        0.0310
     78 H          -0.1339   -0.9569   -3.3346 H       1  LIG1        0.0310
     79 H           3.5047   -3.1971   -0.7579 H       1  LIG1        0.0238
     80 H           2.8170   -2.9445   -2.3518 H       1  LIG1        0.0238
     81 H           3.0263   -4.5683   -1.6978 H       1  LIG1        0.0238
@<TRIPOS>BOND
     1     1     2    1
     2     2     3    1
     3     3     4    2
     4     4     5    1
     5     5     6    1
     6     6     7    1
     7     7     8    1
     8     8     9    1
     9     9    10    1
    10     9    11    1
    11    11    12    1
    12    11    13    2
    13     9    14    1
    14    14    15    1
    15    15    16    1
    16    16    17    2
    17    17    18    1
    18    17    19    1
    19     8    20    1
    20     8    21    1
    21    21    22    1
    22     2    22    1
    23     2     7    1
    24     7    23    1
    25     4    24    1
    26    24    25    1
    27    25    26    1
    28    26    27    1
    29    26    28    1
    30    28    31    1
    31    31    32    1
    32    26    33    1
    33    25    34    1
    34    25    35    1
    35    35    36    1
    36     3    36    1
    37    32    24    1
    38    24    37    1
    39    28    30    1
    40    28    29    1
    41     1    38    1
    42     1    39    1
    43     1    40    1
    44     5    41    1
    45     5    42    1
    46     6    43    1
    47     6    44    1
    48    12    45    1
    49    14    46    1
    50    14    47    1
    51    15    48    1
    52    15    49    1
    53    16    50    1
    54    18    51    1
    55    18    52    1
    56    18    53    1
    57    19    54    1
    58    19    55    1
    59    19    56    1
    60    21    57    1
    61    21    58    1
    62    22    59    1
    63    22    60    1
    64    23    61    1
    65    23    62    1
    66    23    63    1
    67    27    64    1
    68    27    65    1
    69    27    66    1
    70    30    67    1
    71    31    68    1
    72    31    69    1
    73    32    70    1
    74    32    71    1
    75    33    72    1
    76    33    73    1
    77    33    74    1
    78    35    75    1
    79    35    76    1
    80    36    77    1
    81    36    78    1
    82    37    79    1
    83    37    80    1
    84    37    81    1
