@<TRIPOS>MOLECULE
NuBBE_309
 20 20 0 0 0
SMALL
GASTEIGER

@<TRIPOS>ATOM
      1 O           0.6033    3.0723    1.8212 O.3     1  LIG1       -0.3921
      2 C           0.1332    1.7483    1.5530 C.3     1  LIG1        0.0743
      3 C           0.4255    1.3784    0.0916 C.3     1  LIG1        0.1032
      4 H          -0.0363    2.1250   -0.5652 H       1  LIG1        0.0667
      5 C          -0.0434   -0.0104   -0.2736 C.ar    1  LIG1       -0.0170
      6 C           0.5446   -1.1469    0.3053 C.ar    1  LIG1       -0.0561
      7 C           0.0969   -2.4262   -0.0268 C.ar    1  LIG1       -0.0614
      8 C          -0.9396   -2.5859   -0.9430 C.ar    1  LIG1       -0.0617
      9 C          -1.5284   -1.4671   -1.5297 C.ar    1  LIG1       -0.0614
     10 C          -1.0835   -0.1861   -1.1970 C.ar    1  LIG1       -0.0561
     11 O           1.8402    1.4936   -0.1278 O.3     1  LIG1       -0.3849
     12 H           1.5064    3.0982    1.4463 H       1  LIG1        0.2095
     13 H          -0.9394    1.7119    1.7678 H       1  LIG1        0.0586
     14 H           0.6500    1.0787    2.2486 H       1  LIG1        0.0586
     15 H           1.3578   -1.0397    1.0211 H       1  LIG1        0.0621
     16 H           0.5566   -3.2984    0.4316 H       1  LIG1        0.0618
     17 H          -1.2899   -3.5823   -1.1999 H       1  LIG1        0.0618
     18 H          -2.3371   -1.5928   -2.2451 H       1  LIG1        0.0618
     19 H          -1.5600    0.6738   -1.6642 H       1  LIG1        0.0621
     20 H           2.0431    0.9557   -0.9142 H       1  LIG1        0.2103
@<TRIPOS>BOND
     1     1     2    1
     2     3     5    1
     3     5     6   ar
     4     6     7   ar
     5     7     8   ar
     6     8     9   ar
     7     9    10   ar
     8     5    10   ar
     9     3    11    1
    10     3     4    1
    11     3     2    1
    12     1    12    1
    13     2    13    1
    14     2    14    1
    15     6    15    1
    16     7    16    1
    17     8    17    1
    18     9    18    1
    19    10    19    1
    20    11    20    1
