@<TRIPOS>MOLECULE
NuBBE_2492
 55 57 0 0 0
SMALL
GASTEIGER

@<TRIPOS>ATOM
      1 C          -0.4808   -4.7556    2.8293 C.2     1  LIG1       -0.1021
      2 C          -0.4534   -4.6310    1.4950 C.2     1  LIG1       -0.0851
      3 C          -0.7294   -3.3783    0.6556 C.3     1  LIG1       -0.0116
      4 C          -2.0414   -3.6670   -0.1044 C.3     1  LIG1       -0.0560
      5 C           0.4426   -3.2217   -0.3393 C.3     1  LIG1       -0.0437
      6 C           0.4015   -1.9232   -1.1498 C.3     1  LIG1       -0.0462
      7 C           0.3749   -0.6835   -0.2324 C.3     1  LIG1       -0.0040
      8 C           0.5056    0.7088   -0.9906 C.3     1  LIG1       -0.0224
      9 C          -0.6478    0.8991   -2.0041 C.3     1  LIG1       -0.0589
     10 C           1.8501    0.7443   -1.7683 C.3     1  LIG1       -0.0403
     11 C           2.1934    2.1061   -2.3542 C.3     1  LIG1        0.0069
     12 C           2.1757    3.1921   -1.3075 C.2     1  LIG1        0.1392
     13 O           3.0630    4.0489   -1.3071 O.2     1  LIG1       -0.2968
     14 C           0.9621    3.2733   -0.3655 C.3     1  LIG1        0.0268
     15 C          -0.1542    4.0502   -1.0781 C.3     1  LIG1       -0.0528
     16 C           1.3897    4.1217    0.8618 C.3     1  LIG1       -0.0528
     17 C           0.5715    1.8318    0.1139 C.3     1  LIG1       -0.0210
     18 C          -0.6752    1.7903    1.0208 C.3     1  LIG1       -0.0199
     19 C          -0.8180    0.4368    1.7225 C.3     1  LIG1        0.0845
     20 H           0.0025    0.3124    2.4401 H       1  LIG1        0.0622
     21 O          -2.0481    0.4401    2.4614 O.3     1  LIG1       -0.3889
     22 C          -0.8379   -0.7554    0.7335 C.3     1  LIG1        0.0959
     23 O          -2.0666   -0.6755    0.0031 O.3     1  LIG1       -0.3857
     24 C          -0.8433   -2.0906    1.5181 C.3     1  LIG1       -0.0124
     25 H          -0.2725   -5.7150    3.2944 H       1  LIG1        0.0532
     26 H          -0.7202   -3.9328    3.4934 H       1  LIG1        0.0532
     27 H          -0.2220   -5.5309    0.9221 H       1  LIG1        0.0572
     28 H          -2.2728   -2.9130   -0.8600 H       1  LIG1        0.0238
     29 H          -2.8930   -3.7175    0.5845 H       1  LIG1        0.0238
     30 H          -1.9925   -4.6270   -0.6339 H       1  LIG1        0.0238
     31 H           0.4658   -4.0691   -1.0376 H       1  LIG1        0.0274
     32 H           1.3958   -3.2535    0.2075 H       1  LIG1        0.0274
     33 H          -0.4628   -1.9420   -1.8198 H       1  LIG1        0.0269
     34 H           1.2911   -1.9093   -1.7872 H       1  LIG1        0.0269
     35 H           1.2742   -0.7646    0.3992 H       1  LIG1        0.0335
     36 H          -0.7898    0.0100   -2.6250 H       1  LIG1        0.0235
     37 H          -0.4603    1.7048   -2.7137 H       1  LIG1        0.0235
     38 H          -1.6036    1.1247   -1.5281 H       1  LIG1        0.0235
     39 H           1.8385    0.0213   -2.5917 H       1  LIG1        0.0275
     40 H           2.6644    0.4414   -1.0962 H       1  LIG1        0.0275
     41 H           1.5177    2.3917   -3.1650 H       1  LIG1        0.0342
     42 H           3.2016    2.0595   -2.7826 H       1  LIG1        0.0342
     43 H           0.1641    5.0802   -1.2836 H       1  LIG1        0.0239
     44 H          -1.0621    4.1097   -0.4701 H       1  LIG1        0.0239
     45 H          -0.4183    3.6290   -2.0478 H       1  LIG1        0.0239
     46 H           1.7672    5.1062    0.5591 H       1  LIG1        0.0239
     47 H           2.1929    3.6304    1.4231 H       1  LIG1        0.0239
     48 H           0.5572    4.3071    1.5467 H       1  LIG1        0.0239
     49 H           1.4107    1.5305    0.7638 H       1  LIG1        0.0316
     50 H          -1.5884    2.0240    0.4627 H       1  LIG1        0.0294
     51 H          -0.6206    2.5567    1.8009 H       1  LIG1        0.0294
     52 H          -1.9953    1.1642    3.1104 H       1  LIG1        0.2099
     53 H          -2.7488   -0.4747    0.6772 H       1  LIG1        0.2103
     54 H          -1.7576   -2.1541    2.1238 H       1  LIG1        0.0302
     55 H           0.0024   -2.0618    2.2196 H       1  LIG1        0.0302
@<TRIPOS>BOND
     1     1     2    2
     2     3     5    1
     3     5     6    1
     4     6     7    1
     5     7     8    1
     6     8     9    1
     7     8    10    1
     8    10    11    1
     9    11    12    1
    10    12    13    2
    11    12    14    1
    12    14    15    1
    13    14    16    1
    14    14    17    1
    15     8    17    1
    16    17    18    1
    17    18    19    1
    18    19    22    1
    19     7    22    1
    20    22    23    1
    21    22    24    1
    22     3    24    1
    23     3     4    1
    24     3     2    1
    25    19    21    1
    26    19    20    1
    27     1    25    1
    28     1    26    1
    29     2    27    1
    30     4    28    1
    31     4    29    1
    32     4    30    1
    33     5    31    1
    34     5    32    1
    35     6    33    1
    36     6    34    1
    37     7    35    1
    38     9    36    1
    39     9    37    1
    40     9    38    1
    41    10    39    1
    42    10    40    1
    43    11    41    1
    44    11    42    1
    45    15    43    1
    46    15    44    1
    47    15    45    1
    48    16    46    1
    49    16    47    1
    50    16    48    1
    51    17    49    1
    52    18    50    1
    53    18    51    1
    54    21    52    1
    55    23    53    1
    56    24    54    1
    57    24    55    1
