REMARK  Name = NuBBE_2435
REMARK  13 active torsions:
REMARK  status: ('A' for Active; 'I' for Inactive)
REMARK    1  A    between atoms: C_2  and  C_3
REMARK    2  A    between atoms: C_2  and  C_13
REMARK    3  A    between atoms: C_5  and  O_6
REMARK    4  A    between atoms: O_6  and  C_7
REMARK    5  A    between atoms: C_8  and  O_9
REMARK    6  A    between atoms: O_9  and  C_10
REMARK    7  A    between atoms: C_13  and  C_14
REMARK    8  A    between atoms: C_13  and  O_15
REMARK    9  A    between atoms: O_15  and  C_16
REMARK   10  A    between atoms: C_19  and  C_20
REMARK   11  A    between atoms: C_21  and  C_22
REMARK   12  A    between atoms: C_24  and  O_25
REMARK   13  A    between atoms: O_25  and  C_26
REMARK                            x       y       z     vdW  Elec       q    Type
REMARK                         _______ _______ _______ _____ _____    ______ ____
ROOT
ATOM      1  C   LIG A   1      -1.335   1.438  -0.978  0.00  0.00    +0.241 C 
ATOM      2  C   LIG A   1      -2.648   2.090  -0.552  0.00  0.00    +0.061 C 
ENDROOT
BRANCH   1   4
ATOM      3  O   LIG A   1      -1.419   0.870  -3.319  0.00  0.00    -0.288 OA
ATOM      4  C   LIG A   1      -1.543   0.474  -2.172  0.00  0.00    +0.203 C 
BRANCH   4   5
ATOM      5  C   LIG A   1      -1.886  -0.969  -1.958  0.00  0.00    +0.025 A 
ATOM      6  C   LIG A   1      -2.604  -1.410  -0.850  0.00  0.00    +0.060 A 
ATOM      7  C   LIG A   1      -2.852  -2.776  -0.665  0.00  0.00    +0.162 A 
ATOM      8  C   LIG A   1      -2.400  -3.711  -1.612  0.00  0.00    +0.162 A 
ATOM      9  C   LIG A   1      -1.765  -3.262  -2.771  0.00  0.00    +0.050 A 
ATOM     10  C   LIG A   1      -1.510  -1.895  -2.943  0.00  0.00    +0.015 A 
BRANCH   7  11
ATOM     11  O   LIG A   1      -3.568  -3.274   0.396  0.00  0.00    -0.491 OA
ATOM     12  C   LIG A   1      -3.462  -2.537   1.606  0.00  0.00    +0.277 C 
ENDBRANCH   7  11
BRANCH   8  13
ATOM     13  O   LIG A   1      -2.651  -5.033  -1.345  0.00  0.00    -0.491 OA
ATOM     14  C   LIG A   1      -1.687  -5.956  -1.837  0.00  0.00    +0.277 C 
ENDBRANCH   8  13
ENDBRANCH   4   5
ENDBRANCH   1   4
BRANCH   1  15
ATOM     15  O   LIG A   1      -0.683   0.869   0.162  0.00  0.00    -0.478 OA
BRANCH  15  16
ATOM     16  C   LIG A   1       0.574   1.320   0.490  0.00  0.00    +0.163 A 
ATOM     17  C   LIG A   1       1.447   1.811  -0.480  0.00  0.00    +0.050 A 
ATOM     18  C   LIG A   1       2.674   2.386  -0.135  0.00  0.00    +0.012 A 
ATOM     19  C   LIG A   1       3.101   2.445   1.192  0.00  0.00    -0.022 A 
ATOM     20  C   LIG A   1       2.284   1.837   2.158  0.00  0.00    +0.057 A 
ATOM     21  C   LIG A   1       1.031   1.273   1.822  0.00  0.00    +0.162 A 
BRANCH  19  22
ATOM     22  C   LIG A   1       4.362   3.102   1.601  0.00  0.00    +0.003 C 
ATOM     23  C   LIG A   1       5.199   3.778   0.794  0.00  0.00    -0.030 C 
ATOM     24  C   LIG A   1       6.477   4.415   1.244  0.00  0.00    +0.035 C 
ENDBRANCH  19  22
BRANCH  21  25
ATOM     25  O   LIG A   1       0.351   0.767   2.905  0.00  0.00    -0.491 OA
ATOM     26  C   LIG A   1      -0.509  -0.331   2.629  0.00  0.00    +0.277 C 
ENDBRANCH  21  25
ENDBRANCH  15  16
ENDBRANCH   1  15
TORSDOF 8
