REMARK  Name = NuBBE_2502
REMARK  0 active torsions:
REMARK  status: ('A' for Active; 'I' for Inactive)
REMARK                            x       y       z     vdW  Elec       q    Type
REMARK                         _______ _______ _______ _____ _____    ______ ____
ROOT
ATOM      1  C   LIG A   1      -3.144   0.064  -1.135  0.00  0.00    +0.008 C 
ATOM      2  C   LIG A   1      -1.942  -0.171  -0.574  0.00  0.00    -0.073 C 
ATOM      3  C   LIG A   1      -1.589  -1.607  -0.241  0.00  0.00    +0.031 C 
ATOM      4  C   LIG A   1      -0.253  -2.061  -0.791  0.00  0.00    +0.016 C 
ATOM      5  C   LIG A   1       0.970  -1.650   0.004  0.00  0.00    +0.067 C 
ATOM      6  C   LIG A   1       1.393  -2.290   1.273  0.00  0.00    +0.036 C 
ATOM      7  C   LIG A   1       0.740  -3.065   2.149  0.00  0.00    +0.020 C 
ATOM      8  C   LIG A   1       2.650  -1.528   1.571  0.00  0.00    +0.335 C 
ATOM      9  O   LIG A   1       3.667  -1.970   2.096  0.00  0.00    -0.245 OA
ATOM     10  O   LIG A   1       2.450  -0.272   1.025  0.00  0.00    -0.457 OA
ATOM     11  C   LIG A   1       1.074  -0.250   0.589  0.00  0.00    +0.192 C 
ATOM     12  C   LIG A   1       0.545   0.801  -0.398  0.00  0.00    +0.063 C 
ATOM     13  C   LIG A   1       1.021   2.241  -0.339  0.00  0.00    -0.069 C 
ATOM     14  C   LIG A   1       2.242   2.668  -0.684  0.00  0.00    +0.008 C 
ATOM     15  C   LIG A   1      -0.146   3.176  -0.163  0.00  0.00    +0.031 C 
ATOM     16  C   LIG A   1      -1.298   2.344  -0.705  0.00  0.00    +0.013 C 
ATOM     17  C   LIG A   1      -1.005   0.950  -0.135  0.00  0.00    +0.025 C 
ENDROOT
TORSDOF 0
