@<TRIPOS>MOLECULE
NuBBE_1606
 37 38 0 0 0
SMALL
GASTEIGER

@<TRIPOS>ATOM
      1 C          -0.8360    0.9799   -0.3972 C.3     1  LIG1       -0.0132
      2 H          -0.6935    1.9176   -0.9528 H       1  LIG1        0.0351
      3 C          -1.9516    0.2099   -1.1307 C.3     1  LIG1       -0.0454
      4 C          -2.1601   -1.1627   -0.5050 C.3     1  LIG1       -0.0459
      5 C          -0.8916   -2.0317   -0.5816 C.3     1  LIG1       -0.0184
      6 H          -0.9137   -2.5312   -1.5608 H       1  LIG1        0.0346
      7 C           0.4141   -1.2489   -0.5438 C.ar    1  LIG1       -0.0411
      8 C           0.4439    0.1596   -0.5060 C.ar    1  LIG1       -0.0404
      9 C           1.6805    0.8281   -0.5951 C.ar    1  LIG1       -0.0551
     10 C           2.8866    0.1253   -0.6821 C.ar    1  LIG1       -0.0502
     11 C           2.8509   -1.2676   -0.7255 C.ar    1  LIG1       -0.0586
     12 C           1.6312   -1.9439   -0.6645 C.ar    1  LIG1       -0.0578
     13 C           4.1918    0.8545   -0.7955 C.3     1  LIG1       -0.0397
     14 C          -0.9623   -3.1146    0.5026 C.3     1  LIG1       -0.0584
     15 C          -1.1778    1.3391    1.0876 C.3     1  LIG1       -0.0399
     16 C          -0.1347    2.2725    1.7207 C.3     1  LIG1       -0.0621
     17 C          -2.5536    2.0061    1.2236 C.3     1  LIG1       -0.0621
     18 H          -1.6838    0.0869   -2.1892 H       1  LIG1        0.0271
     19 H          -2.8902    0.7733   -1.1259 H       1  LIG1        0.0271
     20 H          -2.9818   -1.6797   -1.0166 H       1  LIG1        0.0271
     21 H          -2.4866   -1.0478    0.5355 H       1  LIG1        0.0271
     22 H           1.7007    1.9166   -0.5929 H       1  LIG1        0.0623
     23 H           3.7711   -1.8387   -0.8230 H       1  LIG1        0.0620
     24 H           1.6402   -3.0290   -0.7368 H       1  LIG1        0.0621
     25 H           4.1199    1.8613   -0.3708 H       1  LIG1        0.0278
     26 H           4.4844    0.9375   -1.8467 H       1  LIG1        0.0278
     27 H           4.9785    0.3261   -0.2467 H       1  LIG1        0.0278
     28 H          -0.8587   -2.6794    1.5031 H       1  LIG1        0.0236
     29 H          -0.1736   -3.8641    0.3840 H       1  LIG1        0.0236
     30 H          -1.9204   -3.6443    0.4595 H       1  LIG1        0.0236
     31 H          -1.1902    0.4234    1.6926 H       1  LIG1        0.0301
     32 H           0.0084    3.1755    1.1179 H       1  LIG1        0.0233
     33 H           0.8317    1.7744    1.8380 H       1  LIG1        0.0233
     34 H          -0.4470    2.5844    2.7237 H       1  LIG1        0.0233
     35 H          -2.6339    2.8826    0.5718 H       1  LIG1        0.0233
     36 H          -2.7297    2.3349    2.2538 H       1  LIG1        0.0233
     37 H          -3.3631    1.3138    0.9748 H       1  LIG1        0.0233
@<TRIPOS>BOND
     1     1     2    1
     2     1     3    1
     3     3     4    1
     4     4     5    1
     5     5     7    1
     6     7     8   ar
     7     1     8    1
     8     8     9   ar
     9     9    10   ar
    10    10    11   ar
    11    11    12   ar
    12     7    12   ar
    13    10    13    1
    14     1    15    1
    15    15    16    1
    16    15    17    1
    17     5    14    1
    18     5     6    1
    19     3    18    1
    20     3    19    1
    21     4    20    1
    22     4    21    1
    23     9    22    1
    24    11    23    1
    25    12    24    1
    26    13    25    1
    27    13    26    1
    28    13    27    1
    29    14    28    1
    30    14    29    1
    31    14    30    1
    32    15    31    1
    33    16    32    1
    34    16    33    1
    35    16    34    1
    36    17    35    1
    37    17    36    1
    38    17    37    1
