REMARK  Name = NuBBE_2021
REMARK  8 active torsions:
REMARK  status: ('A' for Active; 'I' for Inactive)
REMARK    1  A    between atoms: C_6  and  O_7
REMARK    2  A    between atoms: C_8  and  O_9
REMARK    3  A    between atoms: O_9  and  C_10
REMARK    4  A    between atoms: C_14  and  C_15
REMARK    5  A    between atoms: C_17  and  O_18
REMARK    6  A    between atoms: O_18  and  C_19
REMARK    7  A    between atoms: C_20  and  O_21
REMARK    8  A    between atoms: O_21  and  C_22
REMARK                            x       y       z     vdW  Elec       q    Type
REMARK                         _______ _______ _______ _____ _____    ______ ____
ROOT
ATOM      1  O   LIG A   1      -2.108  -1.210  -0.067  0.00  0.00    -0.286 OA
ATOM      2  C   LIG A   1      -0.893  -1.339  -0.066  0.00  0.00    +0.200 A 
ATOM      3  C   LIG A   1      -0.310  -2.691  -0.112  0.00  0.00    +0.068 A 
ATOM      4  C   LIG A   1      -1.147  -3.803  -0.163  0.00  0.00    +0.019 A 
ATOM      5  C   LIG A   1      -0.593  -5.080  -0.208  0.00  0.00    +0.050 A 
ATOM      6  C   LIG A   1       0.797  -5.241  -0.209  0.00  0.00    +0.162 A 
ATOM      7  C   LIG A   1       1.650  -4.127  -0.162  0.00  0.00    +0.205 A 
ATOM      8  C   LIG A   1       1.076  -2.844  -0.104  0.00  0.00    +0.183 A 
ATOM      9  O   LIG A   1       1.919  -1.759  -0.048  0.00  0.00    -0.458 OA
ATOM     10  C   LIG A   1       1.362  -0.503  -0.019  0.00  0.00    +0.208 A 
ATOM     11  C   LIG A   1       0.058  -0.185  -0.020  0.00  0.00    +0.064 A 
ENDROOT
BRANCH  11  12
ATOM     12  C   LIG A   1      -0.394   1.228  -0.009  0.00  0.00    -0.008 A 
ATOM     13  C   LIG A   1       0.350   2.236   0.626  0.00  0.00    +0.058 A 
ATOM     14  C   LIG A   1      -0.057   3.582   0.625  0.00  0.00    +0.162 A 
ATOM     15  C   LIG A   1      -1.262   3.937   0.002  0.00  0.00    +0.162 A 
ATOM     16  C   LIG A   1      -2.010   2.944  -0.636  0.00  0.00    +0.050 A 
ATOM     17  C   LIG A   1      -1.581   1.613  -0.641  0.00  0.00    +0.012 A 
BRANCH  14  18
ATOM     18  O   LIG A   1       0.839   4.392   1.278  0.00  0.00    -0.491 OA
ATOM     19  C   LIG A   1       0.563   5.782   1.362  0.00  0.00    +0.277 C 
ENDBRANCH  14  18
BRANCH  15  20
ATOM     20  O   LIG A   1      -1.641   5.251  -0.019  0.00  0.00    -0.491 OA
ATOM     21  C   LIG A   1      -3.039   5.511  -0.034  0.00  0.00    +0.277 C 
ENDBRANCH  15  20
ENDBRANCH  11  12
BRANCH   6  22
ATOM     22  O   LIG A   1       1.292  -6.514  -0.230  0.00  0.00    -0.503 OA
ATOM     23  H   LIG A   1       0.558  -7.149  -0.208  0.00  0.00    +0.292 HD
ENDBRANCH   6  22
BRANCH   7  24
ATOM     24  O   LIG A   1       3.021  -4.155  -0.105  0.00  0.00    -0.488 OA
ATOM     25  C   LIG A   1       3.679  -5.253  -0.723  0.00  0.00    +0.277 C 
ENDBRANCH   7  24
TORSDOF 5
