@<TRIPOS>MOLECULE
NuBBE_2418
 71 76 0 0 0
SMALL
GASTEIGER

@<TRIPOS>ATOM
      1 O          -1.4286    3.0429   -1.6308 O.3     1  LIG1       -0.4910
      2 C          -2.1444    2.3046   -0.6463 C.3     1  LIG1        0.0790
      3 C          -0.0906    2.7332   -1.7089 C.ar    1  LIG1        0.1685
      4 C           0.7062    3.4456   -2.6538 C.ar    1  LIG1        0.0048
      5 C           2.0005    2.9097   -2.8192 C.ar    1  LIG1       -0.0510
      6 C           2.4725    1.7153   -2.1698 C.ar    1  LIG1       -0.0152
      7 C           1.6539    1.0475   -1.2237 C.ar    1  LIG1        0.1735
      8 C           0.4945    1.6501   -0.9404 C.ar    1  LIG1        0.2019
      9 O          -0.1684    1.1877    0.1855 O.3     1  LIG1       -0.5009
     10 O           2.1264   -0.1607   -0.6950 O.3     1  LIG1       -0.4484
     11 C           1.4333   -0.9115    0.2548 C.ar    1  LIG1        0.1735
     12 C           0.1501   -1.4912    0.1807 C.ar    1  LIG1        0.2019
     13 O          -0.6371   -1.2371   -0.9175 O.3     1  LIG1       -0.5009
     14 C          -0.4317   -2.2902    1.2313 C.ar    1  LIG1        0.1685
     15 O          -1.7840   -2.5053    1.0947 O.3     1  LIG1       -0.4910
     16 C          -2.4113   -3.7364    1.4247 C.3     1  LIG1        0.0790
     17 C           0.3484   -2.6117    2.3577 C.ar    1  LIG1        0.0048
     18 C           1.6226   -2.0015    2.4195 C.ar    1  LIG1       -0.0510
     19 C           2.1573   -1.1842    1.4086 C.ar    1  LIG1       -0.0152
     20 C          -0.0644   -3.6248    3.4448 C.3     1  LIG1        0.0260
     21 H          -1.1240   -3.4486    3.6611 H       1  LIG1        0.0386
     22 C           0.1884   -5.0887    2.9939 C.3     1  LIG1       -0.0142
     23 C           1.6599   -5.3614    3.0065 C.ar    1  LIG1       -0.0048
     24 C           2.4674   -4.6864    3.9234 C.ar    1  LIG1        0.1272
     25 O           1.9884   -3.8395    4.8875 O.3     1  LIG1       -0.4910
     26 C           0.5936   -3.5207    4.8320 C.3     1  LIG1        0.0968
     27 C           3.8511   -4.7383    3.7996 C.ar    1  LIG1        0.0218
     28 C           4.4168   -5.4948    2.7794 C.ar    1  LIG1        0.1203
     29 C           3.6271   -6.2567    1.9271 C.ar    1  LIG1       -0.0197
     30 C           2.2408   -6.1957    2.0416 C.ar    1  LIG1       -0.0516
     31 O           5.7626   -5.4813    2.5619 O.3     1  LIG1       -0.5066
     32 C           0.2874    4.6996   -3.5101 C.3     1  LIG1        0.0260
     33 H           1.1836    4.8773   -4.1249 H       1  LIG1        0.0386
     34 C          -0.8452    4.5365   -4.5435 C.3     1  LIG1       -0.0142
     35 C          -2.1822    4.7806   -3.9081 C.ar    1  LIG1       -0.0048
     36 C          -2.2954    5.6418   -2.8130 C.ar    1  LIG1        0.1272
     37 O          -1.2527    6.3646   -2.3083 O.3     1  LIG1       -0.4910
     38 C           0.0479    6.0851   -2.8404 C.3     1  LIG1        0.0968
     39 C          -3.4593    5.6445   -2.0412 C.ar    1  LIG1        0.0218
     40 C          -4.4676    4.7333   -2.3385 C.ar    1  LIG1        0.1203
     41 C          -4.4134    3.9507   -3.4832 C.ar    1  LIG1       -0.0197
     42 C          -3.2798    3.9984   -4.2902 C.ar    1  LIG1       -0.0516
     43 O          -5.4656    4.4742   -1.4428 O.3     1  LIG1       -0.5066
     44 H          -1.7370    2.5844    0.3326 H       1  LIG1        0.0660
     45 H          -2.1065    1.2253   -0.8580 H       1  LIG1        0.0660
     46 H          -3.1980    2.5527   -0.5968 H       1  LIG1        0.0660
     47 H           2.7041    3.3856   -3.5168 H       1  LIG1        0.0623
     48 H           3.4507    1.3340   -2.3963 H       1  LIG1        0.0656
     49 H           0.2285    1.6232    0.9549 H       1  LIG1        0.2924
     50 H          -1.2907   -0.6102   -0.5573 H       1  LIG1        0.2924
     51 H          -1.9271   -4.3433    2.1705 H       1  LIG1        0.0660
     52 H          -2.5234   -4.3578    0.5339 H       1  LIG1        0.0660
     53 H          -3.4010   -3.5239    1.8432 H       1  LIG1        0.0660
     54 H           2.2849   -2.1715    3.2645 H       1  LIG1        0.0623
     55 H           3.1594   -0.7878    1.5249 H       1  LIG1        0.0656
     56 H          -0.1918   -5.2900    1.9863 H       1  LIG1        0.0321
     57 H          -0.3071   -5.7904    3.6778 H       1  LIG1        0.0321
     58 H           0.4582   -2.5122    5.2377 H       1  LIG1        0.0703
     59 H           0.0812   -4.2050    5.5236 H       1  LIG1        0.0703
     60 H           4.4605   -4.1389    4.4663 H       1  LIG1        0.0691
     61 H           4.0868   -6.8554    1.1461 H       1  LIG1        0.0654
     62 H           1.6232   -6.7472    1.3358 H       1  LIG1        0.0623
     63 H           6.1383   -4.7409    3.0668 H       1  LIG1        0.2921
     64 H          -0.8055    3.5435   -4.9999 H       1  LIG1        0.0321
     65 H          -0.7194    5.2719   -5.3543 H       1  LIG1        0.0321
     66 H           0.7716    6.2762   -2.0435 H       1  LIG1        0.0703
     67 H           0.2262    6.8698   -3.5962 H       1  LIG1        0.0703
     68 H          -3.5060    6.2555   -1.1457 H       1  LIG1        0.0691
     69 H          -5.1906    3.2194   -3.6824 H       1  LIG1        0.0654
     70 H          -3.1960    3.3093   -5.1259 H       1  LIG1        0.0623
     71 H          -5.1085    4.6671   -0.5585 H       1  LIG1        0.2921
@<TRIPOS>BOND
     1     1     2    1
     2     1     3    1
     3     3     4   ar
     4     4     5   ar
     5     5     6   ar
     6     6     7   ar
     7     7     8   ar
     8     3     8   ar
     9     8     9    1
    10     7    10    1
    11    10    11    1
    12    11    12   ar
    13    12    13    1
    14    12    14   ar
    15    14    15    1
    16    15    16    1
    17    14    17   ar
    18    17    18   ar
    19    18    19   ar
    20    11    19   ar
    21    17    20    1
    22    20    21    1
    23    20    22    1
    24    22    23    1
    25    23    24   ar
    26    24    25    1
    27    25    26    1
    28    20    26    1
    29    24    27   ar
    30    27    28   ar
    31    28    29   ar
    32    29    30   ar
    33    23    30   ar
    34    28    31    1
    35     4    32    1
    36    32    33    1
    37    32    34    1
    38    34    35    1
    39    35    36   ar
    40    36    37    1
    41    37    38    1
    42    32    38    1
    43    36    39   ar
    44    39    40   ar
    45    40    41   ar
    46    41    42   ar
    47    35    42   ar
    48    40    43    1
    49     2    44    1
    50     2    45    1
    51     2    46    1
    52     5    47    1
    53     6    48    1
    54     9    49    1
    55    13    50    1
    56    16    51    1
    57    16    52    1
    58    16    53    1
    59    18    54    1
    60    19    55    1
    61    22    56    1
    62    22    57    1
    63    26    58    1
    64    26    59    1
    65    27    60    1
    66    29    61    1
    67    30    62    1
    68    31    63    1
    69    34    64    1
    70    34    65    1
    71    38    66    1
    72    38    67    1
    73    39    68    1
    74    41    69    1
    75    42    70    1
    76    43    71    1
