REMARK  Name = NuBBE_124
REMARK  17 active torsions:
REMARK  status: ('A' for Active; 'I' for Inactive)
REMARK    1  A    between atoms: O_1  and  C_2
REMARK    2  A    between atoms: C_5  and  C_6
REMARK    3  A    between atoms: C_10  and  O_11
REMARK    4  A    between atoms: C_12  and  O_13
REMARK    5  A    between atoms: O_13  and  C_14
REMARK    6  A    between atoms: C_17  and  C_25
REMARK    7  A    between atoms: C_19  and  O_24
REMARK    8  A    between atoms: C_21  and  O_23
REMARK    9  A    between atoms: C_25  and  O_26
REMARK   10  A    between atoms: O_26  and  C_27
REMARK   11  A    between atoms: C_29  and  O_41
REMARK   12  A    between atoms: C_31  and  O_40
REMARK   13  A    between atoms: C_33  and  O_35
REMARK   14  A    between atoms: C_36  and  C_38
REMARK   15  A    between atoms: C_42  and  O_44
REMARK   16  A    between atoms: C_45  and  O_46
REMARK   17  A    between atoms: O_46  and  C_47
REMARK                            x       y       z     vdW  Elec       q    Type
REMARK                         _______ _______ _______ _____ _____    ______ ____
ROOT
ATOM      1  C   LIG A   1       0.036  -0.410  -0.898  0.00  0.00    +0.340 C 
ATOM      2  O   LIG A   1      -0.715  -1.657  -0.793  0.00  0.00    -0.331 OA
ATOM      3  C   LIG A   1      -0.863  -2.302  -2.083  0.00  0.00    +0.179 C 
ATOM      4  C   LIG A   1       0.531  -2.657  -2.665  0.00  0.00    +0.177 C 
ATOM      5  C   LIG A   1       1.647  -2.209  -1.704  0.00  0.00    +0.180 C 
ATOM      6  C   LIG A   1       1.484  -0.712  -1.396  0.00  0.00    +0.214 C 
ENDROOT
BRANCH   5   7
ATOM      7  O   LIG A   1       1.625  -3.005  -0.519  0.00  0.00    -0.386 OA
ATOM      8  H   LIG A   1       0.813  -2.768  -0.022  0.00  0.00    +0.210 HD
ENDBRANCH   5   7
BRANCH   4   9
ATOM      9  O   LIG A   1       0.710  -1.974  -3.921  0.00  0.00    -0.387 OA
ATOM     10  H   LIG A   1       0.497  -2.608  -4.631  0.00  0.00    +0.210 HD
ENDBRANCH   4   9
BRANCH   6  11
ATOM     11  O   LIG A   1       1.813   0.056  -2.573  0.00  0.00    -0.383 OA
ATOM     12  H   LIG A   1       1.492  -0.451  -3.349  0.00  0.00    +0.210 HD
ENDBRANCH   6  11
BRANCH   1  13
ATOM     13  O   LIG A   1       0.066   0.226   0.398  0.00  0.00    -0.454 OA
BRANCH  13  19
ATOM     14  C   LIG A   1       3.466   5.311   2.271  0.00  0.00    +0.139 A 
ATOM     15  O   LIG A   1       2.762   5.058   1.098  0.00  0.00    -0.454 OA
ATOM     16  C   LIG A   1       2.079   3.872   0.977  0.00  0.00    +0.146 A 
ATOM     17  C   LIG A   1       1.980   2.931   1.993  0.00  0.00    +0.109 A 
ATOM     18  C   LIG A   1       1.304   1.716   1.770  0.00  0.00    +0.177 A 
ATOM     19  C   LIG A   1       0.699   1.449   0.521  0.00  0.00    +0.207 A 
ATOM     20  C   LIG A   1       0.769   2.438  -0.480  0.00  0.00    +0.169 A 
ATOM     21  C   LIG A   1       1.462   3.635  -0.245  0.00  0.00    +0.096 A 
ATOM     22  C   LIG A   1       3.395   4.502   3.345  0.00  0.00    +0.098 A 
ATOM     23  C   LIG A   1       2.598   3.268   3.275  0.00  0.00    +0.197 A 
ATOM     24  O   LIG A   1       2.466   2.534   4.258  0.00  0.00    -0.287 OA
BRANCH  14  28
ATOM     25  C   LIG A   1       5.874   8.866   2.190  0.00  0.00    +0.117 A 
ATOM     26  C   LIG A   1       4.716   8.803   1.427  0.00  0.00    +0.046 A 
ATOM     27  C   LIG A   1       3.930   7.641   1.456  0.00  0.00    +0.015 A 
ATOM     28  C   LIG A   1       4.288   6.538   2.252  0.00  0.00    +0.018 A 
ATOM     29  C   LIG A   1       5.475   6.632   3.001  0.00  0.00    +0.015 A 
ATOM     30  C   LIG A   1       6.260   7.790   2.975  0.00  0.00    +0.046 A 
BRANCH  25  31
ATOM     31  O   LIG A   1       6.669   9.972   2.196  0.00  0.00    -0.507 OA
ATOM     32  H   LIG A   1       6.285  10.637   1.601  0.00  0.00    +0.292 HD
ENDBRANCH  25  31
ENDBRANCH  14  28
BRANCH  18  33
ATOM     33  O   LIG A   1       1.246   0.752   2.750  0.00  0.00    -0.503 OA
ATOM     34  H   LIG A   1       1.650   1.111   3.572  0.00  0.00    +0.292 HD
ENDBRANCH  18  33
BRANCH  20  35
ATOM     35  O   LIG A   1       0.086   2.255  -1.652  0.00  0.00    -0.491 OA
ATOM     36  C   LIG A   1       0.680   2.829  -2.814  0.00  0.00    +0.277 C 
ENDBRANCH  20  35
ENDBRANCH  13  19
ENDBRANCH   1  13
BRANCH   3  37
ATOM     37  C   LIG A   1      -1.718  -3.586  -1.939  0.00  0.00    +0.197 C 
BRANCH  37  38
ATOM     38  O   LIG A   1      -3.030  -3.273  -1.458  0.00  0.00    -0.346 OA
BRANCH  38  39
ATOM     39  C   LIG A   1      -3.878  -4.430  -1.299  0.00  0.00    +0.282 C 
ATOM     40  C   LIG A   1      -5.225  -3.902  -0.733  0.00  0.00    +0.201 C 
ATOM     41  C   LIG A   1      -6.126  -5.030  -0.236  0.00  0.00    +0.179 C 
ATOM     42  C   LIG A   1      -5.348  -5.996   0.658  0.00  0.00    +0.174 C 
ATOM     43  C   LIG A   1      -4.141  -6.510  -0.130  0.00  0.00    +0.149 C 
ATOM     44  C   LIG A   1      -3.368  -7.552   0.673  0.00  0.00    +0.040 C 
ATOM     45  O   LIG A   1      -3.269  -5.413  -0.452  0.00  0.00    -0.343 OA
BRANCH  42  46
ATOM     46  O   LIG A   1      -6.215  -7.060   1.058  0.00  0.00    -0.387 OA
ATOM     47  H   LIG A   1      -6.999  -6.618   1.442  0.00  0.00    +0.210 HD
ENDBRANCH  42  46
BRANCH  41  48
ATOM     48  O   LIG A   1      -7.225  -4.495   0.522  0.00  0.00    -0.386 OA
ATOM     49  H   LIG A   1      -6.832  -3.756   1.036  0.00  0.00    +0.210 HD
ENDBRANCH  41  48
BRANCH  40  50
ATOM     50  O   LIG A   1      -5.017  -3.004   0.382  0.00  0.00    -0.384 OA
ATOM     51  H   LIG A   1      -4.320  -2.384   0.081  0.00  0.00    +0.210 HD
ENDBRANCH  40  50
ENDBRANCH  38  39
ENDBRANCH  37  38
ENDBRANCH   3  37
TORSDOF 15
