@<TRIPOS>MOLECULE
NuBBE_15
 58 61 0 0 0
SMALL
GASTEIGER

@<TRIPOS>ATOM
      1 C          -3.0717    2.4841    6.3447 C.3     1  LIG1        0.0791
      2 O          -1.8512    3.0089    5.8391 O.3     1  LIG1       -0.4885
      3 C          -1.2627    2.3555    4.7796 C.ar    1  LIG1        0.2035
      4 C          -1.3458    0.9738    4.5213 C.ar    1  LIG1        0.1655
      5 O          -2.1137    0.1820    5.3311 O.3     1  LIG1       -0.4913
      6 C          -1.7352   -1.1841    5.4620 C.3     1  LIG1        0.0790
      7 C          -0.6709    0.4403    3.4185 C.ar    1  LIG1       -0.0104
      8 C           0.1465    1.2308    2.6022 C.ar    1  LIG1       -0.0114
      9 C           0.8560    0.6457    1.4019 C.3     1  LIG1        0.0892
     10 H           1.8284    1.1388    1.2816 H       1  LIG1        0.0650
     11 C          -0.0145    0.7454    0.1459 C.3     1  LIG1        0.0205
     12 H          -1.0637    0.9564    0.3828 H       1  LIG1        0.0356
     13 C           0.5180    1.7000   -0.8901 C.3     1  LIG1        0.0544
     14 O           1.6085    1.0232   -1.5182 O.3     1  LIG1       -0.3712
     15 C           1.3998   -0.4064   -1.4054 C.3     1  LIG1        0.0891
     16 H           2.3092   -0.8153   -0.9477 H       1  LIG1        0.0650
     17 C           0.1683   -0.5942   -0.5104 C.3     1  LIG1        0.0205
     18 H          -0.7238   -0.8839   -1.0757 H       1  LIG1        0.0356
     19 C           0.4271   -1.5227    0.6479 C.3     1  LIG1        0.0544
     20 O           1.1360   -0.7533    1.6231 O.3     1  LIG1       -0.3712
     21 C           1.2651   -1.0288   -2.7848 C.ar    1  LIG1       -0.0149
     22 C           0.5624   -2.2347   -2.9918 C.ar    1  LIG1       -0.0107
     23 C           0.4150   -2.7868   -4.2784 C.ar    1  LIG1        0.1618
     24 O          -0.3477   -3.9308   -4.2888 O.3     1  LIG1       -0.4914
     25 C          -0.5557   -4.5655   -5.5445 C.3     1  LIG1        0.0790
     26 C           1.0248   -2.1530   -5.3628 C.ar    1  LIG1        0.1615
     27 C           1.7550   -0.9739   -5.1628 C.ar    1  LIG1       -0.0160
     28 C           1.8755   -0.4278   -3.8825 C.ar    1  LIG1       -0.0524
     29 O           0.8261   -2.6179   -6.6381 O.3     1  LIG1       -0.4915
     30 C           2.0003   -2.6934   -7.4379 C.3     1  LIG1        0.0790
     31 C           0.2515    2.5972    2.8800 C.ar    1  LIG1       -0.0104
     32 C          -0.4667    3.1672    3.9385 C.ar    1  LIG1        0.1655
     33 O          -0.4217    4.5159    4.2148 O.3     1  LIG1       -0.4913
     34 C          -0.1793    5.3665    3.0969 C.3     1  LIG1        0.0790
     35 H          -3.4582    3.1928    7.0834 H       1  LIG1        0.0660
     36 H          -2.9264    1.5474    6.8883 H       1  LIG1        0.0660
     37 H          -3.8196    2.3836    5.5510 H       1  LIG1        0.0660
     38 H          -2.2553   -1.7870    4.7111 H       1  LIG1        0.0660
     39 H          -2.0596   -1.5214    6.4511 H       1  LIG1        0.0660
     40 H          -0.6521   -1.3367    5.4037 H       1  LIG1        0.0660
     41 H          -0.7716   -0.6147    3.1830 H       1  LIG1        0.0659
     42 H           0.8601    2.6527   -0.4755 H       1  LIG1        0.0564
     43 H          -0.2329    1.9083   -1.6608 H       1  LIG1        0.0564
     44 H           1.0140   -2.4069    0.3841 H       1  LIG1        0.0564
     45 H          -0.5135   -1.8569    1.0988 H       1  LIG1        0.0564
     46 H           0.0989   -2.7585   -2.1627 H       1  LIG1        0.0659
     47 H           0.3927   -4.9049   -5.9741 H       1  LIG1        0.0660
     48 H          -1.1127   -3.9161   -6.2279 H       1  LIG1        0.0660
     49 H          -1.1699   -5.4566   -5.3835 H       1  LIG1        0.0660
     50 H           2.2036   -0.4461   -5.9929 H       1  LIG1        0.0655
     51 H           2.4383    0.4985   -3.7639 H       1  LIG1        0.0622
     52 H           1.7880   -3.3786   -8.2641 H       1  LIG1        0.0660
     53 H           2.8547   -3.0928   -6.8803 H       1  LIG1        0.0660
     54 H           2.2313   -1.7144   -7.8672 H       1  LIG1        0.0660
     55 H           0.9037    3.2061    2.2614 H       1  LIG1        0.0659
     56 H          -0.4642    6.3854    3.3752 H       1  LIG1        0.0660
     57 H          -0.7843    5.0796    2.2285 H       1  LIG1        0.0660
     58 H           0.8855    5.3779    2.8412 H       1  LIG1        0.0660
@<TRIPOS>BOND
     1     1     2    1
     2     2     3    1
     3     3     4   ar
     4     4     5    1
     5     5     6    1
     6     4     7   ar
     7     7     8   ar
     8     8     9    1
     9     9    10    1
    10     9    11    1
    11    11    12    1
    12    11    13    1
    13    13    14    1
    14    14    15    1
    15    15    17    1
    16    17    18    1
    17    11    17    1
    18    17    19    1
    19    19    20    1
    20     9    20    1
    21    21    22   ar
    22    22    23   ar
    23    23    24    1
    24    24    25    1
    25    23    26   ar
    26    26    27   ar
    27    27    28   ar
    28    21    28   ar
    29    26    29    1
    30    29    30    1
    31     8    31   ar
    32     3    32   ar
    33    31    32   ar
    34    32    33    1
    35    33    34    1
    36    15    21    1
    37    15    16    1
    38     1    35    1
    39     1    36    1
    40     1    37    1
    41     6    38    1
    42     6    39    1
    43     6    40    1
    44     7    41    1
    45    13    42    1
    46    13    43    1
    47    19    44    1
    48    19    45    1
    49    22    46    1
    50    25    47    1
    51    25    48    1
    52    25    49    1
    53    27    50    1
    54    28    51    1
    55    30    52    1
    56    30    53    1
    57    30    54    1
    58    31    55    1
    59    34    56    1
    60    34    57    1
    61    34    58    1
