@<TRIPOS>MOLECULE
NuBBE_2432
 37 39 0 0 0
SMALL
GASTEIGER

@<TRIPOS>ATOM
      1 O          -3.2780   -2.1520   -0.3540 O.3     1  LIG1       -0.4942
      2 C          -3.8889   -3.2564    0.3053 C.3     1  LIG1        0.0788
      3 C          -1.9114   -2.0914   -0.3107 C.ar    1  LIG1        0.1375
      4 C          -1.2970   -0.8287   -0.3463 C.ar    1  LIG1        0.1009
      5 C           0.0950   -0.7282   -0.2725 C.ar    1  LIG1        0.1389
      6 O           0.7961    0.4444   -0.2264 O.3     1  LIG1       -0.4828
      7 C           0.0566    1.6471   -0.4899 C.3     1  LIG1        0.1322
      8 H          -0.0417    1.7258   -1.5817 H       1  LIG1        0.0789
      9 C          -1.3102    1.6293    0.1734 C.3     1  LIG1        0.0520
     10 C          -2.0523    0.4463   -0.3832 C.2     1  LIG1        0.1740
     11 O          -3.1897    0.5438   -0.8177 O.2     1  LIG1       -0.2917
     12 C           0.8914    2.8189    0.0073 C.ar    1  LIG1       -0.0069
     13 C           0.8105    4.0691   -0.6253 C.ar    1  LIG1       -0.0551
     14 C           1.5778    5.1470   -0.1724 C.ar    1  LIG1       -0.0614
     15 C           2.4332    4.9917    0.9169 C.ar    1  LIG1       -0.0617
     16 C           2.5199    3.7603    1.5592 C.ar    1  LIG1       -0.0614
     17 C           1.7504    2.6848    1.1125 C.ar    1  LIG1       -0.0551
     18 C           0.8844   -1.8763   -0.1974 C.ar    1  LIG1        0.0227
     19 C           0.2895   -3.1329   -0.2113 C.ar    1  LIG1        0.1271
     20 C          -1.1039   -3.2361   -0.2514 C.ar    1  LIG1        0.0227
     21 O           0.9674   -4.3196   -0.1456 O.3     1  LIG1       -0.4949
     22 C           2.2903   -4.2990   -0.6757 C.3     1  LIG1        0.0788
     23 H          -4.9688   -3.0798    0.3231 H       1  LIG1        0.0660
     24 H          -3.5449   -3.3378    1.3423 H       1  LIG1        0.0660
     25 H          -3.7210   -4.1907   -0.2391 H       1  LIG1        0.0660
     26 H          -1.8730    2.5445   -0.0437 H       1  LIG1        0.0385
     27 H          -1.2505    1.5129    1.2628 H       1  LIG1        0.0385
     28 H           0.1536    4.2152   -1.4802 H       1  LIG1        0.0621
     29 H           1.5109    6.1105   -0.6717 H       1  LIG1        0.0618
     30 H           3.0320    5.8293    1.2654 H       1  LIG1        0.0618
     31 H           3.1884    3.6332    2.4069 H       1  LIG1        0.0618
     32 H           1.8377    1.7313    1.6299 H       1  LIG1        0.0621
     33 H           1.9594   -1.7548   -0.1144 H       1  LIG1        0.0691
     34 H          -1.5354   -4.2325   -0.2564 H       1  LIG1        0.0691
     35 H           2.6672   -5.3260   -0.6743 H       1  LIG1        0.0660
     36 H           2.9637   -3.7025   -0.0524 H       1  LIG1        0.0660
     37 H           2.2915   -3.9407   -1.7111 H       1  LIG1        0.0660
@<TRIPOS>BOND
     1     1     2    1
     2     1     3    1
     3     3     4   ar
     4     4     5   ar
     5     5     6    1
     6     6     7    1
     7     7     8    1
     8     7     9    1
     9     9    10    1
    10     4    10    1
    11    10    11    2
    12     7    12    1
    13    12    13   ar
    14    13    14   ar
    15    14    15   ar
    16    15    16   ar
    17    16    17   ar
    18    12    17   ar
    19     5    18   ar
    20    18    19   ar
    21    19    20   ar
    22     3    20   ar
    23    19    21    1
    24    21    22    1
    25     2    23    1
    26     2    24    1
    27     2    25    1
    28     9    26    1
    29     9    27    1
    30    13    28    1
    31    14    29    1
    32    15    30    1
    33    16    31    1
    34    17    32    1
    35    18    33    1
    36    20    34    1
    37    22    35    1
    38    22    36    1
    39    22    37    1
