@<TRIPOS>MOLECULE
NuBBE_1635
 68 73 0 0 0
SMALL
GASTEIGER

@<TRIPOS>ATOM
      1 C           0.2284   -0.1439   -2.4003 C.3     1  LIG1       -0.0537
      2 C           0.9591   -0.3124   -1.0397 C.3     1  LIG1        0.0372
      3 C           1.3707   -1.8340   -0.8819 C.3     1  LIG1        0.1244
      4 C           0.4784   -2.8622   -0.1478 C.3     1  LIG1        0.0419
      5 C           1.3246   -3.8659    0.6999 C.3     1  LIG1       -0.0531
      6 C          -0.2501   -3.6276   -1.3043 C.3     1  LIG1        0.1391
      7 H          -0.7068   -2.9112   -1.9998 H       1  LIG1        0.0793
      8 O           0.7155   -4.3810   -2.0935 O.3     1  LIG1       -0.4539
      9 C           1.9313   -3.8520   -2.4204 C.2     1  LIG1        0.3398
     10 O           2.7781   -4.4854   -3.0297 O.2     1  LIG1       -0.2478
     11 C           2.1511   -2.4347   -2.0570 C.3     1  LIG1        0.1857
     12 H           2.4962   -1.8313   -2.8849 H       1  LIG1        0.0743
     13 O           2.7711   -2.1437   -0.7983 O.3     1  LIG1       -0.3516
     14 C          -1.3466   -4.5539   -0.8586 C.ar    1  LIG1        0.0310
     15 C          -1.2441   -5.9398   -0.5349 C.ar    1  LIG1       -0.0172
     16 C          -2.5056   -6.3583   -0.1857 C.ar    1  LIG1        0.0921
     17 O          -3.3861   -5.3315   -0.2816 O.2     1  LIG1       -0.4706
     18 C          -2.6856   -4.2486   -0.7008 C.ar    1  LIG1        0.0984
     19 C          -0.4449   -2.1854    0.8830 C.3     1  LIG1       -0.0409
     20 C          -1.0562   -0.8853    0.4117 C.3     1  LIG1       -0.0479
     21 C           0.0696    0.1457    0.1652 C.3     1  LIG1       -0.0181
     22 H           0.7302    0.0913    1.0471 H       1  LIG1        0.0317
     23 C          -0.4501    1.6520    0.1284 C.3     1  LIG1        0.0287
     24 C          -1.0165    1.9482    1.5365 C.2     1  LIG1       -0.0678
     25 C          -0.3482    2.4364    2.5967 C.2     1  LIG1        0.0192
     26 C          -1.0539    2.7571    3.8567 C.2     1  LIG1        0.3314
     27 O          -2.1837    2.3965    4.1407 O.2     1  LIG1       -0.2456
     28 O          -0.2346    3.5368    4.6037 O.3     1  LIG1       -0.4649
     29 C          -0.8041    3.9644    5.8408 C.3     1  LIG1        0.0820
     30 C          -1.6536    1.8016   -0.8526 C.3     1  LIG1       -0.0526
     31 C           0.7031    2.6134   -0.3365 C.3     1  LIG1        0.1674
     32 C           2.0578    2.0455   -0.6934 C.2     1  LIG1        0.1973
     33 O           3.0605    2.7669   -0.7313 O.2     1  LIG1       -0.2914
     34 C           2.2299    0.5740   -1.0170 C.3     1  LIG1        0.1243
     35 H           2.9195    0.2015   -0.2483 H       1  LIG1        0.0680
     36 O           2.9176    0.5205   -2.2745 O.3     1  LIG1       -0.3835
     37 C           0.3495    4.1057   -0.8093 C.3     1  LIG1        0.1020
     38 O           0.8933    3.7967    0.4666 O.3     1  LIG1       -0.3528
     39 C           1.2899    4.8462   -1.7245 C.3     1  LIG1       -0.0329
     40 C          -0.9711    4.8066   -0.6229 C.3     1  LIG1       -0.0329
     41 H          -0.7842   -0.5540   -2.3820 H       1  LIG1        0.0237
     42 H           0.7391   -0.6492   -3.2248 H       1  LIG1        0.0237
     43 H           0.1734    0.9047   -2.7016 H       1  LIG1        0.0237
     44 H           2.0017   -4.4832    0.1029 H       1  LIG1        0.0237
     45 H           0.6792   -4.5500    1.2623 H       1  LIG1        0.0237
     46 H           1.9471   -3.3325    1.4285 H       1  LIG1        0.0237
     47 H          -0.3546   -6.5555   -0.5584 H       1  LIG1        0.0653
     48 H          -2.9212   -7.3046    0.1321 H       1  LIG1        0.1029
     49 H          -3.2682   -3.3462   -0.8265 H       1  LIG1        0.1033
     50 H           0.1274   -1.9617    1.7950 H       1  LIG1        0.0273
     51 H          -1.2358   -2.8653    1.2162 H       1  LIG1        0.0273
     52 H          -1.7423   -0.5410    1.1919 H       1  LIG1        0.0269
     53 H          -1.6633   -1.0695   -0.4785 H       1  LIG1        0.0269
     54 H          -2.0831    1.7518    1.6694 H       1  LIG1        0.0581
     55 H           0.7100    2.6661    2.5743 H       1  LIG1        0.0686
     56 H          -0.0657    4.5855    6.3560 H       1  LIG1        0.0661
     57 H          -1.0328    3.1012    6.4728 H       1  LIG1        0.0661
     58 H          -1.7008    4.5676    5.6662 H       1  LIG1        0.0661
     59 H          -1.3387    2.0406   -1.8713 H       1  LIG1        0.0239
     60 H          -2.3352    2.6032   -0.5505 H       1  LIG1        0.0239
     61 H          -2.2861    0.9126   -0.9009 H       1  LIG1        0.0239
     62 H           3.7047    1.0953   -2.1724 H       1  LIG1        0.2104
     63 H           1.9074    4.1732   -2.3238 H       1  LIG1        0.0258
     64 H           1.9395    5.5180   -1.1540 H       1  LIG1        0.0258
     65 H           0.7277    5.4557   -2.4410 H       1  LIG1        0.0258
     66 H          -1.5116    4.4674    0.2650 H       1  LIG1        0.0258
     67 H          -1.6056    4.6678   -1.5031 H       1  LIG1        0.0258
     68 H          -0.8120    5.8833   -0.4915 H       1  LIG1        0.0258
@<TRIPOS>BOND
     1     1     2    1
     2     2     3    1
     3     3     4    1
     4     4     5    1
     5     4     6    1
     6     6     7    1
     7     6     8    1
     8     8     9    1
     9     9    10    2
    10     9    11    1
    11    11    12    1
    12     3    11    1
    13    11    13    1
    14     3    13    1
    15     6    14    1
    16    14    15   ar
    17    15    16   ar
    18    16    17   ar
    19    17    18   ar
    20    14    18   ar
    21     4    19    1
    22    19    20    1
    23    20    21    1
    24    21    22    1
    25     2    21    1
    26    21    23    1
    27    24    25    2
    28    25    26    1
    29    26    27    2
    30    26    28    1
    31    28    29    1
    32    23    31    1
    33    31    32    1
    34    32    33    2
    35    32    34    1
    36     2    34    1
    37    31    37    1
    38    37    38    1
    39    31    38    1
    40    37    39    1
    41    37    40    1
    42    23    30    1
    43    23    24    1
    44    34    36    1
    45    34    35    1
    46     1    41    1
    47     1    42    1
    48     1    43    1
    49     5    44    1
    50     5    45    1
    51     5    46    1
    52    15    47    1
    53    16    48    1
    54    18    49    1
    55    19    50    1
    56    19    51    1
    57    20    52    1
    58    20    53    1
    59    24    54    1
    60    25    55    1
    61    29    56    1
    62    29    57    1
    63    29    58    1
    64    30    59    1
    65    30    60    1
    66    30    61    1
    67    36    62    1
    68    39    63    1
    69    39    64    1
    70    39    65    1
    71    40    66    1
    72    40    67    1
    73    40    68    1
