@<TRIPOS>MOLECULE
NuBBE_128
 35 37 0 0 0
SMALL
GASTEIGER

@<TRIPOS>ATOM
      1 O          -6.2484   -0.2880    1.4468 O.3     1  LIG1       -0.5033
      2 C          -4.9425   -0.5163    1.1147 C.ar    1  LIG1        0.1583
      3 C          -4.5477   -1.6503    0.4213 C.ar    1  LIG1       -0.0159
      4 C          -3.1925   -1.8234    0.1114 C.ar    1  LIG1       -0.0474
      5 C          -4.0008    0.4352    1.4916 C.ar    1  LIG1        0.1589
      6 O          -4.3983    1.5551    2.1656 O.3     1  LIG1       -0.5033
      7 C          -2.6537    0.2668    1.1932 C.ar    1  LIG1       -0.0059
      8 C          -2.2227   -0.8773    0.5019 C.ar    1  LIG1        0.0211
      9 C          -0.7876   -1.0507    0.1744 C.ar    1  LIG1        0.1393
     10 O          -0.0970    0.1356   -0.0112 O.2     1  LIG1       -0.4543
     11 C          -0.2167   -2.2597    0.0871 C.ar    1  LIG1        0.0288
     12 C           1.2118   -2.3807   -0.2538 C.ar    1  LIG1        0.1967
     13 C           1.9510   -1.1167   -0.4501 C.ar    1  LIG1        0.1091
     14 C           1.2446    0.0824   -0.3084 C.ar    1  LIG1        0.1465
     15 C           1.8792    1.3248   -0.4698 C.ar    1  LIG1        0.0270
     16 C           3.2350    1.3779   -0.7824 C.ar    1  LIG1        0.1685
     17 O           3.9842    2.5088   -0.9704 O.3     1  LIG1       -0.4912
     18 C           3.3052    3.7534   -0.8372 C.3     1  LIG1        0.0790
     19 C           3.9318    0.1756   -0.9279 C.ar    1  LIG1        0.2018
     20 O           5.2703    0.1828   -1.2406 O.3     1  LIG1       -0.5009
     21 C           3.3073   -1.0626   -0.7651 C.ar    1  LIG1        0.1766
     22 O           4.0717   -2.1837   -0.9272 O.3     1  LIG1       -0.5027
     23 O           1.6990   -3.4984   -0.3572 O.2     1  LIG1       -0.2869
     24 H          -6.7778   -1.0416    1.1329 H       1  LIG1        0.2923
     25 H          -5.2646   -2.4029    0.1090 H       1  LIG1        0.0655
     26 H          -2.9081   -2.7093   -0.4530 H       1  LIG1        0.0626
     27 H          -5.3668    1.4539    2.2593 H       1  LIG1        0.2923
     28 H          -1.9493    1.0309    1.5109 H       1  LIG1        0.0662
     29 H          -0.7366   -3.1936    0.2549 H       1  LIG1        0.0693
     30 H           1.2839    2.2237   -0.3445 H       1  LIG1        0.0692
     31 H           4.0326    4.5508   -1.0176 H       1  LIG1        0.0660
     32 H           2.9136    3.8819    0.1772 H       1  LIG1        0.0660
     33 H           2.5110    3.8505   -1.5846 H       1  LIG1        0.0660
     34 H           5.5081    1.1298   -1.3100 H       1  LIG1        0.2924
     35 H           4.9708   -1.8647   -1.1412 H       1  LIG1        0.2923
@<TRIPOS>BOND
     1     1     2    1
     2     2     3   ar
     3     3     4   ar
     4     2     5   ar
     5     5     6    1
     6     5     7   ar
     7     7     8   ar
     8     4     8   ar
     9     8     9    1
    10     9    10   ar
    11     9    11   ar
    12    11    12   ar
    13    12    13   ar
    14    13    14   ar
    15    10    14   ar
    16    14    15   ar
    17    15    16   ar
    18    16    17    1
    19    17    18    1
    20    16    19   ar
    21    19    20    1
    22    19    21   ar
    23    13    21   ar
    24    21    22    1
    25    12    23    2
    26     1    24    1
    27     3    25    1
    28     4    26    1
    29     6    27    1
    30     7    28    1
    31    11    29    1
    32    15    30    1
    33    18    31    1
    34    18    32    1
    35    18    33    1
    36    20    34    1
    37    22    35    1
