@<TRIPOS>MOLECULE
NuBBE_404
 37 38 0 0 0
SMALL
GASTEIGER

@<TRIPOS>ATOM
      1 C           0.5299   -2.5746    3.0420 C.ar    1  LIG1       -0.0367
      2 C           0.7053   -1.1965    3.6121 C.3     1  LIG1        0.0298
      3 S          -0.7432   -0.5024    4.4568 S.3     1  LIG1       -0.0771
      4 S          -2.1734   -0.2929    2.9939 S.3     1  LIG1       -0.0231
      5 S          -1.3624    0.9478    1.5714 S.3     1  LIG1       -0.0702
      6 C          -1.0012    2.4412    2.5222 C.3     1  LIG1        0.0617
      7 S          -0.5107    3.8491    1.4885 S.3     1  LIG1       -0.0702
      8 S           1.3999    3.4004    0.8726 S.3     1  LIG1       -0.0231
      9 S           1.1718    2.1867   -0.7680 S.3     1  LIG1       -0.0771
     10 C           0.3416    3.2998   -1.9518 C.3     1  LIG1        0.0298
     11 C           0.0224    2.5854   -3.2328 C.ar    1  LIG1       -0.0367
     12 C           0.9606    2.5485   -4.2775 C.ar    1  LIG1       -0.0578
     13 C           0.6791    1.8588   -5.4572 C.ar    1  LIG1       -0.0615
     14 C          -0.5425    1.2002   -5.6036 C.ar    1  LIG1       -0.0617
     15 C          -1.4778    1.2249   -4.5731 C.ar    1  LIG1       -0.0615
     16 C          -1.1979    1.9158   -3.3925 C.ar    1  LIG1       -0.0578
     17 C           0.9523   -3.7025    3.7594 C.ar    1  LIG1       -0.0578
     18 C           0.8807   -4.9710    3.1826 C.ar    1  LIG1       -0.0615
     19 C           0.3565   -5.1295    1.9015 C.ar    1  LIG1       -0.0617
     20 C          -0.1003   -4.0188    1.1927 C.ar    1  LIG1       -0.0615
     21 C           0.0006   -2.7514    1.7532 C.ar    1  LIG1       -0.0578
     22 H           1.0501   -0.5064    2.8328 H       1  LIG1        0.0433
     23 H           1.5172   -1.2133    4.3485 H       1  LIG1        0.0433
     24 H          -0.2122    2.2459    3.2528 H       1  LIG1        0.0506
     25 H          -1.9085    2.7382    3.0520 H       1  LIG1        0.0506
     26 H           0.9705    4.1759   -2.1467 H       1  LIG1        0.0433
     27 H          -0.5929    3.6612   -1.5120 H       1  LIG1        0.0433
     28 H           1.9208    3.0516   -4.1728 H       1  LIG1        0.0621
     29 H           1.4104    1.8356   -6.2608 H       1  LIG1        0.0618
     30 H          -0.7573    0.6576   -6.5188 H       1  LIG1        0.0618
     31 H          -2.4278    0.7072   -4.6866 H       1  LIG1        0.0618
     32 H          -1.9318    1.9156   -2.5882 H       1  LIG1        0.0621
     33 H           1.3624   -3.5986    4.7615 H       1  LIG1        0.0621
     34 H           1.2441   -5.8380    3.7298 H       1  LIG1        0.0618
     35 H           0.3145   -6.1136    1.4466 H       1  LIG1        0.0618
     36 H          -0.5161   -4.1388    0.1985 H       1  LIG1        0.0618
     37 H          -0.3347   -1.8990    1.1708 H       1  LIG1        0.0621
@<TRIPOS>BOND
     1     1     2    1
     2     2     3    1
     3     3     4    1
     4     4     5    1
     5     5     6    1
     6     6     7    1
     7     7     8    1
     8     8     9    1
     9     9    10    1
    10    10    11    1
    11    11    12   ar
    12    12    13   ar
    13    13    14   ar
    14    14    15   ar
    15    15    16   ar
    16    11    16   ar
    17     1    17   ar
    18    17    18   ar
    19    18    19   ar
    20    19    20   ar
    21    20    21   ar
    22     1    21   ar
    23     2    22    1
    24     2    23    1
    25     6    24    1
    26     6    25    1
    27    10    26    1
    28    10    27    1
    29    12    28    1
    30    13    29    1
    31    14    30    1
    32    15    31    1
    33    16    32    1
    34    17    33    1
    35    18    34    1
    36    19    35    1
    37    20    36    1
    38    21    37    1
