REMARK  Name = NuBBE_2343
REMARK  13 active torsions:
REMARK  status: ('A' for Active; 'I' for Inactive)
REMARK    1  A    between atoms: C_1  and  O_2
REMARK    2  A    between atoms: O_2  and  C_3
REMARK    3  A    between atoms: C_4  and  O_5
REMARK    4  A    between atoms: O_5  and  C_6
REMARK    5  A    between atoms: C_7  and  O_8
REMARK    6  A    between atoms: O_8  and  C_9
REMARK    7  A    between atoms: C_11  and  C_12
REMARK    8  A    between atoms: C_16  and  C_17
REMARK    9  A    between atoms: C_17  and  C_18
REMARK   10  A    between atoms: C_20  and  O_21
REMARK   11  A    between atoms: C_22  and  O_23
REMARK   12  A    between atoms: O_23  and  C_24
REMARK   13  A    between atoms: C_27  and  C_29
REMARK                            x       y       z     vdW  Elec       q    Type
REMARK                         _______ _______ _______ _____ _____    ______ ____
ROOT
ATOM      1  C   LIG A   1      -0.100   0.435   1.754  0.00  0.00    +0.211 C 
ATOM      2  O   LIG A   1      -0.058  -0.966   1.452  0.00  0.00    -0.483 OA
ATOM      3  C   LIG A   1       1.139  -1.186   0.821  0.00  0.00    +0.132 A 
ATOM      4  C   LIG A   1       1.480  -2.397   0.241  0.00  0.00    +0.043 A 
ATOM      5  C   LIG A   1       2.664  -2.386  -0.521  0.00  0.00    +0.166 A 
ATOM      6  C   LIG A   1       3.498  -1.245  -0.581  0.00  0.00    +0.162 A 
ATOM      7  C   LIG A   1       3.155  -0.092   0.140  0.00  0.00    +0.057 A 
ATOM      8  C   LIG A   1       1.958  -0.070   0.827  0.00  0.00    +0.005 A 
ATOM      9  C   LIG A   1       1.335   1.002   1.652  0.00  0.00    +0.065 C 
ATOM     10  C   LIG A   1       1.988   1.118   3.030  0.00  0.00    +0.016 C 
ENDROOT
BRANCH   1  15
ATOM     11  C   LIG A   1      -2.585   2.870   0.246  0.00  0.00    +0.166 A 
ATOM     12  C   LIG A   1      -2.829   2.306  -1.041  0.00  0.00    +0.203 A 
ATOM     13  C   LIG A   1      -2.201   1.090  -1.379  0.00  0.00    +0.166 A 
ATOM     14  C   LIG A   1      -1.342   0.496  -0.458  0.00  0.00    +0.057 A 
ATOM     15  C   LIG A   1      -1.078   1.058   0.790  0.00  0.00    +0.000 A 
ATOM     16  C   LIG A   1      -1.726   2.227   1.141  0.00  0.00    +0.057 A 
BRANCH  11  18
ATOM     17  C   LIG A   1      -3.358   4.337   1.958  0.00  0.00    +0.277 C 
ATOM     18  O   LIG A   1      -3.138   4.091   0.566  0.00  0.00    -0.491 OA
ENDBRANCH  11  18
BRANCH  12  19
ATOM     19  O   LIG A   1      -3.668   3.030  -1.860  0.00  0.00    -0.488 OA
ATOM     20  C   LIG A   1      -3.987   2.497  -3.142  0.00  0.00    +0.277 C 
ENDBRANCH  12  19
BRANCH  13  21
ATOM     21  O   LIG A   1      -2.456   0.456  -2.570  0.00  0.00    -0.491 OA
ATOM     22  C   LIG A   1      -1.401  -0.351  -3.094  0.00  0.00    +0.277 C 
ENDBRANCH  13  21
ENDBRANCH   1  15
BRANCH   5  23
ATOM     23  O   LIG A   1       3.005  -3.524  -1.201  0.00  0.00    -0.503 OA
ATOM     24  H   LIG A   1       2.370  -3.603  -1.935  0.00  0.00    +0.292 HD
ENDBRANCH   5  23
BRANCH   6  25
ATOM     25  O   LIG A   1       4.683  -1.126  -1.261  0.00  0.00    -0.491 OA
ATOM     26  C   LIG A   1       4.837  -1.903  -2.441  0.00  0.00    +0.277 C 
ENDBRANCH   6  25
BRANCH   4  27
ATOM     27  C   LIG A   1       0.611  -3.633   0.355  0.00  0.00    +0.069 C 
BRANCH  27  28
ATOM     28  C   LIG A   1      -0.165  -3.890   1.654  0.00  0.00    -0.030 C 
ATOM     29  C   LIG A   1      -0.125  -3.268   2.817  0.00  0.00    +0.004 C 
ENDBRANCH  27  28
ENDBRANCH   4  27
TORSDOF 8
