@<TRIPOS>MOLECULE
NuBBE_284
 52 55 0 0 0
SMALL
GASTEIGER

@<TRIPOS>ATOM
      1 O          -0.1750   -4.1244   -2.6221 O.3     1  LIG1       -0.5058
      2 C          -0.2528   -4.3331   -1.2698 C.ar    1  LIG1        0.1348
      3 C          -0.1028   -3.3188   -0.3198 C.ar    1  LIG1        0.1092
      4 C           0.1919   -1.9299   -0.7181 C.ar    1  LIG1        0.2382
      5 C           0.1903   -0.8771    0.3413 C.ar    1  LIG1        0.2138
      6 O           0.3852    0.4647    0.0371 O.3     1  LIG1       -0.4532
      7 C          -0.1466    0.9645   -1.2022 C.3     1  LIG1        0.2311
      8 H          -0.6445    0.1938   -1.7944 H       1  LIG1        0.1084
      9 O           0.9426    1.5051   -1.9848 O.3     1  LIG1       -0.3313
     10 C           0.4438    2.2307   -3.1240 C.3     1  LIG1        0.1140
     11 H          -0.3465    1.6293   -3.5933 H       1  LIG1        0.0647
     12 C          -0.1791    3.5638   -2.6488 C.3     1  LIG1        0.1120
     13 H          -1.0340    3.7914   -3.2962 H       1  LIG1        0.0647
     14 C          -0.6326    3.4548   -1.1783 C.3     1  LIG1        0.1152
     15 H          -1.3870    4.2270   -0.9899 H       1  LIG1        0.0648
     16 O           0.4802    3.7585   -0.3192 O.3     1  LIG1       -0.3864
     17 O           0.7293    4.6694   -2.7784 O.3     1  LIG1       -0.3865
     18 C           1.5546    2.4096   -4.1628 C.3     1  LIG1        0.0731
     19 O           1.0920    3.1396   -5.2953 O.3     1  LIG1       -0.3924
     20 C          -1.2058    2.0626   -0.8858 C.3     1  LIG1        0.1454
     21 H          -1.5297    1.9748    0.1565 H       1  LIG1        0.0683
     22 O          -2.3659    1.8588   -1.7136 O.3     1  LIG1       -0.3829
     23 C           0.0774   -1.3083    1.6167 C.ar    1  LIG1        0.1809
     24 O          -0.0806   -2.6381    2.0031 O.2     1  LIG1       -0.4507
     25 C          -0.2113   -3.6000    1.0309 C.ar    1  LIG1        0.1465
     26 C          -0.4580   -4.9147    1.4485 C.ar    1  LIG1        0.0231
     27 C          -0.6015   -5.9232    0.4930 C.ar    1  LIG1        0.1239
     28 O          -0.8408   -7.2186    0.8469 O.3     1  LIG1       -0.5065
     29 C          -0.5065   -5.6427   -0.8646 C.ar    1  LIG1        0.0223
     30 C           0.1544   -0.3944    2.7812 C.ar    1  LIG1        0.0213
     31 C           1.3771   -0.1480    3.4266 C.ar    1  LIG1       -0.0475
     32 C           1.4454    0.7008    4.5423 C.ar    1  LIG1       -0.0195
     33 C           0.2861    1.3018    5.0183 C.ar    1  LIG1        0.1169
     34 C          -0.9357    1.0616    4.4016 C.ar    1  LIG1       -0.0195
     35 C          -1.0031    0.2157    3.2854 C.ar    1  LIG1       -0.0475
     36 O           0.3021    2.1381    6.0957 O.3     1  LIG1       -0.5068
     37 O           0.4270   -1.7091   -1.8964 O.2     1  LIG1       -0.2830
     38 H           0.0666   -3.1818   -2.7724 H       1  LIG1        0.2922
     39 H           1.1490    3.0530   -0.4501 H       1  LIG1        0.2100
     40 H           1.0538    4.8623   -1.8731 H       1  LIG1        0.2100
     41 H           2.4312    2.9157   -3.7431 H       1  LIG1        0.0584
     42 H           1.8996    1.4286   -4.5066 H       1  LIG1        0.0584
     43 H           0.9739    4.0605   -4.9888 H       1  LIG1        0.2095
     44 H          -3.0826    2.4202   -1.3670 H       1  LIG1        0.2102
     45 H          -0.5356   -5.1386    2.5074 H       1  LIG1        0.0691
     46 H          -0.8802   -7.2911    1.8143 H       1  LIG1        0.2921
     47 H          -0.6222   -6.4327   -1.6015 H       1  LIG1        0.0691
     48 H           2.2908   -0.6193    3.0713 H       1  LIG1        0.0626
     49 H           2.4035    0.8769    5.0225 H       1  LIG1        0.0654
     50 H          -1.8347    1.5319    4.7917 H       1  LIG1        0.0654
     51 H          -1.9706    0.0334    2.8258 H       1  LIG1        0.0626
     52 H           1.2178    2.2449    6.4026 H       1  LIG1        0.2921
@<TRIPOS>BOND
     1     1     2    1
     2     2     3   ar
     3     3     4   ar
     4     4     5   ar
     5     5     6    1
     6     7     9    1
     7     9    10    1
     8    10    12    1
     9    12    14    1
    10    18    19    1
    11     7    20    1
    12    14    20    1
    13     5    23   ar
    14    23    24   ar
    15    24    25   ar
    16     3    25   ar
    17    25    26   ar
    18    26    27   ar
    19    27    28    1
    20    27    29   ar
    21     2    29   ar
    22    23    30    1
    23    30    31   ar
    24    31    32   ar
    25    32    33   ar
    26    33    34   ar
    27    34    35   ar
    28    30    35   ar
    29    33    36    1
    30     4    37    2
    31    10    18    1
    32    10    11    1
    33    12    17    1
    34    12    13    1
    35     7     8    1
    36     7     6    1
    37    14    16    1
    38    14    15    1
    39    20    22    1
    40    20    21    1
    41     1    38    1
    42    16    39    1
    43    17    40    1
    44    18    41    1
    45    18    42    1
    46    19    43    1
    47    22    44    1
    48    26    45    1
    49    28    46    1
    50    29    47    1
    51    31    48    1
    52    32    49    1
    53    34    50    1
    54    35    51    1
    55    36    52    1
