REMARK  Name = NuBBE_1527
REMARK  4 active torsions:
REMARK  status: ('A' for Active; 'I' for Inactive)
REMARK    1  A    between atoms: O_1  and  C_2
REMARK    2  A    between atoms: C_5  and  C_6
REMARK    3  A    between atoms: C_6  and  C_7
REMARK    4  A    between atoms: C_7  and  C_8
REMARK                            x       y       z     vdW  Elec       q    Type
REMARK                         _______ _______ _______ _____ _____    ______ ____
ROOT
ATOM      1  C   LIG A   1       0.388  -0.551   1.003  0.00  0.00    +0.168 C 
ATOM      2  O   LIG A   1      -0.335  -0.788   1.973  0.00  0.00    -0.292 OA
ENDROOT
BRANCH   1   6
ATOM      3  C   LIG A   1       1.740  -3.882  -1.335  0.00  0.00    +0.117 A 
ATOM      4  C   LIG A   1       1.361  -4.067  -0.011  0.00  0.00    +0.046 A 
ATOM      5  C   LIG A   1       0.904  -2.972   0.730  0.00  0.00    +0.015 A 
ATOM      6  C   LIG A   1       0.838  -1.693   0.151  0.00  0.00    +0.018 A 
ATOM      7  C   LIG A   1       1.193  -1.534  -1.192  0.00  0.00    +0.015 A 
ATOM      8  C   LIG A   1       1.650  -2.630  -1.931  0.00  0.00    +0.046 A 
BRANCH   3   9
ATOM      9  O   LIG A   1       2.208  -4.913  -2.094  0.00  0.00    -0.507 OA
ATOM     10  H   LIG A   1       2.217  -5.721  -1.555  0.00  0.00    +0.292 HD
ENDBRANCH   3   9
ENDBRANCH   1   6
BRANCH   1  11
ATOM     11  C   LIG A   1       0.916   0.854   0.727  0.00  0.00    +0.119 C 
BRANCH  11  12
ATOM     12  C   LIG A   1      -0.210   1.837   0.567  0.00  0.00    +0.018 C 
ATOM     13  C   LIG A   1      -0.705   2.593   1.566  0.00  0.00    -0.016 C 
ATOM     14  C   LIG A   1      -1.839   3.560   1.357  0.00  0.00    +0.046 C 
ATOM     15  C   LIG A   1      -2.698   3.110   0.181  0.00  0.00    +0.108 C 
ATOM     16  N   LIG A   1      -1.875   2.764  -0.954  0.00  0.00    -0.311 N 
ATOM     17  C   LIG A   1      -0.719   2.044  -0.826  0.00  0.00    +0.240 C 
ATOM     18  O   LIG A   1      -0.127   1.610  -1.802  0.00  0.00    -0.271 OA
ATOM     19  H   LIG A   1      -2.245   2.821  -1.894  0.00  0.00    +0.149 HD
ENDBRANCH  11  12
ENDBRANCH   1  11
TORSDOF 4
