@<TRIPOS>MOLECULE
NuBBE_2453
 47 50 0 0 0
SMALL
GASTEIGER

@<TRIPOS>ATOM
      1 C          -2.9528    2.1393   -1.0131 C.3     1  LIG1       -0.0026
      2 C          -3.4117    1.9742    0.4088 C.2     1  LIG1       -0.0866
      3 C          -3.9498    0.8391    0.8962 C.2     1  LIG1       -0.1023
      4 C          -1.4946    2.4982   -1.1166 C.ar    1  LIG1        0.0442
      5 C          -0.4644    1.6281   -0.7294 C.ar    1  LIG1        0.1431
      6 C           0.8911    1.9180   -0.7963 C.ar    1  LIG1        0.0276
      7 C           1.5824    0.7699   -0.2914 C.ar    1  LIG1        0.0032
      8 C           0.5977   -0.1592    0.0246 C.ar    1  LIG1        0.1394
      9 O          -0.6346    0.3675   -0.2419 O.2     1  LIG1       -0.4541
     10 C           0.5846   -1.5210    0.5630 C.ar    1  LIG1        0.0247
     11 C           1.6003   -1.9593    1.4214 C.ar    1  LIG1       -0.0052
     12 C           1.5530   -3.2521    1.8993 C.ar    1  LIG1        0.1706
     13 C           0.5424   -4.1243    1.5684 C.ar    1  LIG1        0.2076
     14 C          -0.4896   -3.7382    0.7327 C.ar    1  LIG1        0.1660
     15 C          -0.4565   -2.4241    0.2322 C.ar    1  LIG1       -0.0054
     16 O          -1.5550   -4.4956    0.3319 O.3     1  LIG1       -0.4913
     17 C          -1.6126   -5.8247    0.8419 C.3     1  LIG1        0.0790
     18 O           0.7222   -5.3354    2.1665 O.3     1  LIG1       -0.4489
     19 C           1.9272   -5.1184    2.9161 C.3     1  LIG1        0.2334
     20 O           2.4742   -3.8007    2.7389 O.3     1  LIG1       -0.4524
     21 C           3.0581    0.6254   -0.1898 C.3     1  LIG1       -0.0355
     22 C           1.2937    3.1657   -1.3108 C.ar    1  LIG1       -0.0053
     23 C           0.3174    4.0639   -1.7469 C.ar    1  LIG1        0.1624
     24 C          -1.0427    3.7224   -1.6426 C.ar    1  LIG1        0.1656
     25 O          -1.9724    4.6310   -2.0952 O.3     1  LIG1       -0.5030
     26 O           0.5701    5.2988   -2.2972 O.3     1  LIG1       -0.4914
     27 C           1.9426    5.6517   -2.4470 C.3     1  LIG1        0.0790
     28 H          -3.5817    2.9082   -1.4790 H       1  LIG1        0.0358
     29 H          -3.1225    1.2231   -1.5917 H       1  LIG1        0.0358
     30 H          -3.2925    2.8272    1.0689 H       1  LIG1        0.0570
     31 H          -4.0790   -0.0356    0.2707 H       1  LIG1        0.0532
     32 H          -4.2508    0.7692    1.9326 H       1  LIG1        0.0532
     33 H           2.4071   -1.3143    1.7411 H       1  LIG1        0.0662
     34 H          -1.2581   -2.0988   -0.4308 H       1  LIG1        0.0662
     35 H          -2.5217   -6.2992    0.4624 H       1  LIG1        0.0660
     36 H          -1.6797   -5.8272    1.9356 H       1  LIG1        0.0660
     37 H          -0.7626   -6.4179    0.4870 H       1  LIG1        0.0660
     38 H           2.6712   -5.8575    2.5993 H       1  LIG1        0.1166
     39 H           1.7077   -5.2719    3.9787 H       1  LIG1        0.1166
     40 H           3.5710    1.5639   -0.4232 H       1  LIG1        0.0279
     41 H           3.4168   -0.1345   -0.8906 H       1  LIG1        0.0279
     42 H           3.3649    0.3510    0.8219 H       1  LIG1        0.0279
     43 H           2.3512    3.3875   -1.3690 H       1  LIG1        0.0662
     44 H          -1.4509    5.3796   -2.4452 H       1  LIG1        0.2923
     45 H           1.9890    6.6461   -2.9001 H       1  LIG1        0.0660
     46 H           2.4574    4.9555   -3.1183 H       1  LIG1        0.0660
     47 H           2.4432    5.7056   -1.4742 H       1  LIG1        0.0660
@<TRIPOS>BOND
     1     1     2    1
     2     2     3    2
     3     1     4    1
     4     4     5   ar
     5     5     6   ar
     6     6     7   ar
     7     7     8   ar
     8     8     9   ar
     9     5     9   ar
    10     8    10    1
    11    10    11   ar
    12    11    12   ar
    13    12    13   ar
    14    13    14   ar
    15    14    15   ar
    16    10    15   ar
    17    14    16    1
    18    16    17    1
    19    13    18    1
    20    18    19    1
    21    19    20    1
    22    12    20    1
    23     7    21    1
    24     6    22   ar
    25    22    23   ar
    26    23    24   ar
    27     4    24   ar
    28    24    25    1
    29    23    26    1
    30    26    27    1
    31     1    28    1
    32     1    29    1
    33     2    30    1
    34     3    31    1
    35     3    32    1
    36    11    33    1
    37    15    34    1
    38    17    35    1
    39    17    36    1
    40    17    37    1
    41    19    38    1
    42    19    39    1
    43    21    40    1
    44    21    41    1
    45    21    42    1
    46    22    43    1
    47    25    44    1
    48    27    45    1
    49    27    46    1
    50    27    47    1
