REMARK  Name = NuBBE_2508
REMARK  1 active torsions:
REMARK  status: ('A' for Active; 'I' for Inactive)
REMARK    1  A    between atoms: O_1  and  C_2
REMARK                            x       y       z     vdW  Elec       q    Type
REMARK                         _______ _______ _______ _____ _____    ______ ____
ROOT
ATOM      1  C   LIG A   1      -4.666  -0.516   1.023  0.00  0.00    +0.120 A 
ATOM      2  C   LIG A   1      -3.986   0.666   0.756  0.00  0.00    +0.091 A 
ATOM      3  C   LIG A   1      -2.592   0.654   0.702  0.00  0.00    +0.131 A 
ATOM      4  C   LIG A   1      -1.871  -0.524   0.942  0.00  0.00    +0.035 A 
ATOM      5  C   LIG A   1      -2.578  -1.706   1.207  0.00  0.00    +0.014 A 
ATOM      6  C   LIG A   1      -3.974  -1.701   1.246  0.00  0.00    +0.046 A 
ATOM      7  C   LIG A   1      -0.365  -0.509   0.976  0.00  0.00    +0.218 C 
ATOM      8  C   LIG A   1       0.223   0.891   0.742  0.00  0.00    +0.105 C 
ATOM      9  C   LIG A   1      -0.699   1.704  -0.154  0.00  0.00    +0.241 C 
ATOM     10  O   LIG A   1      -1.989   1.857   0.442  0.00  0.00    -0.491 OA
ATOM     11  C   LIG A   1       1.482   0.510   0.055  0.00  0.00    +0.008 A 
ATOM     12  C   LIG A   1       1.377  -0.817  -0.377  0.00  0.00    +0.129 A 
ATOM     13  O   LIG A   1       0.188  -1.409  -0.025  0.00  0.00    -0.483 OA
ATOM     14  C   LIG A   1       2.368  -1.435  -1.115  0.00  0.00    +0.095 A 
ATOM     15  C   LIG A   1       3.480  -0.662  -1.383  0.00  0.00    +0.170 A 
ATOM     16  C   LIG A   1       3.593   0.649  -0.951  0.00  0.00    +0.167 A 
ATOM     17  C   LIG A   1       2.601   1.278  -0.225  0.00  0.00    +0.057 A 
ATOM     18  O   LIG A   1       4.767   1.221  -1.335  0.00  0.00    -0.453 OA
ATOM     19  C   LIG A   1       5.388   0.126  -2.039  0.00  0.00    +0.466 C 
ATOM     20  O   LIG A   1       4.574  -1.065  -2.087  0.00  0.00    -0.453 OA
ENDROOT
BRANCH   1  21
ATOM     21  O   LIG A   1      -6.029  -0.555   1.075  0.00  0.00    -0.507 OA
ATOM     22  H   LIG A   1      -6.370   0.332   0.871  0.00  0.00    +0.292 HD
ENDBRANCH   1  21
TORSDOF 1
