REMARK  Name = NuBBE_2315
REMARK  9 active torsions:
REMARK  status: ('A' for Active; 'I' for Inactive)
REMARK    1  A    between atoms: C_1  and  C_28
REMARK    2  A    between atoms: C_3  and  C_4
REMARK    3  A    between atoms: C_17  and  O_18
REMARK    4  A    between atoms: O_18  and  C_19
REMARK    5  A    between atoms: C_20  and  O_24
REMARK    6  A    between atoms: C_21  and  O_22
REMARK    7  A    between atoms: O_22  and  C_23
REMARK    8  A    between atoms: O_24  and  C_25
REMARK    9  A    between atoms: C_25  and  C_26
REMARK                            x       y       z     vdW  Elec       q    Type
REMARK                         _______ _______ _______ _____ _____    ______ ____
ROOT
ATOM      1  C   LIG A   1      -1.754  -1.464   1.230  0.00  0.00    +0.065 C 
ATOM      2  C   LIG A   1      -2.526  -0.292   0.576  0.00  0.00    +0.211 C 
ATOM      3  O   LIG A   1      -1.764   0.930   0.817  0.00  0.00    -0.479 OA
ATOM      4  C   LIG A   1      -0.476   0.498   1.037  0.00  0.00    +0.170 A 
ATOM      5  C   LIG A   1      -0.389  -0.874   1.210  0.00  0.00    +0.008 A 
ATOM      6  C   LIG A   1       0.835  -1.489   1.390  0.00  0.00    +0.057 A 
ATOM      7  C   LIG A   1       1.998  -0.709   1.372  0.00  0.00    +0.166 A 
ATOM      8  C   LIG A   1       1.903   0.699   1.261  0.00  0.00    +0.208 A 
ATOM      9  C   LIG A   1       0.652   1.303   1.047  0.00  0.00    +0.208 A 
ATOM     10  C   LIG A   1      -1.901  -2.842   0.601  0.00  0.00    +0.016 C 
ENDROOT
BRANCH   2  11
ATOM     11  C   LIG A   1      -2.847  -0.428  -0.909  0.00  0.00    -0.003 A 
ATOM     12  C   LIG A   1      -4.089  -0.985  -1.300  0.00  0.00    +0.011 A 
ATOM     13  C   LIG A   1      -4.431  -1.121  -2.651  0.00  0.00    +0.050 A 
ATOM     14  C   LIG A   1      -3.519  -0.692  -3.589  0.00  0.00    +0.166 A 
ATOM     15  C   LIG A   1      -2.307  -0.159  -3.226  0.00  0.00    +0.167 A 
ATOM     16  C   LIG A   1      -1.940  -0.023  -1.905  0.00  0.00    +0.056 A 
ATOM     17  O   LIG A   1      -1.556   0.205  -4.299  0.00  0.00    -0.453 OA
ATOM     18  C   LIG A   1      -2.447  -0.135  -5.380  0.00  0.00    +0.466 C 
ATOM     19  O   LIG A   1      -3.685  -0.731  -4.938  0.00  0.00    -0.453 OA
ENDBRANCH   2  11
BRANCH   7  20
ATOM     20  O   LIG A   1       3.243  -1.260   1.553  0.00  0.00    -0.491 OA
ATOM     21  C   LIG A   1       3.452  -2.525   0.928  0.00  0.00    +0.277 C 
ENDBRANCH   7  20
BRANCH   9  22
ATOM     22  O   LIG A   1       0.539   2.652   0.852  0.00  0.00    -0.488 OA
ATOM     23  C   LIG A   1       0.571   2.950  -0.544  0.00  0.00    +0.277 C 
ENDBRANCH   9  22
BRANCH   8  24
ATOM     24  O   LIG A   1       3.073   1.426   1.278  0.00  0.00    -0.481 OA
BRANCH  24  25
ATOM     25  C   LIG A   1       3.076   2.435   2.290  0.00  0.00    +0.256 C 
BRANCH  25  26
ATOM     26  C   LIG A   1       4.505   2.654   2.712  0.00  0.00    +0.006 C 
ATOM     27  C   LIG A   1       4.970   2.483   3.946  0.00  0.00    +0.007 C 
ENDBRANCH  25  26
ENDBRANCH  24  25
ENDBRANCH   8  24
TORSDOF 6
