REMARK  Name = NuBBE_612
REMARK  10 active torsions:
REMARK  status: ('A' for Active; 'I' for Inactive)
REMARK    1  A    between atoms: C_1  and  C_2
REMARK    2  A    between atoms: C_3  and  C_48
REMARK    3  A    between atoms: C_6  and  C_10
REMARK    4  A    between atoms: C_10  and  C_11
REMARK    5  A    between atoms: C_20  and  O_22
REMARK    6  A    between atoms: O_22  and  C_23
REMARK    7  A    between atoms: C_23  and  C_24
REMARK    8  A    between atoms: C_30  and  O_31
REMARK    9  A    between atoms: C_30  and  C_45
REMARK   10  A    between atoms: C_33  and  C_43
REMARK                            x       y       z     vdW  Elec       q    Type
REMARK                         _______ _______ _______ _____ _____    ______ ____
ROOT
ATOM      1  C   LIG A   1      -4.088  -1.319  -0.744  0.00  0.00    +0.044 C 
ATOM      2  C   LIG A   1      -2.690  -0.913  -0.393  0.00  0.00    +0.097 C 
ATOM      3  C   LIG A   1      -2.425   0.566  -0.170  0.00  0.00    +0.026 C 
ATOM      4  C   LIG A   1      -0.994   0.918  -0.613  0.00  0.00    +0.034 C 
ATOM      5  C   LIG A   1      -0.455   2.343  -0.468  0.00  0.00    +0.082 C 
ATOM      6  N   LIG A   1       0.934   2.119  -0.798  0.00  0.00    -0.311 N 
ATOM      7  H   LIG A   1       1.602   2.838  -1.050  0.00  0.00    +0.149 HD
ATOM      8  C   LIG A   1       0.170  -0.034  -0.145  0.00  0.00    +0.100 C 
ATOM      9  C   LIG A   1       1.336   0.796  -0.693  0.00  0.00    +0.224 C 
ATOM     10  O   LIG A   1       2.470   0.433  -0.978  0.00  0.00    -0.275 OA
ATOM     11  C   LIG A   1       0.411  -0.221   1.420  0.00  0.00    +0.224 C 
ATOM     12  C   LIG A   1       1.647  -1.017   1.892  0.00  0.00    +0.192 C 
ATOM     13  C   LIG A   1       1.997  -2.562   1.892  0.00  0.00    +0.190 C 
ATOM     14  C   LIG A   1       1.125  -3.738   1.512  0.00  0.00    +0.149 C 
ATOM     15  C   LIG A   1       0.988  -4.193   0.027  0.00  0.00    +0.170 C 
ATOM     16  C   LIG A   1       2.194  -4.283  -0.914  0.00  0.00    +0.059 C 
ATOM     17  C   LIG A   1       2.509  -3.025  -1.752  0.00  0.00    +0.037 C 
ATOM     18  C   LIG A   1       1.455  -2.377  -2.621  0.00  0.00    -0.030 C 
ATOM     19  C   LIG A   1       0.415  -1.606  -2.247  0.00  0.00    -0.024 C 
ATOM     20  C   LIG A   1      -0.086  -1.394  -0.832  0.00  0.00    +0.062 C 
ATOM     21  C   LIG A   1      -1.538  -1.846  -0.733  0.00  0.00    +0.159 C 
ATOM     22  O   LIG A   1      -2.096  -1.782   0.583  0.00  0.00    -0.364 OA
ATOM     23  C   LIG A   1       2.003  -5.490  -1.848  0.00  0.00    +0.016 C 
ATOM     24  O   LIG A   1      -0.133  -4.566  -0.361  0.00  0.00    -0.294 OA
ATOM     25  C   LIG A   1       1.591  -5.005   2.257  0.00  0.00    +0.052 C 
ATOM     26  O   LIG A   1       2.410  -1.663   0.880  0.00  0.00    -0.361 OA
ATOM     27  C   LIG A   1      -2.877   1.013   1.214  0.00  0.00    +0.011 C 
ENDROOT
BRANCH  14  28
ATOM     28  O   LIG A   1      -0.175  -3.458   2.046  0.00  0.00    -0.379 OA
ATOM     29  H   LIG A   1      -0.826  -3.737   1.367  0.00  0.00    +0.211 HD
ENDBRANCH  14  28
BRANCH   5  30
ATOM     30  C   LIG A   1      -1.132   3.359  -1.409  0.00  0.00    +0.057 C 
BRANCH  30  31
ATOM     31  C   LIG A   1      -0.629   4.780  -1.248  0.00  0.00    -0.046 A 
ATOM     32  C   LIG A   1       0.483   5.235  -1.974  0.00  0.00    +0.003 A 
ATOM     33  C   LIG A   1       0.941   6.547  -1.830  0.00  0.00    +0.000 A 
ATOM     34  C   LIG A   1       0.293   7.422  -0.962  0.00  0.00    +0.000 A 
ATOM     35  C   LIG A   1      -0.815   6.985  -0.238  0.00  0.00    +0.000 A 
ATOM     36  C   LIG A   1      -1.274   5.672  -0.380  0.00  0.00    +0.003 A 
ENDBRANCH  30  31
ENDBRANCH   5  30
BRANCH  11  37
ATOM     37  O   LIG A   1       0.577   1.121   1.993  0.00  0.00    -0.458 OA
BRANCH  37  38
ATOM     38  C   LIG A   1      -0.114   1.484   3.103  0.00  0.00    +0.304 C 
ATOM     39  C   LIG A   1       0.202   2.908   3.468  0.00  0.00    +0.136 C 
ATOM     40  O   LIG A   1      -0.898   0.785   3.718  0.00  0.00    -0.251 OA
ENDBRANCH  37  38
ENDBRANCH  11  37
TORSDOF 5
