REMARK  Name = NuBBE_203
REMARK  19 active torsions:
REMARK  status: ('A' for Active; 'I' for Inactive)
REMARK    1  A    between atoms: C_5  and  O_7
REMARK    2  A    between atoms: O_7  and  C_8
REMARK    3  A    between atoms: C_8  and  C_9
REMARK    4  A    between atoms: C_9  and  C_10
REMARK    5  A    between atoms: C_10  and  C_11
REMARK    6  A    between atoms: C_13  and  C_15
REMARK    7  A    between atoms: C_16  and  C_17
REMARK    8  A    between atoms: C_16  and  C_18
REMARK    9  A    between atoms: C_18  and  C_19
REMARK   10  A    between atoms: C_20  and  C_21
REMARK   11  A    between atoms: C_20  and  C_22
REMARK   12  A    between atoms: C_25  and  O_27
REMARK   13  A    between atoms: O_27  and  C_28
REMARK   14  A    between atoms: C_28  and  C_29
REMARK   15  A    between atoms: C_32  and  O_34
REMARK   16  A    between atoms: O_34  and  C_35
REMARK   17  A    between atoms: C_35  and  C_36
REMARK   18  A    between atoms: C_39  and  O_41
REMARK   19  A    between atoms: O_41  and  C_42
REMARK                            x       y       z     vdW  Elec       q    Type
REMARK                         _______ _______ _______ _____ _____    ______ ____
ROOT
ATOM      1  C   LIG A   1       1.146  -0.944  -0.045  0.00  0.00    +0.015 C 
ATOM      2  C   LIG A   1       0.783   0.565  -0.425  0.00  0.00    +0.067 C 
ATOM      3  C   LIG A   1       1.219   1.559   0.693  0.00  0.00    +0.062 C 
ATOM      4  C   LIG A   1       1.006   1.148   2.146  0.00  0.00    +0.181 C 
ATOM      5  C   LIG A   1       1.327  -0.337   2.429  0.00  0.00    +0.033 C 
ATOM      6  C   LIG A   1       1.313  -0.678   3.929  0.00  0.00    +0.012 C 
ATOM      7  C   LIG A   1       0.807  -1.453   1.422  0.00  0.00    -0.019 C 
ATOM      8  C   LIG A   1       1.624  -2.745   1.795  0.00  0.00    +0.012 C 
ATOM      9  C   LIG A   1       1.571   1.019  -1.652  0.00  0.00    +0.009 C 
ATOM     10  C   LIG A   1       0.971   2.290  -2.174  0.00  0.00    +0.343 C 
ATOM     11  O   LIG A   1      -0.387   2.271  -1.656  0.00  0.00    -0.297 OA
ATOM     12  C   LIG A   1      -0.616   0.975  -1.016  0.00  0.00    +0.325 C 
ATOM     13  C   LIG A   1       2.548   0.284  -2.189  0.00  0.00    +0.010 C 
ATOM     14  C   LIG A   1       3.074  -0.989  -1.704  0.00  0.00    +0.141 C 
ATOM     15  C   LIG A   1       2.689  -1.124  -0.259  0.00  0.00    +0.041 C 
ENDROOT
BRANCH  14  16
ATOM     16  O   LIG A   1       2.493  -1.960  -2.560  0.00  0.00    -0.376 OA
ATOM     17  C   LIG A   1       2.957  -3.272  -2.318  0.00  0.00    +0.194 C 
ENDBRANCH  14  16
BRANCH   4  18
ATOM     18  O   LIG A   1      -0.276   1.616   2.572  0.00  0.00    -0.461 OA
BRANCH  18  19
ATOM     19  C   LIG A   1      -0.309   2.961   2.877  0.00  0.00    +0.307 C 
ATOM     20  O   LIG A   1       0.658   3.715   2.853  0.00  0.00    -0.251 OA
BRANCH  19  21
ATOM     21  C   LIG A   1      -1.713   3.450   3.121  0.00  0.00    +0.120 C 
BRANCH  21  22
ATOM     22  C   LIG A   1      -2.410   2.803   4.309  0.00  0.00    +0.008 C 
ATOM     23  C   LIG A   1      -2.553   1.296   4.168  0.00  0.00    +0.004 C 
ENDBRANCH  21  22
ENDBRANCH  19  21
ENDBRANCH  18  19
ENDBRANCH   4  18
BRANCH   7  24
ATOM     24  C   LIG A   1      -0.705  -1.898   1.516  0.00  0.00    +0.034 C 
BRANCH  24  25
ATOM     25  C   LIG A   1      -1.192  -3.063   0.585  0.00  0.00    -0.023 C 
ATOM     26  C   LIG A   1      -2.300  -3.046  -0.198  0.00  0.00    -0.055 C 
ATOM     27  C   LIG A   1      -2.758  -4.085  -1.198  0.00  0.00    +0.043 C 
BRANCH  26  28
ATOM     28  C   LIG A   1      -3.099  -1.856  -0.209  0.00  0.00    -0.005 C 
ATOM     29  C   LIG A   1      -4.417  -1.724  -0.054  0.00  0.00    +0.008 C 
ENDBRANCH  26  28
ENDBRANCH  24  25
ENDBRANCH   7  24
BRANCH  10  30
ATOM     30  O   LIG A   1       0.991   2.491  -3.620  0.00  0.00    -0.431 OA
BRANCH  30  31
ATOM     31  C   LIG A   1       2.214   2.684  -4.268  0.00  0.00    +0.306 C 
ATOM     32  C   LIG A   1       2.248   3.878  -5.052  0.00  0.00    +0.136 C 
ATOM     33  O   LIG A   1       3.227   1.903  -4.297  0.00  0.00    -0.251 OA
ENDBRANCH  30  31
ENDBRANCH  10  30
BRANCH  12  34
ATOM     34  O   LIG A   1      -1.171   0.142  -2.047  0.00  0.00    -0.434 OA
BRANCH  34  35
ATOM     35  C   LIG A   1      -2.474   0.478  -2.301  0.00  0.00    +0.306 C 
ATOM     36  C   LIG A   1      -2.766   0.680  -3.748  0.00  0.00    +0.136 C 
ATOM     37  O   LIG A   1      -3.308   0.776  -1.446  0.00  0.00    -0.251 OA
ENDBRANCH  34  35
ENDBRANCH  12  34
TORSDOF 12
