@<TRIPOS>MOLECULE
NuBBE_1702
 104 108 0 0 0
SMALL
GASTEIGER

@<TRIPOS>ATOM
      1 C          -2.7142   -2.1389    0.2422 C.3     1  LIG1        0.1080
      2 O          -3.3817   -2.9487   -0.7418 O.3     1  LIG1       -0.4639
      3 C          -3.2407   -4.2990   -0.6228 C.2     1  LIG1        0.3040
      4 O          -3.0365   -4.9188    0.4084 O.2     1  LIG1       -0.2512
      5 C          -3.2227   -4.8818   -2.0001 C.3     1  LIG1        0.0332
      6 C          -1.7994   -1.0465   -0.5393 C.3     1  LIG1        0.1207
      7 C          -0.8262    0.0350    0.4638 C.3     1  LIG1        0.1549
      8 C          -1.8302    0.9603    0.1418 C.3     1  LIG1        0.1446
      9 O          -1.4626    0.9586   -1.6045 O.3     1  LIG1       -0.4580
     10 C          -0.5775    1.2477   -2.5916 C.2     1  LIG1        0.3043
     11 O           0.5328    1.7504   -2.5006 O.2     1  LIG1       -0.2512
     12 C          -1.1359    0.8344   -3.9225 C.3     1  LIG1        0.0332
     13 C          -2.0993    2.3521    0.1433 C.3     1  LIG1        0.0715
     14 C          -3.3686    1.7638   -0.8924 C.3     1  LIG1        0.1496
     15 C          -3.2753   -0.0862   -1.2866 C.3     1  LIG1        0.1553
     16 O          -3.7511   -0.5233   -2.5702 O.3     1  LIG1       -0.4569
     17 C          -5.0591   -0.1898   -2.8269 C.2     1  LIG1        0.3043
     18 O          -5.6826    0.7247   -2.3026 O.2     1  LIG1       -0.2512
     19 C          -5.7060   -1.1816   -3.7470 C.3     1  LIG1        0.0332
     20 O          -3.7110    2.6236   -1.9939 O.3     1  LIG1       -0.4573
     21 C          -4.4699    3.7175   -1.6531 C.2     1  LIG1        0.3043
     22 O          -4.6800    4.1010   -0.5078 O.2     1  LIG1       -0.2512
     23 C          -5.0058    4.4193   -2.8722 C.3     1  LIG1        0.0332
     24 C          -0.5085    2.5018    0.2678 C.3     1  LIG1        0.1114
     25 O           0.1402    1.0906    0.1419 O.3     1  LIG1       -0.3557
     26 C          -0.0444    3.6037   -0.7056 C.3     1  LIG1       -0.0321
     27 C          -0.1344    3.0683    1.6990 C.3     1  LIG1        0.1219
     28 O           1.2219    3.0037    2.2652 O.3     1  LIG1       -0.4582
     29 C           2.3572    2.6933    1.6197 C.2     1  LIG1        0.3410
     30 O           2.5175    2.4526    0.4188 O.2     1  LIG1       -0.2449
     31 C           3.5315    2.7831    2.5098 C.ar    1  LIG1        0.0802
     32 C           3.9959    1.7314    3.3180 C.ar    1  LIG1        0.0552
     33 C           3.2227    0.4560    3.4658 C.3     1  LIG1       -0.0089
     34 C           3.9313   -0.8006    4.0010 C.3     1  LIG1       -0.0349
     35 C           3.8432   -1.9779    3.0148 C.3     1  LIG1        0.0540
     36 C           2.3664   -2.3635    2.7829 C.2     1  LIG1        0.3104
     37 O           1.7635   -3.1108    3.5471 O.2     1  LIG1       -0.2505
     38 O           1.7554   -1.6991    1.7695 O.3     1  LIG1       -0.4543
     39 C           0.3583   -1.9712    1.4401 C.3     1  LIG1        0.1742
     40 C          -0.5449   -0.6988    1.7773 C.3     1  LIG1        0.1367
     41 C           0.0608    0.1233    2.8952 C.3     1  LIG1       -0.0295
     42 O          -1.8065   -1.0875    2.3556 O.3     1  LIG1       -0.3820
     43 C           0.2011   -2.6468   -0.0195 C.3     1  LIG1        0.1799
     44 C          -0.5878   -1.8678   -1.2104 C.3     1  LIG1        0.1584
     45 O           0.4071   -1.0088   -1.8612 O.3     1  LIG1       -0.4567
     46 C           1.3202   -1.4924   -2.7566 C.2     1  LIG1        0.3043
     47 O           1.2328   -2.6029   -3.2714 O.2     1  LIG1       -0.2512
     48 C           2.5430   -0.5882   -2.9286 C.3     1  LIG1        0.0332
     49 O           1.3492   -3.4341   -0.4868 O.3     1  LIG1       -0.4539
     50 C           2.5447   -2.8321   -0.6766 C.2     1  LIG1        0.3044
     51 O           2.8049   -1.6851   -0.3434 O.2     1  LIG1       -0.2512
     52 C           3.4977   -3.6218   -1.5165 C.3     1  LIG1        0.0332
     53 C           4.7487   -1.6899    1.8178 C.3     1  LIG1       -0.0523
     54 N           5.1465    1.8160    4.0362 N.ar    1  LIG1       -0.2591
     55 C           5.8835    2.9362    3.9092 C.ar    1  LIG1        0.0279
     56 C           5.5131    4.0105    3.1206 C.ar    1  LIG1       -0.0428
     57 C           4.3186    3.9317    2.4103 C.ar    1  LIG1       -0.0446
     58 H          -2.1758   -2.7798    0.9397 H       1  LIG1        0.0706
     59 H          -3.4982   -1.6522    0.8372 H       1  LIG1        0.0706
     60 H          -4.2343   -5.0181   -2.3815 H       1  LIG1        0.0342
     61 H          -2.6806   -5.8300   -1.9850 H       1  LIG1        0.0342
     62 H          -2.6622   -4.2003   -2.6493 H       1  LIG1        0.0342
     63 H          -2.7378    0.4999    0.5748 H       1  LIG1        0.0769
     64 H          -2.0112    1.4448   -4.1440 H       1  LIG1        0.0342
     65 H          -1.3844   -0.2300   -3.9234 H       1  LIG1        0.0342
     66 H          -0.3846    0.9989   -4.7035 H       1  LIG1        0.0342
     67 H          -2.5833    2.7128    1.0548 H       1  LIG1        0.0404
     68 H          -4.2494    1.7483   -0.2229 H       1  LIG1        0.0777
     69 H          -4.0939   -0.4014   -0.6163 H       1  LIG1        0.0781
     70 H          -5.2818   -1.1191   -4.7488 H       1  LIG1        0.0342
     71 H          -6.7814   -0.9709   -3.8052 H       1  LIG1        0.0342
     72 H          -5.5961   -2.1859   -3.3287 H       1  LIG1        0.0342
     73 H          -5.5886    5.2999   -2.5727 H       1  LIG1        0.0342
     74 H          -5.6687    3.7609   -3.4400 H       1  LIG1        0.0342
     75 H          -4.1749    4.7614   -3.4915 H       1  LIG1        0.0342
     76 H          -0.5353    3.5453   -1.6780 H       1  LIG1        0.0259
     77 H           1.0331    3.6130   -0.8682 H       1  LIG1        0.0259
     78 H          -0.3339    4.5960   -0.3398 H       1  LIG1        0.0259
     79 H          -0.7681    2.5739    2.4372 H       1  LIG1        0.0727
     80 H          -0.4358    4.1206    1.7703 H       1  LIG1        0.0727
     81 H           2.8431    0.2412    2.4689 H       1  LIG1        0.0329
     82 H           2.3886    0.6704    4.1408 H       1  LIG1        0.0329
     83 H           3.4557   -1.1044    4.9420 H       1  LIG1        0.0277
     84 H           4.9854   -0.6193    4.2408 H       1  LIG1        0.0277
     85 H           4.2851   -2.8588    3.5024 H       1  LIG1        0.0411
     86 H           0.0123   -2.7552    2.1255 H       1  LIG1        0.0803
     87 H           0.8897    0.7001    2.5253 H       1  LIG1        0.0259
     88 H           0.4086   -0.5218    3.7095 H       1  LIG1        0.0259
     89 H          -0.6693    0.7870    3.3654 H       1  LIG1        0.0259
     90 H          -1.6787   -1.2978    3.3012 H       1  LIG1        0.2104
     91 H          -0.4838   -3.4744    0.1929 H       1  LIG1        0.0811
     92 H          -0.9610   -2.5977   -1.9406 H       1  LIG1        0.0782
     93 H           3.1812   -0.5231   -2.0460 H       1  LIG1        0.0342
     94 H           2.2771    0.4252   -3.2025 H       1  LIG1        0.0342
     95 H           3.1904   -0.9933   -3.7137 H       1  LIG1        0.0342
     96 H           4.5034   -3.2165   -1.3629 H       1  LIG1        0.0342
     97 H           3.2781   -3.5146   -2.5812 H       1  LIG1        0.0342
     98 H           3.4761   -4.6706   -1.2351 H       1  LIG1        0.0342
     99 H           4.3192   -0.9666    1.1261 H       1  LIG1        0.0238
    100 H           4.9957   -2.6084    1.2771 H       1  LIG1        0.0238
    101 H           5.7003   -1.2513    2.1465 H       1  LIG1        0.0238
    102 H           6.8134    2.9385    4.4701 H       1  LIG1        0.0829
    103 H           6.1517    4.8824    3.0460 H       1  LIG1        0.0633
    104 H           4.0177    4.7445    1.7552 H       1  LIG1        0.0627
@<TRIPOS>BOND
     1     1     2    1
     2     2     3    1
     3     3     4    2
     4     3     5    1
     5     1     6    1
     6     6     7    1
     7     7     8    1
     8     8     9    1
     9     9    10    1
    10    10    11    2
    11    10    12    1
    12     8    13    1
    13    13    14    1
    14    14    15    1
    15     6    15    1
    16    15    16    1
    17    16    17    1
    18    17    18    2
    19    17    19    1
    20    14    20    1
    21    20    21    1
    22    21    22    2
    23    21    23    1
    24    13    24    1
    25    24    25    1
    26     7    25    1
    27    24    26    1
    28    24    27    1
    29    27    28    1
    30    28    29    1
    31    29    30    2
    32    29    31    1
    33    31    32   ar
    34    32    33    1
    35    33    34    1
    36    34    35    1
    37    35    36    1
    38    36    37    2
    39    36    38    1
    40    38    39    1
    41    39    40    1
    42     7    40    1
    43    40    41    1
    44    40    42    1
    45    39    43    1
    46    43    44    1
    47     6    44    1
    48    44    45    1
    49    45    46    1
    50    46    47    2
    51    46    48    1
    52    43    49    1
    53    49    50    1
    54    50    51    2
    55    50    52    1
    56    35    53    1
    57    32    54   ar
    58    54    55   ar
    59    55    56   ar
    60    56    57   ar
    61    31    57   ar
    62     1    58    1
    63     1    59    1
    64     5    60    1
    65     5    61    1
    66     5    62    1
    67     8    63    1
    68    12    64    1
    69    12    65    1
    70    12    66    1
    71    13    67    1
    72    14    68    1
    73    15    69    1
    74    19    70    1
    75    19    71    1
    76    19    72    1
    77    23    73    1
    78    23    74    1
    79    23    75    1
    80    26    76    1
    81    26    77    1
    82    26    78    1
    83    27    79    1
    84    27    80    1
    85    33    81    1
    86    33    82    1
    87    34    83    1
    88    34    84    1
    89    35    85    1
    90    39    86    1
    91    41    87    1
    92    41    88    1
    93    41    89    1
    94    42    90    1
    95    43    91    1
    96    44    92    1
    97    48    93    1
    98    48    94    1
    99    48    95    1
   100    52    96    1
   101    52    97    1
   102    52    98    1
   103    53    99    1
   104    53   100    1
   105    53   101    1
   106    55   102    1
   107    56   103    1
   108    57   104    1
