REMARK  Name = NuBBE_2458
REMARK  18 active torsions:
REMARK  status: ('A' for Active; 'I' for Inactive)
REMARK    1  A    between atoms: C_1  and  O_2
REMARK    2  A    between atoms: O_2  and  C_3
REMARK    3  A    between atoms: C_4  and  O_5
REMARK    4  A    between atoms: O_5  and  C_6
REMARK    5  A    between atoms: C_9  and  C_11
REMARK    6  A    between atoms: C_14  and  O_15
REMARK    7  A    between atoms: O_15  and  C_16
REMARK    8  A    between atoms: C_16  and  C_17
REMARK    9  A    between atoms: C_19  and  O_20
REMARK   10  A    between atoms: O_20  and  C_21
REMARK   11  A    between atoms: C_23  and  C_25
REMARK   12  A    between atoms: C_25  and  O_26
REMARK   13  A    between atoms: O_26  and  C_27
REMARK   14  A    between atoms: C_27  and  C_28
REMARK   15  A    between atoms: C_30  and  C_32
REMARK   16  A    between atoms: C_32  and  O_33
REMARK   17  A    between atoms: O_33  and  C_34
REMARK   18  A    between atoms: C_34  and  C_35
REMARK                            x       y       z     vdW  Elec       q    Type
REMARK                         _______ _______ _______ _____ _____    ______ ____
ROOT
ATOM      1  C   LIG A   1      -0.102  -2.316  -3.156  0.00  0.00    +0.162 A 
ATOM      2  C   LIG A   1       0.419  -2.883  -1.980  0.00  0.00    +0.162 A 
ATOM      3  C   LIG A   1       0.997  -2.042  -1.012  0.00  0.00    +0.053 A 
ATOM      4  C   LIG A   1       1.003  -0.644  -1.138  0.00  0.00    -0.033 A 
ATOM      5  C   LIG A   1       1.590   0.226  -0.025  0.00  0.00    +0.056 C 
ATOM      6  C   LIG A   1       1.442   1.764  -0.261  0.00  0.00    +0.045 C 
ATOM      7  C   LIG A   1       0.339   2.161  -1.286  0.00  0.00    +0.038 C 
ATOM      8  C   LIG A   1       0.525   1.377  -2.582  0.00  0.00    +0.042 C 
ATOM      9  C   LIG A   1       0.507  -0.099  -2.323  0.00  0.00    -0.040 A 
ATOM     10  C   LIG A   1      -0.001  -0.933  -3.325  0.00  0.00    +0.053 A 
ENDROOT
BRANCH   5  11
ATOM     11  C   LIG A   1       1.181  -0.128   1.409  0.00  0.00    -0.036 A 
ATOM     12  C   LIG A   1       2.059   0.120   2.479  0.00  0.00    +0.008 A 
ATOM     13  C   LIG A   1       1.718  -0.245   3.786  0.00  0.00    +0.050 A 
ATOM     14  C   LIG A   1       0.499  -0.883   4.029  0.00  0.00    +0.173 A 
ATOM     15  C   LIG A   1      -0.414  -1.100   2.987  0.00  0.00    +0.163 A 
ATOM     16  C   LIG A   1      -0.066  -0.698   1.695  0.00  0.00    +0.053 A 
BRANCH  15  17
ATOM     17  O   LIG A   1      -1.620  -1.670   3.294  0.00  0.00    -0.491 OA
ATOM     18  C   LIG A   1      -2.458  -2.036   2.203  0.00  0.00    +0.277 C 
ENDBRANCH  15  17
BRANCH  14  19
ATOM     19  O   LIG A   1       0.191  -1.141   5.378  0.00  0.00    -0.422 OA
BRANCH  19  20
ATOM     20  C   LIG A   1      -0.545  -2.297   5.616  0.00  0.00    +0.309 C 
ATOM     21  C   LIG A   1      -1.748  -1.941   6.441  0.00  0.00    +0.136 C 
ATOM     22  O   LIG A   1      -0.252  -3.425   5.244  0.00  0.00    -0.251 OA
ENDBRANCH  19  20
ENDBRANCH  14  19
ENDBRANCH   5  11
BRANCH   1  24
ATOM     23  C   LIG A   1      -1.694  -2.530  -4.914  0.00  0.00    +0.277 C 
ATOM     24  O   LIG A   1      -0.657  -3.122  -4.121  0.00  0.00    -0.491 OA
ENDBRANCH   1  24
BRANCH   2  25
ATOM     25  O   LIG A   1       0.363  -4.248  -1.804  0.00  0.00    -0.491 OA
ATOM     26  C   LIG A   1       0.321  -4.670  -0.435  0.00  0.00    +0.277 C 
ENDBRANCH   2  25
BRANCH   6  27
ATOM     27  C   LIG A   1       2.827   2.303  -0.676  0.00  0.00    +0.237 C 
BRANCH  27  28
ATOM     28  O   LIG A   1       2.752   3.716  -0.905  0.00  0.00    -0.465 OA
BRANCH  28  29
ATOM     29  C   LIG A   1       3.536   4.503  -0.124  0.00  0.00    +0.304 C 
ATOM     30  C   LIG A   1       3.349   5.944  -0.485  0.00  0.00    +0.136 C 
ATOM     31  O   LIG A   1       4.278   4.114   0.768  0.00  0.00    -0.251 OA
ENDBRANCH  28  29
ENDBRANCH  27  28
ENDBRANCH   6  27
BRANCH   7  32
ATOM     32  C   LIG A   1      -1.080   2.025  -0.694  0.00  0.00    +0.236 C 
BRANCH  32  33
ATOM     33  O   LIG A   1      -2.094   2.370  -1.657  0.00  0.00    -0.465 OA
BRANCH  33  34
ATOM     34  C   LIG A   1      -3.042   1.438  -1.909  0.00  0.00    +0.304 C 
ATOM     35  C   LIG A   1      -4.120   1.964  -2.796  0.00  0.00    +0.136 C 
ATOM     36  O   LIG A   1      -3.039   0.279  -1.460  0.00  0.00    -0.251 OA
ENDBRANCH  33  34
ENDBRANCH  32  33
ENDBRANCH   7  32
TORSDOF 12
