REMARK  Name = NuBBE_1235
REMARK  7 active torsions:
REMARK  status: ('A' for Active; 'I' for Inactive)
REMARK    1  A    between atoms: C_1  and  N_2
REMARK    2  A    between atoms: C_5  and  O_6
REMARK    3  A    between atoms: O_6  and  C_7
REMARK    4  A    between atoms: C_8  and  O_9
REMARK    5  A    between atoms: O_9  and  C_10
REMARK    6  A    between atoms: C_11  and  O_12
REMARK    7  A    between atoms: O_12  and  C_13
REMARK                            x       y       z     vdW  Elec       q    Type
REMARK                         _______ _______ _______ _____ _____    ______ ____
ROOT
ATOM      1  C   LIG A   1      -2.417   2.092  -0.172  0.00  0.00    +0.149 C 
ATOM      2  N   LIG A   1      -0.988   1.774  -0.186  0.00  0.00    -0.343 N 
ATOM      3  C   LIG A   1      -0.571   0.424  -0.166  0.00  0.00    +0.060 A 
ATOM      4  C   LIG A   1       0.750   0.071  -0.523  0.00  0.00    +0.091 A 
ATOM      5  C   LIG A   1       1.199  -1.276  -0.451  0.00  0.00    +0.178 A 
ATOM      6  C   LIG A   1       0.301  -2.277   0.001  0.00  0.00    +0.204 A 
ATOM      7  C   LIG A   1      -1.027  -1.935   0.310  0.00  0.00    +0.167 A 
ATOM      8  C   LIG A   1      -1.430  -0.598   0.243  0.00  0.00    +0.076 A 
ATOM      9  C   LIG A   1      -0.057   2.826  -0.144  0.00  0.00    +0.053 A 
ATOM     10  C   LIG A   1      -0.363   4.117   0.317  0.00  0.00    +0.026 A 
ATOM     11  C   LIG A   1       0.617   5.113   0.374  0.00  0.00    +0.002 A 
ATOM     12  C   LIG A   1       1.919   4.837  -0.039  0.00  0.00    +0.001 A 
ATOM     13  C   LIG A   1       2.244   3.566  -0.511  0.00  0.00    +0.014 A 
ATOM     14  C   LIG A   1       1.263   2.568  -0.544  0.00  0.00    +0.046 A 
ATOM     15  C   LIG A   1       1.582   1.200  -1.030  0.00  0.00    +0.201 A 
ATOM     16  O   LIG A   1       2.469   1.050  -1.879  0.00  0.00    -0.286 OA
ENDROOT
BRANCH   5  17
ATOM     17  O   LIG A   1       2.522  -1.513  -0.766  0.00  0.00    -0.491 OA
ATOM     18  C   LIG A   1       2.895  -2.838  -1.150  0.00  0.00    +0.277 C 
ENDBRANCH   5  17
BRANCH   6  19
ATOM     19  O   LIG A   1       0.753  -3.571   0.015  0.00  0.00    -0.488 OA
ATOM     20  C   LIG A   1       0.339  -4.449   1.050  0.00  0.00    +0.277 C 
ENDBRANCH   6  19
BRANCH   7  21
ATOM     21  O   LIG A   1      -1.893  -2.948   0.630  0.00  0.00    -0.491 OA
ATOM     22  C   LIG A   1      -3.238  -2.594   0.919  0.00  0.00    +0.277 C 
ENDBRANCH   7  21
TORSDOF 3
