@<TRIPOS>MOLECULE
NuBBE_1062
 80 84 0 0 0
SMALL
GASTEIGER

@<TRIPOS>ATOM
      1 C           4.4121   -2.1150    1.7888 C.3     1  LIG1       -0.0572
      2 C           3.7788   -1.4364    0.5356 C.3     1  LIG1       -0.0056
      3 C           2.9240   -2.5362   -0.1179 C.3     1  LIG1       -0.0572
      4 C           4.9612   -0.8590   -0.2873 C.3     1  LIG1        0.0606
      5 H           5.6154   -0.2858    0.3834 H       1  LIG1        0.0599
      6 O           5.7575   -1.8938   -0.8460 O.3     1  LIG1       -0.3912
      7 C           4.5348    0.1245   -1.3728 C.3     1  LIG1       -0.0258
      8 C           3.6432    1.3222   -0.8122 C.3     1  LIG1       -0.0443
      9 C           2.3081    0.7457   -0.1665 C.3     1  LIG1       -0.0182
     10 C           1.7149    0.2481   -1.5217 C.3     1  LIG1       -0.0586
     11 C           2.9448   -0.1993    0.9335 C.3     1  LIG1       -0.0274
     12 C           2.0676   -0.4083    2.1264 C.3     1  LIG1       -0.0486
     13 C           1.7166    0.9725    2.6384 C.3     1  LIG1       -0.0459
     14 C           0.2784    1.4658    2.1329 C.3     1  LIG1       -0.0127
     15 C          -1.1787    1.0139    1.5646 C.3     1  LIG1       -0.0043
     16 C          -1.2937   -0.5613    1.4005 C.3     1  LIG1       -0.0429
     17 C          -0.8219   -0.9707   -0.0140 C.3     1  LIG1       -0.0463
     18 C          -1.7356   -0.4139   -1.1569 C.3     1  LIG1       -0.0255
     19 C          -1.0888    0.2331   -2.4134 C.3     1  LIG1       -0.0590
     20 C          -2.5965    0.6828   -0.4972 C.3     1  LIG1       -0.0131
     21 C          -3.7654    1.1187   -1.3592 C.3     1  LIG1       -0.0408
     22 C          -4.5837   -0.1576   -1.7756 C.3     1  LIG1       -0.0343
     23 C          -5.7313    0.3017   -2.6706 C.3     1  LIG1       -0.0598
     24 C          -5.1729   -0.9069   -0.5493 C.3     1  LIG1       -0.0598
     25 C          -3.7081   -1.1668   -2.5531 C.3     1  LIG1       -0.0473
     26 C          -2.5052   -1.6122   -1.7322 C.3     1  LIG1       -0.0466
     27 C          -2.3567    1.6765    2.4469 C.3     1  LIG1       -0.0553
     28 C          -1.6217    1.6175    0.2304 C.2     1  LIG1       -0.0562
     29 C          -1.1385    2.7965   -0.1982 C.2     1  LIG1       -0.0188
     30 C          -0.0894    0.7332    3.6120 C.3     1  LIG1       -0.0581
     31 C           1.1923    1.8307    0.6333 C.3     1  LIG1        0.0333
     32 C           0.3536    2.6857   -0.3401 C.2     1  LIG1        0.1602
     33 O           0.8918    3.3768   -1.2371 O.2     1  LIG1       -0.2923
     34 H           5.1024   -2.9147    1.5051 H       1  LIG1        0.0236
     35 H           3.6599   -2.5811    2.4361 H       1  LIG1        0.0236
     36 H           4.9657   -1.3859    2.3917 H       1  LIG1        0.0236
     37 H           3.5382   -3.3586   -0.4958 H       1  LIG1        0.0236
     38 H           2.3137   -2.1916   -0.9461 H       1  LIG1        0.0236
     39 H           2.2291   -2.9712    0.6160 H       1  LIG1        0.0236
     40 H           6.4287   -2.1194   -0.1773 H       1  LIG1        0.2098
     41 H           4.0523   -0.4911   -2.1415 H       1  LIG1        0.0290
     42 H           5.4086    0.5226   -1.8979 H       1  LIG1        0.0290
     43 H           3.4237    2.0133   -1.6373 H       1  LIG1        0.0272
     44 H           4.2260    1.8919   -0.0823 H       1  LIG1        0.0272
     45 H           1.1767   -0.6872   -1.5233 H       1  LIG1        0.0235
     46 H           2.3855    0.1111   -2.3729 H       1  LIG1        0.0235
     47 H           1.1549    1.0636   -1.9585 H       1  LIG1        0.0235
     48 H           3.7221    0.4437    1.3823 H       1  LIG1        0.0312
     49 H           2.5934   -0.9005    2.9470 H       1  LIG1        0.0268
     50 H           1.2293   -1.0518    1.8867 H       1  LIG1        0.0268
     51 H           2.4993    1.7208    2.4333 H       1  LIG1        0.0271
     52 H           1.9202    1.0161    3.7281 H       1  LIG1        0.0271
     53 H          -2.3111   -0.9258    1.5854 H       1  LIG1        0.0274
     54 H          -0.7156   -1.1170    2.1381 H       1  LIG1        0.0274
     55 H          -0.6908   -2.0558   -0.0769 H       1  LIG1        0.0271
     56 H           0.1634   -0.5562   -0.0585 H       1  LIG1        0.0271
     57 H          -0.6367    1.1938   -2.2016 H       1  LIG1        0.0235
     58 H          -1.8220    0.5182   -3.1735 H       1  LIG1        0.0235
     59 H          -0.3878   -0.4298   -2.9242 H       1  LIG1        0.0235
     60 H          -3.1675    0.2475    0.3217 H       1  LIG1        0.0351
     61 H          -3.4309    1.6893   -2.2316 H       1  LIG1        0.0276
     62 H          -4.4085    1.7931   -0.7781 H       1  LIG1        0.0276
     63 H          -6.4248    0.9336   -2.1075 H       1  LIG1        0.0235
     64 H          -6.2865   -0.5541   -3.0662 H       1  LIG1        0.0235
     65 H          -5.3520    0.8823   -3.5181 H       1  LIG1        0.0235
     66 H          -5.7585   -0.2391    0.0866 H       1  LIG1        0.0235
     67 H          -4.4086   -1.3601    0.0931 H       1  LIG1        0.0235
     68 H          -5.8090   -1.7381   -0.8721 H       1  LIG1        0.0235
     69 H          -3.3797   -0.7300   -3.5035 H       1  LIG1        0.0271
     70 H          -4.2807   -2.0581   -2.8329 H       1  LIG1        0.0271
     71 H          -1.8312   -2.2102   -2.3644 H       1  LIG1        0.0271
     72 H          -2.8156   -2.2953   -0.9347 H       1  LIG1        0.0271
     73 H          -2.1926    1.7726    3.5232 H       1  LIG1        0.0238
     74 H          -3.3003    1.1314    2.3304 H       1  LIG1        0.0238
     75 H          -2.5485    2.7198    2.1566 H       1  LIG1        0.0238
     76 H          -1.1461    3.6277    0.5214 H       1  LIG1        0.0652
     77 H           0.0141    1.4561    4.4312 H       1  LIG1        0.0236
     78 H           0.4230   -0.2140    3.8653 H       1  LIG1        0.0236
     79 H          -1.0979    0.3196    3.7347 H       1  LIG1        0.0236
     80 H           1.8654    2.6459    0.9573 H       1  LIG1        0.0392
@<TRIPOS>BOND
     1     1     2    1
     2     2     3    1
     3     2     4    1
     4     4     5    1
     5     4     6    1
     6     4     7    1
     7     7     8    1
     8     8     9    1
     9     9    10    1
    10     9    11    1
    11     2    11    1
    12    11    12    1
    13    12    13    1
    14    13    14    1
    15    14    15    1
    16    15    16    1
    17    16    17    1
    18    17    18    1
    19    18    19    1
    20    18    20    1
    21    20    21    1
    22    21    22    1
    23    22    23    1
    24    22    24    1
    25    22    25    1
    26    25    26    1
    27    18    26    1
    28    15    27    1
    29    15    28    1
    30    20    28    1
    31    28    29    2
    32    14    30    1
    33    14    31    1
    34     9    31    1
    35    31    32    1
    36    29    32    1
    37    32    33    2
    38     1    34    1
    39     1    35    1
    40     1    36    1
    41     3    37    1
    42     3    38    1
    43     3    39    1
    44     6    40    1
    45     7    41    1
    46     7    42    1
    47     8    43    1
    48     8    44    1
    49    10    45    1
    50    10    46    1
    51    10    47    1
    52    11    48    1
    53    12    49    1
    54    12    50    1
    55    13    51    1
    56    13    52    1
    57    16    53    1
    58    16    54    1
    59    17    55    1
    60    17    56    1
    61    19    57    1
    62    19    58    1
    63    19    59    1
    64    20    60    1
    65    21    61    1
    66    21    62    1
    67    23    63    1
    68    23    64    1
    69    23    65    1
    70    24    66    1
    71    24    67    1
    72    24    68    1
    73    25    69    1
    74    25    70    1
    75    26    71    1
    76    26    72    1
    77    27    73    1
    78    27    74    1
    79    27    75    1
    80    29    76    1
    81    30    77    1
    82    30    78    1
    83    30    79    1
    84    31    80    1
