REMARK  Name = NuBBE_200
REMARK  9 active torsions:
REMARK  status: ('A' for Active; 'I' for Inactive)
REMARK    1  A    between atoms: O_1  and  C_2
REMARK    2  A    between atoms: C_4  and  O_5
REMARK    3  A    between atoms: C_9  and  C_10
REMARK    4  A    between atoms: C_12  and  C_13
REMARK    5  A    between atoms: C_14  and  O_15
REMARK    6  A    between atoms: C_17  and  O_18
REMARK    7  A    between atoms: C_22  and  C_23
REMARK    8  A    between atoms: C_26  and  O_27
REMARK    9  A    between atoms: C_33  and  O_34
REMARK                            x       y       z     vdW  Elec       q    Type
REMARK                         _______ _______ _______ _____ _____    ______ ____
ROOT
ATOM      1  C   LIG A   1       1.858  -1.176  -0.058  0.00  0.00    +0.018 A 
ATOM      2  C   LIG A   1       1.627   0.216  -0.115  0.00  0.00    +0.024 A 
ATOM      3  C   LIG A   1       2.522   1.126  -0.735  0.00  0.00    +0.031 A 
ATOM      4  C   LIG A   1       3.699   0.529  -1.248  0.00  0.00    +0.125 A 
ATOM      5  C   LIG A   1       3.975  -0.839  -1.129  0.00  0.00    +0.046 A 
ATOM      6  C   LIG A   1       3.054  -1.694  -0.546  0.00  0.00    +0.015 A 
ENDROOT
BRANCH   1  13
ATOM      7  C   LIG A   1      -0.287  -4.359   4.539  0.00  0.00    +0.124 A 
ATOM      8  C   LIG A   1      -1.251  -5.128   3.894  0.00  0.00    +0.091 A 
ATOM      9  C   LIG A   1      -1.476  -4.940   2.525  0.00  0.00    +0.135 A 
ATOM     10  C   LIG A   1      -0.741  -3.982   1.808  0.00  0.00    +0.105 A 
ATOM     11  C   LIG A   1      -0.942  -3.711   0.363  0.00  0.00    +0.197 A 
ATOM     12  C   LIG A   1      -0.012  -2.744  -0.251  0.00  0.00    +0.098 A 
ATOM     13  C   LIG A   1       0.875  -2.103   0.514  0.00  0.00    +0.139 A 
ATOM     14  O   LIG A   1       1.011  -2.283   1.872  0.00  0.00    -0.454 OA
ATOM     15  O   LIG A   1      -1.823  -4.212  -0.323  0.00  0.00    -0.287 OA
ATOM     16  C   LIG A   1       0.230  -3.234   2.479  0.00  0.00    +0.146 A 
ATOM     17  C   LIG A   1       0.459  -3.420   3.842  0.00  0.00    +0.092 A 
BRANCH   7  18
ATOM     18  O   LIG A   1      -0.038  -4.493   5.872  0.00  0.00    -0.506 OA
ATOM     19  H   LIG A   1      -0.659  -5.134   6.256  0.00  0.00    +0.292 HD
ENDBRANCH   7  18
BRANCH   9  20
ATOM     20  O   LIG A   1      -2.418  -5.709   1.903  0.00  0.00    -0.506 OA
ATOM     21  H   LIG A   1      -2.794  -6.358   2.519  0.00  0.00    +0.292 HD
ENDBRANCH   9  20
ENDBRANCH   1  13
BRANCH   3  22
ATOM     22  C   LIG A   1       2.186   2.608  -0.810  0.00  0.00    +0.070 A 
ATOM     23  C   LIG A   1       3.169   3.620  -0.651  0.00  0.00    +0.132 A 
ATOM     24  C   LIG A   1       2.881   4.989  -0.699  0.00  0.00    +0.092 A 
ATOM     25  C   LIG A   1       1.575   5.413  -0.884  0.00  0.00    +0.135 A 
ATOM     26  C   LIG A   1       0.554   4.473  -1.036  0.00  0.00    +0.106 A 
ATOM     27  C   LIG A   1       0.855   3.091  -1.018  0.00  0.00    +0.154 A 
ATOM     28  O   LIG A   1      -0.145   2.156  -1.231  0.00  0.00    -0.454 OA
ATOM     29  C   LIG A   1      -1.462   2.565  -1.368  0.00  0.00    +0.139 A 
ATOM     30  C   LIG A   1      -1.852   3.842  -1.351  0.00  0.00    +0.098 A 
ATOM     31  C   LIG A   1      -0.855   4.904  -1.203  0.00  0.00    +0.197 A 
ATOM     32  O   LIG A   1      -1.237   6.067  -1.211  0.00  0.00    -0.287 OA
BRANCH  29  33
ATOM     33  C   LIG A   1      -2.446   1.471  -1.526  0.00  0.00    +0.018 A 
ATOM     34  C   LIG A   1      -2.244   0.236  -0.891  0.00  0.00    +0.015 A 
ATOM     35  C   LIG A   1      -3.153  -0.815  -1.045  0.00  0.00    +0.046 A 
ATOM     36  C   LIG A   1      -4.281  -0.633  -1.832  0.00  0.00    +0.117 A 
ATOM     37  C   LIG A   1      -4.512   0.578  -2.467  0.00  0.00    +0.046 A 
ATOM     38  C   LIG A   1      -3.596   1.623  -2.320  0.00  0.00    +0.015 A 
BRANCH  36  39
ATOM     39  O   LIG A   1      -5.190  -1.633  -2.002  0.00  0.00    -0.507 OA
ATOM     40  H   LIG A   1      -4.872  -2.420  -1.525  0.00  0.00    +0.292 HD
ENDBRANCH  36  39
ENDBRANCH  29  33
BRANCH  23  41
ATOM     41  O   LIG A   1       4.488   3.280  -0.461  0.00  0.00    -0.506 OA
ATOM     42  H   LIG A   1       5.027   4.085  -0.347  0.00  0.00    +0.292 HD
ENDBRANCH  23  41
BRANCH  25  43
ATOM     43  O   LIG A   1       1.320   6.753  -0.923  0.00  0.00    -0.506 OA
ATOM     44  H   LIG A   1       2.123   7.276  -0.781  0.00  0.00    +0.292 HD
ENDBRANCH  25  43
ENDBRANCH   3  22
BRANCH   4  45
ATOM     45  O   LIG A   1       4.676   1.210  -1.924  0.00  0.00    -0.506 OA
ATOM     46  H   LIG A   1       4.665   2.119  -1.572  0.00  0.00    +0.292 HD
ENDBRANCH   4  45
TORSDOF 9
