@<TRIPOS>MOLECULE
NuBBE_369
 65 69 0 0 0
SMALL
GASTEIGER

@<TRIPOS>ATOM
      1 O           3.4326   -7.7570    2.9038 O.3     1  LIG1       -0.5032
      2 C           2.7505   -6.7595    2.2655 C.ar    1  LIG1        0.1618
      3 C           3.4243   -5.6300    1.8009 C.ar    1  LIG1        0.0265
      4 C           2.7099   -4.6222    1.1482 C.ar    1  LIG1        0.1430
      5 O           3.4341   -3.5403    0.7088 O.2     1  LIG1       -0.4542
      6 C           2.7653   -2.5169    0.0794 C.ar    1  LIG1        0.1463
      7 C           3.5418   -1.4375   -0.3396 C.ar    1  LIG1        0.0235
      8 C           2.9418   -0.3481   -0.9844 C.ar    1  LIG1        0.1296
      9 C           1.5580   -0.2996   -1.2277 C.ar    1  LIG1        0.0684
     10 C           0.8957    0.8823   -1.9420 C.3     1  LIG1        0.1303
     11 H          -0.1480    0.6182   -2.1166 H       1  LIG1        0.0687
     12 O           1.4686    1.0039   -3.2597 O.3     1  LIG1       -0.3598
     13 C           0.8624    2.0614   -4.0121 C.3     1  LIG1        0.1109
     14 H          -0.2309    1.9444   -4.0183 H       1  LIG1        0.0646
     15 C           1.2276    3.4137   -3.3841 C.3     1  LIG1        0.1128
     16 H           2.3152    3.5424   -3.3313 H       1  LIG1        0.0647
     17 C           0.6353    3.4650   -1.9788 C.3     1  LIG1        0.1231
     18 H          -0.4469    3.6060   -2.0611 H       1  LIG1        0.0658
     19 C           0.9858    2.2164   -1.1411 C.3     1  LIG1        0.1618
     20 H           2.0104    2.3655   -0.7841 H       1  LIG1        0.0791
     21 O           0.1811    2.2008    0.0673 O.3     1  LIG1       -0.4526
     22 C          -1.1590    2.0835   -0.0930 C.2     1  LIG1        0.3324
     23 C          -1.7904    2.3496    1.2049 C.2     1  LIG1        0.0231
     24 C          -3.0600    1.9611    1.3742 C.2     1  LIG1       -0.0478
     25 C          -3.8440    2.2165    2.5822 C.ar    1  LIG1       -0.0246
     26 C          -3.6434    3.3497    3.3827 C.ar    1  LIG1       -0.0511
     27 C          -4.4458    3.5758    4.5016 C.ar    1  LIG1       -0.0196
     28 C          -5.4572    2.6725    4.8090 C.ar    1  LIG1        0.1169
     29 C          -5.6841    1.5559    4.0150 C.ar    1  LIG1       -0.0196
     30 C          -4.8796    1.3296    2.8996 C.ar    1  LIG1       -0.0511
     31 O          -6.2621    2.8552    5.8930 O.3     1  LIG1       -0.5068
     32 O          -1.7636    1.8626   -1.1242 O.2     1  LIG1       -0.2456
     33 O           1.0952    4.6599   -1.3159 O.3     1  LIG1       -0.3854
     34 O           0.7025    4.5402   -4.1034 O.3     1  LIG1       -0.3865
     35 C           1.3403    1.9576   -5.4615 C.3     1  LIG1        0.0729
     36 O           0.7717    2.9858   -6.2711 O.3     1  LIG1       -0.3924
     37 C           0.7940   -1.4046   -0.7968 C.ar    1  LIG1        0.1405
     38 O          -0.5607   -1.3840   -1.0211 O.3     1  LIG1       -0.5054
     39 O           3.7295    0.6960   -1.3848 O.3     1  LIG1       -0.5062
     40 C           1.3948   -2.5044   -0.1540 C.ar    1  LIG1        0.1064
     41 C           0.6139   -3.6732    0.2840 C.ar    1  LIG1        0.2038
     42 O          -0.5928   -3.7348    0.0745 O.2     1  LIG1       -0.2863
     43 C           1.3337   -4.7535    0.9710 C.ar    1  LIG1        0.0684
     44 C           0.6527   -5.8846    1.4350 C.ar    1  LIG1       -0.0022
     45 C           1.3706   -6.8866    2.0824 C.ar    1  LIG1        0.1591
     46 O           0.7356   -8.0046    2.5443 O.3     1  LIG1       -0.5033
     47 H           4.3757   -7.5355    2.9434 H       1  LIG1        0.2923
     48 H           4.4956   -5.5234    1.9393 H       1  LIG1        0.0692
     49 H           4.6130   -1.4581   -0.1585 H       1  LIG1        0.0691
     50 H          -1.2060    2.8780    1.9458 H       1  LIG1        0.0689
     51 H          -3.5702    1.4114    0.5836 H       1  LIG1        0.0626
     52 H          -2.8744    4.0783    3.1376 H       1  LIG1        0.0625
     53 H          -4.2723    4.4598    5.1063 H       1  LIG1        0.0654
     54 H          -6.4854    0.8647    4.2576 H       1  LIG1        0.0654
     55 H          -5.0673    0.4545    2.2811 H       1  LIG1        0.0625
     56 H          -5.9705    3.6560    6.3581 H       1  LIG1        0.2921
     57 H           0.9238    5.3802   -1.9560 H       1  LIG1        0.2101
     58 H           0.9129    4.3942   -5.0512 H       1  LIG1        0.2100
     59 H           1.0735    0.9836   -5.8858 H       1  LIG1        0.0584
     60 H           2.4307    2.0407   -5.5122 H       1  LIG1        0.0584
     61 H          -0.1740    2.7704   -6.3819 H       1  LIG1        0.2095
     62 H          -0.9457   -2.2366   -0.7141 H       1  LIG1        0.2922
     63 H           4.6634    0.4762   -1.2303 H       1  LIG1        0.2922
     64 H          -0.4201   -5.9693    1.2872 H       1  LIG1        0.0663
     65 H          -0.2093   -7.9553    2.3293 H       1  LIG1        0.2923
@<TRIPOS>BOND
     1     1     2    1
     2     2     3   ar
     3     3     4   ar
     4     4     5   ar
     5     5     6   ar
     6     6     7   ar
     7     7     8   ar
     8     8     9   ar
     9    10    12    1
    10    12    13    1
    11    13    14    1
    12    13    15    1
    13    15    17    1
    14    17    18    1
    15    17    19    1
    16    10    19    1
    17    21    22    1
    18    22    23    1
    19    23    24    2
    20    24    25    1
    21    25    26   ar
    22    26    27   ar
    23    27    28   ar
    24    28    29   ar
    25    29    30   ar
    26    25    30   ar
    27    28    31    1
    28    22    32    2
    29    17    33    1
    30    13    35    1
    31    35    36    1
    32     9    37   ar
    33    37    38    1
    34     8    39    1
    35     6    40   ar
    36    37    40   ar
    37    40    41   ar
    38    41    42    2
    39     4    43   ar
    40    41    43   ar
    41    43    44   ar
    42    44    45   ar
    43     2    45   ar
    44    45    46    1
    45    10    11    1
    46    10     9    1
    47    15    34    1
    48    15    16    1
    49    19    21    1
    50    19    20    1
    51     1    47    1
    52     3    48    1
    53     7    49    1
    54    23    50    1
    55    24    51    1
    56    26    52    1
    57    27    53    1
    58    29    54    1
    59    30    55    1
    60    31    56    1
    61    33    57    1
    62    34    58    1
    63    35    59    1
    64    35    60    1
    65    36    61    1
    66    38    62    1
    67    39    63    1
    68    44    64    1
    69    46    65    1
