@<TRIPOS>MOLECULE
NuBBE_1631
 58 59 0 0 0
SMALL
GASTEIGER

@<TRIPOS>ATOM
      1 C          -1.2530    1.9470    3.2109 C.3     1  LIG1       -0.0212
      2 C          -0.9225    1.8346    1.7535 C.2     1  LIG1       -0.0841
      3 C          -1.7490    1.4923    0.7449 C.2     1  LIG1       -0.0762
      4 C          -1.2449    1.3034   -0.6615 C.3     1  LIG1       -0.0286
      5 C           0.2157    0.8879   -0.7435 C.3     1  LIG1       -0.0308
      6 C           0.6074    0.6584   -2.1519 C.2     1  LIG1       -0.0847
      7 C           0.7748    1.5205   -3.1725 C.2     1  LIG1       -0.0762
      8 C           1.2667    1.0985   -4.5578 C.3     1  LIG1       -0.0286
      9 C           1.0048   -0.3579   -4.9977 C.3     1  LIG1       -0.0308
     10 C           1.7425   -1.3846   -4.1772 C.2     1  LIG1       -0.0850
     11 C           2.0815   -2.6474   -4.4546 C.2     1  LIG1       -0.0796
     12 C           1.9606   -3.2678   -5.8012 C.3     1  LIG1       -0.0440
     13 C           2.6495   -3.5093   -3.3556 C.3     1  LIG1       -0.0440
     14 C           0.4478    2.9859   -3.0457 C.3     1  LIG1       -0.0438
     15 C          -3.2210    1.2191    0.8910 C.3     1  LIG1       -0.0438
     16 C          -0.9922    0.6455    4.0136 C.3     1  LIG1        0.0500
     17 C           0.4750    0.2138    3.9346 C.3     1  LIG1        0.0015
     18 C           0.6273   -1.0338    4.7933 C.3     1  LIG1        0.1226
     19 O          -0.1997   -2.1103    4.3247 O.3     1  LIG1       -0.4571
     20 C          -1.4973   -1.9003    3.9852 C.2     1  LIG1        0.3086
     21 O          -2.2850   -2.8095    3.9289 O.2     1  LIG1       -0.2508
     22 C          -1.8617   -0.5075    3.5034 C.3     1  LIG1        0.0580
     23 C           0.2398   -0.7623    6.2175 C.2     1  LIG1       -0.0406
     24 C          -0.6676    0.1639    6.5501 C.2     1  LIG1       -0.0191
     25 C          -1.3665    0.9264    5.4809 C.2     1  LIG1        0.1629
     26 O          -2.2538    1.7077    5.8061 O.2     1  LIG1       -0.2921
     27 H          -2.2864    2.2859    3.3351 H       1  LIG1        0.0317
     28 H          -0.6366    2.7603    3.6193 H       1  LIG1        0.0317
     29 H           0.1257    2.0388    1.5447 H       1  LIG1        0.0572
     30 H          -1.4231    2.2331   -1.2068 H       1  LIG1        0.0313
     31 H          -1.8440    0.5350   -1.1724 H       1  LIG1        0.0313
     32 H           0.3460   -0.0670   -0.2069 H       1  LIG1        0.0310
     33 H           0.9248    1.5861   -0.2902 H       1  LIG1        0.0310
     34 H           0.7321   -0.4020   -2.2645 H       1  LIG1        0.0572
     35 H           2.3428    1.3084   -4.6247 H       1  LIG1        0.0313
     36 H           0.7868    1.7469   -5.3041 H       1  LIG1        0.0313
     37 H           1.2858   -0.4493   -6.0512 H       1  LIG1        0.0310
     38 H          -0.0776   -0.5405   -4.9355 H       1  LIG1        0.0310
     39 H           2.0691   -1.0798   -3.1935 H       1  LIG1        0.0572
     40 H           1.6075   -2.5611   -6.5563 H       1  LIG1        0.0274
     41 H           1.2769   -4.1175   -5.7743 H       1  LIG1        0.0274
     42 H           2.9543   -3.6047   -6.1129 H       1  LIG1        0.0274
     43 H           2.7095   -2.9819   -2.3935 H       1  LIG1        0.0274
     44 H           3.6579   -3.8367   -3.6139 H       1  LIG1        0.0274
     45 H           2.0090   -4.3823   -3.1922 H       1  LIG1        0.0274
     46 H           0.1778    3.2752   -2.0277 H       1  LIG1        0.0274
     47 H          -0.4093    3.2208   -3.6887 H       1  LIG1        0.0274
     48 H           1.2939    3.6124   -3.3349 H       1  LIG1        0.0274
     49 H          -3.3955    0.1421    0.9834 H       1  LIG1        0.0274
     50 H          -3.7685    1.5683    0.0088 H       1  LIG1        0.0274
     51 H          -3.6532    1.7229    1.7565 H       1  LIG1        0.0274
     52 H           1.1401    1.0091    4.2932 H       1  LIG1        0.0314
     53 H           0.7600   -0.0200    2.9016 H       1  LIG1        0.0314
     54 H           1.6673   -1.3725    4.7524 H       1  LIG1        0.0779
     55 H          -2.9141   -0.3309    3.7516 H       1  LIG1        0.0387
     56 H          -1.7754   -0.6010    2.4189 H       1  LIG1        0.0387
     57 H           0.7056   -1.3702    6.9867 H       1  LIG1        0.0609
     58 H          -0.9681    0.3583    7.5727 H       1  LIG1        0.0650
@<TRIPOS>BOND
     1     1     2    1
     2     2     3    2
     3     3     4    1
     4     4     5    1
     5     5     6    1
     6     6     7    2
     7     7     8    1
     8     8     9    1
     9     9    10    1
    10    10    11    2
    11    11    12    1
    12    11    13    1
    13     7    14    1
    14     3    15    1
    15     1    16    1
    16    16    17    1
    17    17    18    1
    18    18    19    1
    19    19    20    1
    20    20    21    2
    21    20    22    1
    22    16    22    1
    23    18    23    1
    24    23    24    2
    25    24    25    1
    26    16    25    1
    27    25    26    2
    28     1    27    1
    29     1    28    1
    30     2    29    1
    31     4    30    1
    32     4    31    1
    33     5    32    1
    34     5    33    1
    35     6    34    1
    36     8    35    1
    37     8    36    1
    38     9    37    1
    39     9    38    1
    40    10    39    1
    41    12    40    1
    42    12    41    1
    43    12    42    1
    44    13    43    1
    45    13    44    1
    46    13    45    1
    47    14    46    1
    48    14    47    1
    49    14    48    1
    50    15    49    1
    51    15    50    1
    52    15    51    1
    53    17    52    1
    54    17    53    1
    55    18    54    1
    56    22    55    1
    57    22    56    1
    58    23    57    1
    59    24    58    1
