REMARK  Name = NuBBE_1376
REMARK  6 active torsions:
REMARK  status: ('A' for Active; 'I' for Inactive)
REMARK    1  A    between atoms: C_1  and  C_2
REMARK    2  A    between atoms: C_2  and  C_3
REMARK    3  A    between atoms: C_3  and  O_4
REMARK    4  A    between atoms: C_3  and  C_5
REMARK    5  A    between atoms: C_5  and  C_6
REMARK    6  A    between atoms: C_6  and  C_7
REMARK                            x       y       z     vdW  Elec       q    Type
REMARK                         _______ _______ _______ _____ _____    ______ ____
ROOT
ATOM      1  C   LIG A   1      -0.564  -0.122  -0.450  0.00  0.00    +0.114 C 
ENDROOT
BRANCH   1   3
ATOM      2  C   LIG A   1      -2.885  -1.131  -0.643  0.00  0.00    +0.006 C 
ATOM      3  C   LIG A   1      -1.637  -0.989   0.218  0.00  0.00    +0.028 C 
ENDBRANCH   1   3
BRANCH   1   4
ATOM      4  O   LIG A   1      -1.086   1.184  -0.687  0.00  0.00    -0.392 OA
ATOM      5  H   LIG A   1      -1.310   1.575   0.174  0.00  0.00    +0.210 HD
ENDBRANCH   1   4
BRANCH   1   6
ATOM      6  C   LIG A   1       0.694  -0.024   0.423  0.00  0.00    +0.031 C 
BRANCH   6   7
ATOM      7  C   LIG A   1       1.791   0.817  -0.236  0.00  0.00    -0.001 C 
ATOM      8  C   LIG A   1       3.032   0.900   0.638  0.00  0.00    +0.004 C 
ENDBRANCH   6   7
ENDBRANCH   1   6
TORSDOF 4
