REMARK  Name = NuBBE_248
REMARK  12 active torsions:
REMARK  status: ('A' for Active; 'I' for Inactive)
REMARK    1  A    between atoms: C_2  and  C_3
REMARK    2  A    between atoms: C_2  and  O_13
REMARK    3  A    between atoms: C_4  and  C_5
REMARK    4  A    between atoms: C_7  and  O_8
REMARK    5  A    between atoms: C_9  and  O_12
REMARK    6  A    between atoms: O_13  and  C_14
REMARK    7  A    between atoms: C_16  and  O_29
REMARK    8  A    between atoms: C_18  and  O_28
REMARK    9  A    between atoms: C_21  and  O_22
REMARK   10  A    between atoms: C_21  and  C_24
REMARK   11  A    between atoms: C_24  and  O_25
REMARK   12  A    between atoms: O_25  and  C_26
REMARK                            x       y       z     vdW  Elec       q    Type
REMARK                         _______ _______ _______ _____ _____    ______ ____
ROOT
ATOM      1  C   LIG A   1       1.659   1.173   0.303  0.00  0.00    +0.211 C 
ATOM      2  C   LIG A   1       2.288  -0.229   0.215  0.00  0.00    +0.184 C 
ATOM      3  C   LIG A   1       2.255  -0.761  -1.221  0.00  0.00    +0.150 C 
ATOM      4  C   LIG A   1       3.033   0.160  -2.158  0.00  0.00    +0.080 C 
ATOM      5  C   LIG A   1       2.534   1.609  -2.112  0.00  0.00    +0.168 C 
ATOM      6  C   LIG A   1       2.364   2.133  -0.673  0.00  0.00    +0.093 C 
ENDROOT
BRANCH   5   7
ATOM      7  O   LIG A   1       3.558   2.434  -2.707  0.00  0.00    -0.377 OA
ATOM      8  H   LIG A   1       3.604   2.189  -3.651  0.00  0.00    +0.211 HD
ENDBRANCH   5   7
BRANCH   5   9
ATOM      9  C   LIG A   1       1.247   1.700  -2.975  0.00  0.00    +0.339 C 
ATOM     10  O   LIG A   1       0.115   1.407  -2.612  0.00  0.00    -0.248 OA
BRANCH   9  11
ATOM     11  O   LIG A   1       1.583   2.001  -4.269  0.00  0.00    -0.466 OA
ATOM     12  C   LIG A   1       0.528   1.800  -5.213  0.00  0.00    +0.280 C 
ENDBRANCH   9  11
ENDBRANCH   5   9
BRANCH   3  13
ATOM     13  O   LIG A   1       2.885  -2.048  -1.246  0.00  0.00    -0.389 OA
ATOM     14  H   LIG A   1       2.296  -2.663  -0.770  0.00  0.00    +0.210 HD
ENDBRANCH   3  13
BRANCH   2  15
ATOM     15  O   LIG A   1       3.656  -0.149   0.660  0.00  0.00    -0.386 OA
ATOM     16  H   LIG A   1       4.088  -0.969   0.349  0.00  0.00    +0.210 HD
ENDBRANCH   2  15
BRANCH   1  17
ATOM     17  O   LIG A   1       0.235   1.288   0.071  0.00  0.00    -0.456 OA
BRANCH  17  19
ATOM     18  O   LIG A   1      -0.309  -0.628   1.208  0.00  0.00    -0.246 OA
ATOM     19  C   LIG A   1      -0.599   0.447   0.723  0.00  0.00    +0.332 C 
BRANCH  19  20
ATOM     20  C   LIG A   1      -1.928   1.152   0.813  0.00  0.00    +0.092 C 
ATOM     21  C   LIG A   1      -3.038   0.780   1.488  0.00  0.00    +0.015 C 
BRANCH  21  22
ATOM     22  C   LIG A   1      -3.306  -0.427   2.290  0.00  0.00    -0.021 A 
ATOM     23  C   LIG A   1      -2.337  -1.032   3.098  0.00  0.00    +0.057 A 
ATOM     24  C   LIG A   1      -2.615  -2.222   3.758  0.00  0.00    +0.159 A 
ATOM     25  C   LIG A   1      -3.888  -2.770   3.710  0.00  0.00    +0.158 A 
ATOM     26  C   LIG A   1      -4.898  -2.140   3.002  0.00  0.00    +0.050 A 
ATOM     27  C   LIG A   1      -4.605  -0.971   2.287  0.00  0.00    +0.012 A 
BRANCH  24  28
ATOM     28  O   LIG A   1      -1.649  -2.890   4.460  0.00  0.00    -0.503 OA
ATOM     29  H   LIG A   1      -0.801  -2.443   4.286  0.00  0.00    +0.292 HD
ENDBRANCH  24  28
BRANCH  25  30
ATOM     30  O   LIG A   1      -4.145  -3.937   4.368  0.00  0.00    -0.503 OA
ATOM     31  H   LIG A   1      -3.283  -4.182   4.763  0.00  0.00    +0.292 HD
ENDBRANCH  25  30
ENDBRANCH  21  22
ENDBRANCH  19  20
ENDBRANCH  17  19
ENDBRANCH   1  17
TORSDOF 11
