@<TRIPOS>MOLECULE
NuBBE_2094
 43 43 0 0 0
SMALL
GASTEIGER

@<TRIPOS>ATOM
      1 C          -3.5184    6.0172   -1.4407 C.3     1  LIG1        0.0788
      2 O          -3.3881    5.8565   -0.0319 O.3     1  LIG1       -0.4951
      3 C          -2.2574    5.2161    0.4001 C.ar    1  LIG1        0.1201
      4 C          -1.2401    4.7297   -0.4201 C.ar    1  LIG1       -0.0197
      5 C          -0.1294    4.0882    0.1358 C.ar    1  LIG1       -0.0548
      6 C          -0.0115    3.9306    1.5232 C.ar    1  LIG1       -0.0434
      7 C           1.1967    3.2415    2.1131 C.3     1  LIG1       -0.0092
      8 C           1.0167    1.7534    2.2414 C.2     1  LIG1       -0.0797
      9 C           1.4097    0.8799    1.3014 C.2     1  LIG1       -0.0652
     10 C           1.2048   -0.5482    1.3991 C.2     1  LIG1       -0.0571
     11 C           1.5833   -1.3934    0.4286 C.2     1  LIG1        0.0001
     12 C           1.3390   -2.8578    0.5562 C.2     1  LIG1        0.2369
     13 O           0.7968   -3.3603    1.5243 O.2     1  LIG1       -0.2708
     14 N           1.7983   -3.5556   -0.5317 N.am    1  LIG1       -0.3116
     15 C           1.6928   -5.0007   -0.6350 C.3     1  LIG1        0.0142
     16 C           0.3682   -5.4656   -1.2604 C.3     1  LIG1       -0.0311
     17 C           0.1885   -4.9110   -2.6758 C.3     1  LIG1       -0.0612
     18 C           0.3156   -6.9949   -1.2881 C.3     1  LIG1       -0.0612
     19 C          -1.0398    4.4117    2.3425 C.ar    1  LIG1       -0.0548
     20 C          -2.1507    5.0532    1.7831 C.ar    1  LIG1       -0.0197
     21 H          -4.4804    6.4968   -1.6436 H       1  LIG1        0.0660
     22 H          -3.5188    5.0481   -1.9516 H       1  LIG1        0.0660
     23 H          -2.7301    6.6690   -1.8329 H       1  LIG1        0.0660
     24 H          -1.2771    4.8325   -1.4988 H       1  LIG1        0.0654
     25 H           0.6462    3.7153   -0.5288 H       1  LIG1        0.0622
     26 H           1.4192    3.6664    3.0999 H       1  LIG1        0.0356
     27 H           2.0774    3.4711    1.4987 H       1  LIG1        0.0356
     28 H           0.5506    1.4021    3.1597 H       1  LIG1        0.0575
     29 H           1.8791    1.2561    0.3947 H       1  LIG1        0.0615
     30 H           0.7090   -0.9318    2.2901 H       1  LIG1        0.0619
     31 H           2.0733   -1.0377   -0.4673 H       1  LIG1        0.0669
     32 H           2.1981   -3.0643   -1.3190 H       1  LIG1        0.1490
     33 H           1.8102   -5.4336    0.3649 H       1  LIG1        0.0465
     34 H           2.5406   -5.3366   -1.2438 H       1  LIG1        0.0465
     35 H          -0.4671   -5.1067   -0.6459 H       1  LIG1        0.0311
     36 H           1.0705   -5.1062   -3.2953 H       1  LIG1        0.0233
     37 H           0.0243   -3.8286   -2.6517 H       1  LIG1        0.0233
     38 H          -0.6781   -5.3636   -3.1696 H       1  LIG1        0.0233
     39 H           1.1293   -7.4107   -1.8925 H       1  LIG1        0.0233
     40 H          -0.6319   -7.3460   -1.7108 H       1  LIG1        0.0233
     41 H           0.4006   -7.4058   -0.2765 H       1  LIG1        0.0233
     42 H          -0.9823    4.2950    3.4220 H       1  LIG1        0.0622
     43 H          -2.9376    5.4283    2.4331 H       1  LIG1        0.0654
@<TRIPOS>BOND
     1     1     2    1
     2     2     3    1
     3     3     4   ar
     4     4     5   ar
     5     5     6   ar
     6     6     7    1
     7     7     8    1
     8     8     9    2
     9     9    10    1
    10    10    11    2
    11    11    12    1
    12    12    13    2
    13    12    14   am
    14    14    15    1
    15    15    16    1
    16    16    17    1
    17    16    18    1
    18     6    19   ar
    19    19    20   ar
    20     3    20   ar
    21     1    21    1
    22     1    22    1
    23     1    23    1
    24     4    24    1
    25     5    25    1
    26     7    26    1
    27     7    27    1
    28     8    28    1
    29     9    29    1
    30    10    30    1
    31    11    31    1
    32    14    32    1
    33    15    33    1
    34    15    34    1
    35    16    35    1
    36    17    36    1
    37    17    37    1
    38    17    38    1
    39    18    39    1
    40    18    40    1
    41    18    41    1
    42    19    42    1
    43    20    43    1
