REMARK  Name = NuBBE_1167
REMARK  13 active torsions:
REMARK  status: ('A' for Active; 'I' for Inactive)
REMARK    1  A    between atoms: O_1  and  C_2
REMARK    2  A    between atoms: C_4  and  O_31
REMARK    3  A    between atoms: C_6  and  C_29
REMARK    4  A    between atoms: C_9  and  O_14
REMARK    5  A    between atoms: C_11  and  O_13
REMARK    6  A    between atoms: O_14  and  C_15
REMARK    7  A    between atoms: C_15  and  C_27
REMARK    8  A    between atoms: C_17  and  C_25
REMARK    9  A    between atoms: C_19  and  O_24
REMARK   10  A    between atoms: C_21  and  O_23
REMARK   11  A    between atoms: C_25  and  O_26
REMARK   12  A    between atoms: C_27  and  O_28
REMARK   13  A    between atoms: C_29  and  O_30
REMARK                            x       y       z     vdW  Elec       q    Type
REMARK                         _______ _______ _______ _____ _____    ______ ____
ROOT
ATOM      1  O   LIG A   1      -0.509   0.538  -0.829  0.00  0.00    -0.312 OA
ENDROOT
BRANCH   1   6
ATOM      2  C   LIG A   1      -3.127  -0.167   1.794  0.00  0.00    +0.179 C 
ATOM      3  C   LIG A   1      -2.534   0.803   2.834  0.00  0.00    +0.177 C 
ATOM      4  C   LIG A   1      -1.003   0.846   2.767  0.00  0.00    +0.178 C 
ATOM      5  O   LIG A   1      -0.596   1.111   1.416  0.00  0.00    -0.340 OA
ATOM      6  C   LIG A   1      -0.967   0.117   0.461  0.00  0.00    +0.285 C 
ATOM      7  C   LIG A   1      -2.513   0.055   0.398  0.00  0.00    +0.201 C 
BRANCH   2   8
ATOM      8  O   LIG A   1      -2.927  -1.518   2.212  0.00  0.00    -0.386 OA
ATOM      9  H   LIG A   1      -3.543  -1.681   2.952  0.00  0.00    +0.210 HD
ENDBRANCH   2   8
BRANCH   7  10
ATOM     10  O   LIG A   1      -3.001   1.312  -0.126  0.00  0.00    -0.384 OA
ATOM     11  H   LIG A   1      -2.401   1.509  -0.878  0.00  0.00    +0.210 HD
ENDBRANCH   7  10
BRANCH   3  12
ATOM     12  O   LIG A   1      -3.035   2.127   2.590  0.00  0.00    -0.387 OA
ATOM     13  H   LIG A   1      -2.902   2.311   1.634  0.00  0.00    +0.210 HD
ENDBRANCH   3  12
BRANCH   4  14
ATOM     14  C   LIG A   1      -0.289  -0.381   3.359  0.00  0.00    +0.190 C 
BRANCH  14  15
ATOM     15  O   LIG A   1       1.130  -0.258   3.269  0.00  0.00    -0.392 OA
ATOM     16  H   LIG A   1       1.365   0.186   2.426  0.00  0.00    +0.209 HD
ENDBRANCH  14  15
ENDBRANCH   4  14
ENDBRANCH   1   6
BRANCH   1  17
ATOM     17  C   LIG A   1       0.909   0.521  -1.078  0.00  0.00    +0.225 C 
ATOM     18  O   LIG A   1       1.066   0.860  -2.485  0.00  0.00    -0.336 OA
ATOM     19  C   LIG A   1       1.935  -0.097  -3.111  0.00  0.00    +0.178 C 
ATOM     20  C   LIG A   1       2.611  -0.905  -2.001  0.00  0.00    +0.179 C 
ATOM     21  C   LIG A   1       1.579  -0.869  -0.882  0.00  0.00    +0.207 C 
BRANCH  21  22
ATOM     22  O   LIG A   1       0.662  -1.963  -1.068  0.00  0.00    -0.384 OA
ATOM     23  H   LIG A   1       1.167  -2.780  -0.898  0.00  0.00    +0.210 HD
ENDBRANCH  21  22
BRANCH  20  24
ATOM     24  O   LIG A   1       3.816  -0.267  -1.563  0.00  0.00    -0.386 OA
ATOM     25  H   LIG A   1       4.418  -0.224  -2.317  0.00  0.00    +0.210 HD
ENDBRANCH  20  24
BRANCH  19  26
ATOM     26  C   LIG A   1       1.087  -0.938  -4.068  0.00  0.00    +0.190 C 
BRANCH  26  27
ATOM     27  O   LIG A   1       1.882  -1.921  -4.719  0.00  0.00    -0.392 OA
ATOM     28  H   LIG A   1       1.286  -2.404  -5.319  0.00  0.00    +0.209 HD
ENDBRANCH  26  27
ENDBRANCH  19  26
BRANCH  17  29
ATOM     29  C   LIG A   1       1.671   1.661  -0.333  0.00  0.00    +0.223 C 
BRANCH  29  30
ATOM     30  O   LIG A   1       1.719   1.515   1.086  0.00  0.00    -0.390 OA
ATOM     31  H   LIG A   1       0.837   1.830   1.377  0.00  0.00    +0.210 HD
ENDBRANCH  29  30
ENDBRANCH  17  29
ENDBRANCH   1  17
TORSDOF 13
