REMARK  Name = NuBBE_2133
REMARK  6 active torsions:
REMARK  status: ('A' for Active; 'I' for Inactive)
REMARK    1  A    between atoms: C_1  and  C_2
REMARK    2  A    between atoms: C_2  and  C_3
REMARK    3  A    between atoms: C_3  and  C_4
REMARK    4  A    between atoms: C_4  and  C_5
REMARK    5  A    between atoms: C_5  and  C_6
REMARK    6  A    between atoms: C_6  and  C_7
REMARK                            x       y       z     vdW  Elec       q    Type
REMARK                         _______ _______ _______ _____ _____    ______ ____
ROOT
ATOM      1  C   LIG A   1       1.216  -0.713  -0.145  0.00  0.00    +0.003 C 
ENDROOT
BRANCH   1   2
ATOM      2  C   LIG A   1       1.637   0.053   1.139  0.00  0.00    -0.011 C 
ATOM      3  C   LIG A   1       0.576   0.923   1.827  0.00  0.00    +0.003 C 
ATOM      4  C   LIG A   1      -0.639   0.101   2.245  0.00  0.00    +0.000 C 
ATOM      5  C   LIG A   1      -0.215  -0.947   3.267  0.00  0.00    +0.000 C 
ATOM      6  C   LIG A   1       0.976  -1.789   2.798  0.00  0.00    +0.000 C 
ATOM      7  C   LIG A   1       2.124  -0.948   2.212  0.00  0.00    +0.003 C 
ENDBRANCH   1   2
BRANCH   1   8
ATOM      8  C   LIG A   1       0.817   0.109  -1.381  0.00  0.00    +0.000 C 
BRANCH   8   9
ATOM      9  C   LIG A   1      -0.471   0.912  -1.210  0.00  0.00    -0.000 C 
BRANCH   9  10
ATOM     10  C   LIG A   1      -0.933   1.694  -2.439  0.00  0.00    -0.000 C 
BRANCH  10  12
ATOM     11  C   LIG A   1      -2.438  -0.163  -3.290  0.00  0.00    +0.004 C 
ATOM     12  C   LIG A   1      -1.349   0.840  -3.630  0.00  0.00    -0.003 C 
ENDBRANCH  10  12
ENDBRANCH   9  10
ENDBRANCH   8   9
ENDBRANCH   1   8
TORSDOF 5
