REMARK  Name = NuBBE_1040
REMARK  13 active torsions:
REMARK  status: ('A' for Active; 'I' for Inactive)
REMARK    1  A    between atoms: C_5  and  C_6
REMARK    2  A    between atoms: C_15  and  C_16
REMARK    3  A    between atoms: C_17  and  C_33
REMARK    4  A    between atoms: C_20  and  C_21
REMARK    5  A    between atoms: C_21  and  C_23
REMARK    6  A    between atoms: C_21  and  C_24
REMARK    7  A    between atoms: C_24  and  C_25
REMARK    8  A    between atoms: C_25  and  C_26
REMARK    9  A    between atoms: C_27  and  C_28
REMARK   10  A    between atoms: C_27  and  O_29
REMARK   11  A    between atoms: O_29  and  C_30
REMARK   12  A    between atoms: C_35  and  C_36
REMARK   13  A    between atoms: C_35  and  C_37
REMARK                            x       y       z     vdW  Elec       q    Type
REMARK                         _______ _______ _______ _____ _____    ______ ____
ROOT
ATOM      1  O   LIG A   1      -4.945  -4.528   3.078  0.00  0.00    -0.297 OA
ATOM      2  C   LIG A   1      -4.133  -3.626   3.296  0.00  0.00    +0.139 C 
ATOM      3  C   LIG A   1      -4.581  -2.182   3.200  0.00  0.00    +0.075 C 
ATOM      4  C   LIG A   1      -3.431  -1.207   2.972  0.00  0.00    +0.015 C 
ATOM      5  C   LIG A   1      -2.264  -1.830   2.174  0.00  0.00    -0.021 C 
ATOM      6  C   LIG A   1      -2.817  -2.348   0.811  0.00  0.00    +0.012 C 
ATOM      7  C   LIG A   1      -1.647  -2.994   3.022  0.00  0.00    +0.012 C 
ATOM      8  C   LIG A   1      -0.546  -3.708   2.200  0.00  0.00    +0.032 C 
ATOM      9  C   LIG A   1       0.351  -2.764   1.435  0.00  0.00    -0.026 C 
ATOM     10  C   LIG A   1       0.136  -1.439   1.298  0.00  0.00    -0.063 C 
ATOM     11  C   LIG A   1      -1.091  -0.779   1.961  0.00  0.00    +0.021 C 
ATOM     12  C   LIG A   1      -1.594   0.552   1.338  0.00  0.00    +0.009 C 
ATOM     13  C   LIG A   1      -0.554   1.375   0.575  0.00  0.00    +0.008 C 
ATOM     14  C   LIG A   1       0.258   0.476  -0.372  0.00  0.00    -0.020 C 
ATOM     15  C   LIG A   1      -0.702  -0.271  -1.348  0.00  0.00    +0.012 C 
ATOM     16  C   LIG A   1       1.085  -0.513   0.532  0.00  0.00    -0.005 C 
ATOM     17  C   LIG A   1       2.035  -1.118  -0.519  0.00  0.00    +0.012 C 
ATOM     18  C   LIG A   1       2.401   0.056  -1.448  0.00  0.00    +0.005 C 
ATOM     19  C   LIG A   1       1.361   1.192  -1.214  0.00  0.00    -0.001 C 
ATOM     20  C   LIG A   1       1.987   0.162   1.609  0.00  0.00    +0.016 C 
ATOM     21  C   LIG A   1      -2.696  -3.914   3.755  0.00  0.00    +0.027 C 
ATOM     22  C   LIG A   1      -2.684  -3.616   5.273  0.00  0.00    +0.019 C 
ATOM     23  C   LIG A   1      -2.406  -5.418   3.590  0.00  0.00    +0.019 C 
ENDROOT
BRANCH  19  24
ATOM     24  C   LIG A   1       0.934   1.880  -2.550  0.00  0.00    -0.010 C 
ATOM     25  C   LIG A   1      -0.112   2.985  -2.360  0.00  0.00    +0.008 C 
BRANCH  24  26
ATOM     26  C   LIG A   1       2.122   2.430  -3.376  0.00  0.00    +0.008 C 
BRANCH  26  27
ATOM     27  C   LIG A   1       2.885   3.589  -2.730  0.00  0.00    +0.031 C 
BRANCH  27  28
ATOM     28  C   LIG A   1       4.030   4.003  -3.608  0.00  0.00    +0.014 C 
ATOM     29  C   LIG A   1       3.995   4.965  -4.540  0.00  0.00    +0.102 C 
ATOM     30  C   LIG A   1       5.177   5.320  -5.396  0.00  0.00    +0.086 C 
BRANCH  29  31
ATOM     31  O   LIG A   1       2.855   5.772  -4.738  0.00  0.00    -0.433 OA
BRANCH  31  32
ATOM     32  C   LIG A   1       2.228   5.556  -5.918  0.00  0.00    +0.451 C 
ATOM     33  O   LIG A   1       2.435   4.698  -6.758  0.00  0.00    -0.254 OA
ENDBRANCH  31  32
ENDBRANCH  29  31
ENDBRANCH  27  28
ENDBRANCH  26  27
ENDBRANCH  24  26
ENDBRANCH  19  24
TORSDOF 6
