REMARK  Name = NuBBE_1415
REMARK  2 active torsions:
REMARK  status: ('A' for Active; 'I' for Inactive)
REMARK    1  A    between atoms: O_1  and  C_2
REMARK    2  A    between atoms: C_4  and  O_5
REMARK                            x       y       z     vdW  Elec       q    Type
REMARK                         _______ _______ _______ _____ _____    ______ ____
ROOT
ATOM      1  C   LIG A   1      -4.870   0.735   0.006  0.00  0.00    +0.124 A 
ATOM      2  C   LIG A   1      -4.296   2.002   0.042  0.00  0.00    +0.091 A 
ATOM      3  C   LIG A   1      -2.907   2.122   0.129  0.00  0.00    +0.134 A 
ATOM      4  C   LIG A   1      -2.090   0.982   0.175  0.00  0.00    +0.102 A 
ATOM      5  C   LIG A   1      -2.688  -0.280   0.030  0.00  0.00    +0.138 A 
ATOM      6  O   LIG A   1      -1.993  -1.456  -0.093  0.00  0.00    -0.490 OA
ATOM      7  C   LIG A   1      -0.671  -1.270  -0.625  0.00  0.00    +0.249 C 
ATOM      8  C   LIG A   1       0.102  -0.335   0.308  0.00  0.00    +0.097 C 
ATOM      9  C   LIG A   1       1.593  -0.186   0.051  0.00  0.00    -0.023 A 
ATOM     10  C   LIG A   1       2.597   0.587  -0.481  0.00  0.00    +0.054 A 
ATOM     11  C   LIG A   1       3.814  -0.051  -0.569  0.00  0.00    +0.167 A 
ATOM     12  C   LIG A   1       3.979  -1.379  -0.194  0.00  0.00    +0.167 A 
ATOM     13  O   LIG A   1       5.224  -1.840  -0.497  0.00  0.00    -0.453 OA
ATOM     14  C   LIG A   1       5.879  -0.606  -0.855  0.00  0.00    +0.466 C 
ATOM     15  O   LIG A   1       4.970   0.499  -1.030  0.00  0.00    -0.453 OA
ATOM     16  C   LIG A   1       2.999  -2.088   0.475  0.00  0.00    +0.053 A 
ATOM     17  C   LIG A   1       1.852  -1.372   0.704  0.00  0.00    -0.038 A 
ATOM     18  C   LIG A   1       0.577  -1.210   1.518  0.00  0.00    +0.058 C 
ATOM     19  C   LIG A   1      -0.616   1.027   0.377  0.00  0.00    +0.184 C 
ATOM     20  O   LIG A   1      -0.037   2.125   0.508  0.00  0.00    -0.291 OA
ATOM     21  C   LIG A   1      -4.077  -0.404  -0.005  0.00  0.00    +0.092 A 
ENDROOT
BRANCH   1  22
ATOM     22  O   LIG A   1      -6.222   0.568  -0.037  0.00  0.00    -0.506 OA
ATOM     23  H   LIG A   1      -6.656   1.436   0.001  0.00  0.00    +0.292 HD
ENDBRANCH   1  22
BRANCH   3  24
ATOM     24  O   LIG A   1      -2.364   3.375   0.154  0.00  0.00    -0.506 OA
ATOM     25  H   LIG A   1      -3.013   4.036  -0.131  0.00  0.00    +0.292 HD
ENDBRANCH   3  24
TORSDOF 2
