REMARK  Name = NuBBE_2469
REMARK  16 active torsions:
REMARK  status: ('A' for Active; 'I' for Inactive)
REMARK    1  A    between atoms: O_1  and  C_2
REMARK    2  A    between atoms: C_2  and  C_3
REMARK    3  A    between atoms: C_3  and  C_5
REMARK    4  A    between atoms: C_3  and  C_20
REMARK    5  A    between atoms: C_5  and  C_7
REMARK    6  A    between atoms: C_5  and  C_9
REMARK    7  A    between atoms: C_7  and  O_8
REMARK    8  A    between atoms: C_9  and  C_10
REMARK    9  A    between atoms: C_13  and  O_14
REMARK   10  A    between atoms: O_14  and  C_15
REMARK   11  A    between atoms: C_16  and  O_17
REMARK   12  A    between atoms: O_17  and  C_18
REMARK   13  A    between atoms: C_20  and  C_21
REMARK   14  A    between atoms: C_23  and  O_24
REMARK   15  A    between atoms: O_24  and  C_25
REMARK   16  A    between atoms: C_26  and  O_27
REMARK                            x       y       z     vdW  Elec       q    Type
REMARK                         _______ _______ _______ _____ _____    ______ ____
ROOT
ATOM      1  C   LIG A   1       0.836  -1.258  -0.850  0.00  0.00    +0.024 C 
ENDROOT
BRANCH   1   2
ATOM      2  C   LIG A   1       1.007  -0.875  -2.331  0.00  0.00    +0.160 C 
BRANCH   2   3
ATOM      3  O   LIG A   1       1.577  -1.940  -3.082  0.00  0.00    -0.395 OA
ATOM      4  H   LIG A   1       1.146  -1.940  -3.956  0.00  0.00    +0.209 HD
ENDBRANCH   2   3
ENDBRANCH   1   2
BRANCH   1   5
ATOM      5  C   LIG A   1      -0.307  -2.319  -0.619  0.00  0.00    +0.024 C 
BRANCH   5   6
ATOM      6  C   LIG A   1      -0.099  -3.615  -1.445  0.00  0.00    +0.160 C 
BRANCH   6   7
ATOM      7  O   LIG A   1      -1.009  -4.624  -1.010  0.00  0.00    -0.395 OA
ATOM      8  H   LIG A   1      -0.762  -5.446  -1.470  0.00  0.00    +0.209 HD
ENDBRANCH   6   7
ENDBRANCH   5   6
BRANCH   5   9
ATOM      9  C   LIG A   1      -1.756  -1.816  -0.901  0.00  0.00    +0.041 C 
BRANCH   9  10
ATOM     10  C   LIG A   1      -2.326  -0.632  -0.133  0.00  0.00    -0.043 A 
ATOM     11  C   LIG A   1      -2.981  -0.828   1.086  0.00  0.00    +0.007 A 
ATOM     12  C   LIG A   1      -3.713   0.204   1.660  0.00  0.00    +0.050 A 
ATOM     13  C   LIG A   1      -3.795   1.453   1.046  0.00  0.00    +0.162 A 
ATOM     14  C   LIG A   1      -3.083   1.709  -0.134  0.00  0.00    +0.162 A 
ATOM     15  C   LIG A   1      -2.359   0.656  -0.716  0.00  0.00    +0.053 A 
BRANCH  13  16
ATOM     16  O   LIG A   1      -4.544   2.453   1.635  0.00  0.00    -0.491 OA
ATOM     17  C   LIG A   1      -5.860   2.070   2.035  0.00  0.00    +0.277 C 
ENDBRANCH  13  16
BRANCH  14  18
ATOM     18  O   LIG A   1      -2.986   2.905  -0.787  0.00  0.00    -0.491 OA
ATOM     19  C   LIG A   1      -4.031   3.855  -0.594  0.00  0.00    +0.277 C 
ENDBRANCH  14  18
ENDBRANCH   9  10
ENDBRANCH   5   9
ENDBRANCH   1   5
BRANCH   1  20
ATOM     20  C   LIG A   1       2.169  -1.742  -0.195  0.00  0.00    +0.041 C 
BRANCH  20  21
ATOM     21  C   LIG A   1       3.304  -0.735  -0.106  0.00  0.00    -0.043 A 
ATOM     22  C   LIG A   1       3.387   0.149   0.994  0.00  0.00    +0.053 A 
ATOM     23  C   LIG A   1       4.448   1.056   1.103  0.00  0.00    +0.162 A 
ATOM     24  C   LIG A   1       5.436   1.071   0.121  0.00  0.00    +0.159 A 
ATOM     25  C   LIG A   1       5.384   0.195  -0.965  0.00  0.00    +0.049 A 
ATOM     26  C   LIG A   1       4.317  -0.701  -1.069  0.00  0.00    +0.007 A 
BRANCH  23  27
ATOM     27  O   LIG A   1       4.632   1.973   2.117  0.00  0.00    -0.491 OA
ATOM     28  C   LIG A   1       3.655   1.974   3.146  0.00  0.00    +0.277 C 
ENDBRANCH  23  27
BRANCH  24  29
ATOM     29  O   LIG A   1       6.486   1.941   0.199  0.00  0.00    -0.503 OA
ATOM     30  H   LIG A   1       6.335   2.453   1.017  0.00  0.00    +0.292 HD
ENDBRANCH  24  29
ENDBRANCH  20  21
ENDBRANCH   1  20
TORSDOF 13
