REMARK  Name = NuBBE_1694
REMARK  11 active torsions:
REMARK  status: ('A' for Active; 'I' for Inactive)
REMARK    1  A    between atoms: C_1  and  O_2
REMARK    2  A    between atoms: O_2  and  C_3
REMARK    3  A    between atoms: C_6  and  C_7
REMARK    4  A    between atoms: C_6  and  C_8
REMARK    5  A    between atoms: C_12  and  O_13
REMARK    6  A    between atoms: C_17  and  C_18
REMARK    7  A    between atoms: C_20  and  O_21
REMARK    8  A    between atoms: O_21  and  C_22
REMARK    9  A    between atoms: C_23  and  O_24
REMARK   10  A    between atoms: C_25  and  O_26
REMARK   11  A    between atoms: O_26  and  C_27
REMARK                            x       y       z     vdW  Elec       q    Type
REMARK                         _______ _______ _______ _____ _____    ______ ____
ROOT
ATOM      1  C   LIG A   1      -1.132  -1.116  -0.763  0.00  0.00    +0.206 A 
ATOM      2  C   LIG A   1      -1.620  -2.409  -1.060  0.00  0.00    +0.177 A 
ATOM      3  O   LIG A   1      -2.619  -2.524  -1.985  0.00  0.00    -0.478 OA
ATOM      4  C   LIG A   1      -3.084  -3.809  -2.433  0.00  0.00    +0.124 C 
ATOM      5  C   LIG A   1      -2.692  -3.927  -3.911  0.00  0.00    +0.060 C 
ATOM      6  C   LIG A   1      -4.611  -3.754  -2.308  0.00  0.00    +0.060 C 
ATOM      7  C   LIG A   1      -2.548  -4.987  -1.666  0.00  0.00    +0.020 C 
ATOM      8  C   LIG A   1      -1.612  -4.870  -0.723  0.00  0.00    +0.015 C 
ATOM      9  C   LIG A   1      -1.084  -3.540  -0.410  0.00  0.00    +0.062 A 
ATOM     10  C   LIG A   1      -0.066  -3.378   0.532  0.00  0.00    +0.142 A 
ATOM     11  C   LIG A   1       0.416  -2.101   0.843  0.00  0.00    +0.110 A 
ATOM     12  C   LIG A   1      -0.109  -0.968   0.195  0.00  0.00    +0.188 A 
ATOM     13  O   LIG A   1       0.341   0.300   0.482  0.00  0.00    -0.451 OA
ATOM     14  C   LIG A   1       1.346   0.482   1.412  0.00  0.00    +0.140 A 
ATOM     15  C   LIG A   1       1.937  -0.524   2.066  0.00  0.00    +0.098 A 
ATOM     16  C   LIG A   1       1.479  -1.893   1.817  0.00  0.00    +0.197 A 
ATOM     17  O   LIG A   1       1.979  -2.846   2.414  0.00  0.00    -0.287 OA
ENDROOT
BRANCH  14  18
ATOM     18  C   LIG A   1       1.817   1.875   1.589  0.00  0.00    +0.025 A 
ATOM     19  C   LIG A   1       2.357   2.340   2.807  0.00  0.00    +0.061 A 
ATOM     20  C   LIG A   1       2.910   3.619   2.934  0.00  0.00    +0.166 A 
ATOM     21  C   LIG A   1       2.929   4.452   1.816  0.00  0.00    +0.201 A 
ATOM     22  C   LIG A   1       2.336   4.045   0.611  0.00  0.00    +0.166 A 
ATOM     23  C   LIG A   1       1.786   2.764   0.500  0.00  0.00    +0.061 A 
BRANCH  20  24
ATOM     24  O   LIG A   1       3.478   3.869   4.155  0.00  0.00    -0.491 OA
ATOM     25  C   LIG A   1       3.369   5.205   4.635  0.00  0.00    +0.277 C 
ENDBRANCH  20  24
BRANCH  21  26
ATOM     26  O   LIG A   1       3.569   5.664   1.836  0.00  0.00    -0.501 OA
ATOM     27  H   LIG A   1       3.560   5.975   0.905  0.00  0.00    +0.292 HD
ENDBRANCH  21  26
BRANCH  22  28
ATOM     28  O   LIG A   1       2.441   4.939  -0.429  0.00  0.00    -0.491 OA
ATOM     29  C   LIG A   1       1.375   4.905  -1.375  0.00  0.00    +0.277 C 
ENDBRANCH  22  28
ENDBRANCH  14  18
BRANCH   1  31
ATOM     30  C   LIG A   1      -2.607   0.084  -2.260  0.00  0.00    +0.277 C 
ATOM     31  O   LIG A   1      -1.524   0.073  -1.339  0.00  0.00    -0.488 OA
ENDBRANCH   1  31
BRANCH  10  32
ATOM     32  O   LIG A   1       0.451  -4.497   1.149  0.00  0.00    -0.505 OA
ATOM     33  H   LIG A   1       1.146  -4.222   1.785  0.00  0.00    +0.292 HD
ENDBRANCH  10  32
TORSDOF 6
