REMARK  Name = NuBBE_969
REMARK  11 active torsions:
REMARK  status: ('A' for Active; 'I' for Inactive)
REMARK    1  A    between atoms: C_1  and  C_2
REMARK    2  A    between atoms: C_2  and  C_3
REMARK    3  A    between atoms: C_2  and  O_4
REMARK    4  A    between atoms: C_2  and  C_5
REMARK    5  A    between atoms: C_8  and  C_10
REMARK    6  A    between atoms: C_10  and  C_11
REMARK    7  A    between atoms: C_13  and  C_14
REMARK    8  A    between atoms: C_13  and  C_19
REMARK    9  A    between atoms: C_14  and  O_15
REMARK   10  A    between atoms: O_15  and  C_16
REMARK   11  A    between atoms: C_16  and  C_17
REMARK                            x       y       z     vdW  Elec       q    Type
REMARK                         _______ _______ _______ _____ _____    ______ ____
ROOT
ATOM      1  C   LIG A   1      -0.216   1.468   1.271  0.00  0.00    +0.021 C 
ATOM      2  C   LIG A   1      -0.835   0.996  -0.072  0.00  0.00    +0.015 C 
ATOM      3  C   LIG A   1      -0.245  -0.291  -0.708  0.00  0.00    +0.028 C 
ATOM      4  C   LIG A   1       0.058  -1.351   0.415  0.00  0.00    +0.029 C 
ATOM      5  C   LIG A   1       1.115  -0.787   1.400  0.00  0.00    +0.015 C 
ATOM      6  C   LIG A   1       1.092   0.735   1.622  0.00  0.00    +0.007 C 
ENDROOT
BRANCH   1   8
ATOM      7  C   LIG A   1       0.534   3.483   2.675  0.00  0.00    +0.041 C 
ATOM      8  C   LIG A   1      -0.099   3.021   1.355  0.00  0.00    +0.063 C 
ATOM      9  C   LIG A   1      -1.475   3.693   1.204  0.00  0.00    +0.041 C 
BRANCH   8  10
ATOM     10  O   LIG A   1       0.741   3.468   0.289  0.00  0.00    -0.389 OA
ATOM     11  H   LIG A   1       0.705   4.438   0.262  0.00  0.00    +0.210 HD
ENDBRANCH   8  10
ENDBRANCH   1   8
BRANCH   3  12
ATOM     12  C   LIG A   1       0.844   0.030  -1.769  0.00  0.00    -0.076 C 
ATOM     13  C   LIG A   1       0.344   0.232  -3.186  0.00  0.00    +0.038 C 
ATOM     14  C   LIG A   1       2.177   0.091  -1.599  0.00  0.00    +0.007 C 
ENDBRANCH   3  12
BRANCH   4  15
ATOM     15  C   LIG A   1      -1.265  -1.705   1.156  0.00  0.00    -0.024 C 
ATOM     16  C   LIG A   1      -1.715  -1.299   2.356  0.00  0.00    +0.004 C 
ENDBRANCH   4  15
BRANCH   4  17
ATOM     17  C   LIG A   1       0.615  -2.690  -0.189  0.00  0.00    +0.243 C 
BRANCH  17  18
ATOM     18  O   LIG A   1      -0.331  -3.368  -1.055  0.00  0.00    -0.464 OA
BRANCH  18  19
ATOM     19  C   LIG A   1       0.088  -3.684  -2.313  0.00  0.00    +0.304 C 
ATOM     20  C   LIG A   1      -0.909  -4.585  -2.999  0.00  0.00    +0.136 C 
ATOM     21  O   LIG A   1       1.136  -3.357  -2.821  0.00  0.00    -0.251 OA
ENDBRANCH  18  19
ENDBRANCH  17  18
ENDBRANCH   4  17
TORSDOF 7
