REMARK  Name = NuBBE_2105
REMARK  10 active torsions:
REMARK  status: ('A' for Active; 'I' for Inactive)
REMARK    1  A    between atoms: C_1  and  C_2
REMARK    2  A    between atoms: C_2  and  C_3
REMARK    3  A    between atoms: C_3  and  C_4
REMARK    4  A    between atoms: C_4  and  C_5
REMARK    5  A    between atoms: C_5  and  C_6
REMARK    6  A    between atoms: C_6  and  C_7
REMARK    7  A    between atoms: C_7  and  C_8
REMARK    8  A    between atoms: C_8  and  C_9
REMARK    9  A    between atoms: C_9  and  C_10
REMARK   10  A    between atoms: C_10  and  C_11
REMARK                            x       y       z     vdW  Elec       q    Type
REMARK                         _______ _______ _______ _____ _____    ______ ____
ROOT
ATOM      1  C   LIG A   1       0.140   1.945  -0.149  0.00  0.00    -0.000 C 
ENDROOT
BRANCH   1   2
ATOM      2  C   LIG A   1      -1.333   1.503  -0.222  0.00  0.00    -0.000 C 
BRANCH   2   3
ATOM      3  C   LIG A   1      -1.689   0.490   0.868  0.00  0.00    -0.000 C 
BRANCH   3   4
ATOM      4  C   LIG A   1      -3.176   0.131   0.888  0.00  0.00    -0.000 C 
BRANCH   4   6
ATOM      5  C   LIG A   1      -3.218  -0.365   3.393  0.00  0.00    +0.004 C 
ATOM      6  C   LIG A   1      -3.511  -0.881   1.990  0.00  0.00    -0.003 C 
ENDBRANCH   4   6
ENDBRANCH   3   4
ENDBRANCH   2   3
ENDBRANCH   1   2
BRANCH   1   7
ATOM      7  C   LIG A   1       1.081   0.781  -0.425  0.00  0.00    +0.000 C 
BRANCH   7   8
ATOM      8  C   LIG A   1       2.565   1.127  -0.407  0.00  0.00    +0.000 C 
BRANCH   8   9
ATOM      9  C   LIG A   1       3.496  -0.084  -0.631  0.00  0.00    +0.004 C 
BRANCH   9  10
ATOM     10  C   LIG A   1       3.364  -0.807  -1.984  0.00  0.00    +0.026 C 
BRANCH  10  11
ATOM     11  C   LIG A   1       2.105  -1.633  -2.152  0.00  0.00    -0.035 C 
ATOM     12  C   LIG A   1       1.943  -2.642  -2.999  0.00  0.00    +0.004 C 
ENDBRANCH  10  11
ENDBRANCH   9  10
ENDBRANCH   8   9
ENDBRANCH   7   8
ENDBRANCH   1   7
TORSDOF 9
