@<TRIPOS>MOLECULE
NuBBE_566
 32 33 0 0 0
SMALL
GASTEIGER

@<TRIPOS>ATOM
      1 O          -1.3609   -6.1001   -1.9121 O.3     1  LIG1       -0.5066
      2 C          -1.3579   -4.8632   -1.3395 C.ar    1  LIG1        0.1204
      3 C          -0.1907   -4.3050   -0.8275 C.ar    1  LIG1        0.0220
      4 C          -0.2341   -3.0342   -0.2443 C.ar    1  LIG1        0.1311
      5 O           0.9203   -2.5254    0.2875 O.3     1  LIG1       -0.5059
      6 C          -1.4365   -2.3157   -0.1792 C.ar    1  LIG1        0.0632
      7 C          -1.5767   -0.9583    0.4344 C.2     1  LIG1        0.1896
      8 C          -0.4379   -0.0022    0.3375 C.2     1  LIG1       -0.0137
      9 C          -0.5546    1.2417    0.8261 C.2     1  LIG1       -0.0508
     10 C           0.4865    2.2741    0.7160 C.ar    1  LIG1       -0.0212
     11 C           0.0769    3.5997    0.5021 C.ar    1  LIG1       -0.0094
     12 C           1.0256    4.6144    0.4296 C.ar    1  LIG1        0.1588
     13 O           0.6710    5.9187    0.2184 O.3     1  LIG1       -0.5033
     14 C           2.3783    4.3264    0.5770 C.ar    1  LIG1        0.1582
     15 O           3.2988    5.3333    0.5222 O.3     1  LIG1       -0.5033
     16 C           2.8046    3.0247    0.7899 C.ar    1  LIG1       -0.0160
     17 C           1.8566    1.9972    0.8640 C.ar    1  LIG1       -0.0509
     18 O          -2.6458   -0.6317    0.9403 O.2     1  LIG1       -0.2872
     19 C          -2.6050   -2.9059   -0.6970 C.ar    1  LIG1       -0.0440
     20 C          -2.5625   -4.1758   -1.2776 C.ar    1  LIG1       -0.0193
     21 H          -0.4603   -6.4637   -1.8987 H       1  LIG1        0.2921
     22 H           0.7408   -4.8582   -0.8729 H       1  LIG1        0.0691
     23 H           1.6533   -3.1471    0.1419 H       1  LIG1        0.2922
     24 H           0.4609   -0.3143   -0.1779 H       1  LIG1        0.0656
     25 H          -1.4855    1.5514    1.3018 H       1  LIG1        0.0625
     26 H          -0.9794    3.8240    0.3885 H       1  LIG1        0.0661
     27 H          -0.2966    5.9554    0.1228 H       1  LIG1        0.2923
     28 H           2.7661    6.1438    0.3939 H       1  LIG1        0.2923
     29 H           3.8632    2.8132    0.9081 H       1  LIG1        0.0655
     30 H           2.2031    0.9838    1.0538 H       1  LIG1        0.0625
     31 H          -3.5537   -2.3752   -0.6515 H       1  LIG1        0.0627
     32 H          -3.4678   -4.6259   -1.6776 H       1  LIG1        0.0654
@<TRIPOS>BOND
     1     1     2    1
     2     2     3   ar
     3     3     4   ar
     4     4     5    1
     5     4     6   ar
     6     6     7    1
     7     7     8    1
     8     8     9    2
     9     9    10    1
    10    10    11   ar
    11    11    12   ar
    12    12    13    1
    13    12    14   ar
    14    14    15    1
    15    14    16   ar
    16    16    17   ar
    17    10    17   ar
    18     7    18    2
    19     6    19   ar
    20    19    20   ar
    21     2    20   ar
    22     1    21    1
    23     3    22    1
    24     5    23    1
    25     8    24    1
    26     9    25    1
    27    11    26    1
    28    13    27    1
    29    15    28    1
    30    16    29    1
    31    17    30    1
    32    19    31    1
    33    20    32    1
