@<TRIPOS>MOLECULE
NuBBE_610
 75 79 0 0 0
SMALL
GASTEIGER

@<TRIPOS>ATOM
      1 C          -0.6192   -5.0220    0.0768 C.3     1  LIG1       -0.0411
      2 C          -0.8113   -3.5447   -0.1347 C.2     1  LIG1       -0.0446
      3 C          -0.2667   -2.8474   -1.1634 C.2     1  LIG1       -0.0652
      4 C           0.6881   -3.3678   -2.1950 C.3     1  LIG1       -0.0431
      5 C          -0.6952   -1.4096   -1.2392 C.3     1  LIG1        0.0170
      6 H          -1.7993   -1.4702   -1.3178 H       1  LIG1        0.0375
      7 C          -0.3267   -0.4289   -2.3657 C.3     1  LIG1        0.0347
      8 H           0.7534   -0.3758   -2.5379 H       1  LIG1        0.0507
      9 C          -1.0807   -0.6821   -3.6817 C.3     1  LIG1       -0.0086
     10 C          -0.7039    0.2984   -4.7716 C.ar    1  LIG1       -0.0456
     11 C           0.3602    0.0223   -5.6405 C.ar    1  LIG1       -0.0585
     12 C           0.7061    0.9285   -6.6453 C.ar    1  LIG1       -0.0615
     13 C           0.0042    2.1248   -6.7816 C.ar    1  LIG1       -0.0617
     14 C          -1.0492    2.4143   -5.9178 C.ar    1  LIG1       -0.0615
     15 C          -1.4060    1.5038   -4.9220 C.ar    1  LIG1       -0.0585
     16 N          -0.7465    0.8069   -1.7430 N.am    1  LIG1       -0.3109
     17 H          -1.0526    1.6411   -2.2333 H       1  LIG1        0.1490
     18 C          -0.3670   -0.6444    0.0976 C.3     1  LIG1        0.1032
     19 C           1.1936   -0.3697    0.3140 C.3     1  LIG1        0.1466
     20 H           1.7077   -0.9469   -0.4624 H       1  LIG1        0.0772
     21 C           1.6299    1.0633    0.0452 C.3     1  LIG1        0.1262
     22 H           1.6730    1.2399   -1.0255 H       1  LIG1        0.0661
     23 C           1.5455    2.3208    0.9316 C.3     1  LIG1        0.1240
     24 H           1.4110    3.2276    0.3423 H       1  LIG1        0.0657
     25 O           2.7651    1.5641    0.7595 O.3     1  LIG1       -0.3610
     26 C           1.2125    2.6137    2.3906 C.3     1  LIG1        0.1494
     27 C           1.8142    1.6692    3.4165 C.3     1  LIG1       -0.0265
     28 O           1.8755    3.8719    2.7254 O.3     1  LIG1       -0.3786
     29 C          -0.2912    2.9895    2.5612 C.2     1  LIG1        0.1700
     30 C          -1.0513    2.5806    3.8384 C.3     1  LIG1        0.0211
     31 H          -0.3408    2.2493    4.5983 H       1  LIG1        0.0379
     32 C          -1.7335    3.8319    4.4050 C.3     1  LIG1       -0.0553
     33 C          -2.1036    1.4715    3.6224 C.3     1  LIG1       -0.0254
     34 C          -1.4930    0.1835    3.1468 C.2     1  LIG1       -0.0869
     35 C          -1.9377   -0.4949    2.0761 C.2     1  LIG1       -0.0810
     36 O          -0.8355    3.7370    1.7348 O.2     1  LIG1       -0.2940
     37 O           1.7451   -0.7595    1.5876 O.3     1  LIG1       -0.4577
     38 C           2.7429   -1.6877    1.5303 C.2     1  LIG1        0.3043
     39 C           3.7461   -1.4964    2.6308 C.3     1  LIG1        0.0332
     40 O           2.8609   -2.5398    0.6589 O.2     1  LIG1       -0.2512
     41 C          -1.0040    0.6655   -0.3920 C.2     1  LIG1        0.2244
     42 O          -1.5968    1.5229    0.2418 O.2     1  LIG1       -0.2750
     43 C          -1.0246   -1.4224    1.2993 C.3     1  LIG1        0.0250
     44 H          -0.2423   -1.7308    2.0023 H       1  LIG1        0.0383
     45 C          -1.6838   -2.7839    0.8827 C.3     1  LIG1        0.0836
     46 H          -2.6838   -2.6201    0.4592 H       1  LIG1        0.0646
     47 O          -1.8560   -3.5738    2.0594 O.3     1  LIG1       -0.3869
     48 H          -0.0451   -5.2037    0.9902 H       1  LIG1        0.0275
     49 H          -0.0967   -5.5143   -0.7466 H       1  LIG1        0.0275
     50 H          -1.5896   -5.5229    0.1624 H       1  LIG1        0.0275
     51 H           0.1801   -3.5186   -3.1514 H       1  LIG1        0.0275
     52 H           1.1561   -4.3117   -1.9075 H       1  LIG1        0.0275
     53 H           1.5084   -2.6585   -2.3448 H       1  LIG1        0.0275
     54 H          -0.8893   -1.6975   -4.0438 H       1  LIG1        0.0331
     55 H          -2.1651   -0.6218   -3.5184 H       1  LIG1        0.0331
     56 H           0.9233   -0.9037   -5.5494 H       1  LIG1        0.0620
     57 H           1.5239    0.7013   -7.3246 H       1  LIG1        0.0618
     58 H           0.2769    2.8308   -7.5619 H       1  LIG1        0.0618
     59 H          -1.5963    3.3481   -6.0221 H       1  LIG1        0.0618
     60 H          -2.2398    1.7453   -4.2659 H       1  LIG1        0.0620
     61 H           2.8888    1.5447    3.2451 H       1  LIG1        0.0262
     62 H           1.3471    0.6899    3.4283 H       1  LIG1        0.0262
     63 H           1.7502    2.0839    4.4299 H       1  LIG1        0.0262
     64 H           2.5377    4.0508    2.0360 H       1  LIG1        0.2108
     65 H          -2.5174    4.1994    3.7327 H       1  LIG1        0.0237
     66 H          -1.0093    4.6424    4.5420 H       1  LIG1        0.0237
     67 H          -2.1940    3.6191    5.3750 H       1  LIG1        0.0237
     68 H          -2.8645    1.8198    2.9123 H       1  LIG1        0.0314
     69 H          -2.6162    1.2733    4.5715 H       1  LIG1        0.0314
     70 H          -0.5701   -0.1282    3.6240 H       1  LIG1        0.0569
     71 H          -2.8716   -0.1972    1.5997 H       1  LIG1        0.0573
     72 H           4.7476   -1.4951    2.1872 H       1  LIG1        0.0342
     73 H           3.6628   -2.2912    3.3730 H       1  LIG1        0.0342
     74 H           3.6196   -0.5308    3.1217 H       1  LIG1        0.0342
     75 H          -2.4900   -4.2770    1.8411 H       1  LIG1        0.2102
@<TRIPOS>BOND
     1     1     2    1
     2     2     3    2
     3     3     4    1
     4     3     5    1
     5     5     6    1
     6     5     7    1
     7     9    10    1
     8    10    11   ar
     9    11    12   ar
    10    12    13   ar
    11    13    14   ar
    12    14    15   ar
    13    10    15   ar
    14     7    16    1
    15    16    17    1
    16     5    18    1
    17    18    19    1
    18    19    20    1
    19    19    21    1
    20    21    22    1
    21    21    23    1
    22    23    24    1
    23    23    25    1
    24    21    25    1
    25    23    26    1
    26    26    27    1
    27    26    28    1
    28    26    29    1
    29    29    30    1
    30    30    33    1
    31    33    34    1
    32    34    35    2
    33    29    36    2
    34    19    37    1
    35    37    38    1
    36    38    39    1
    37    38    40    2
    38    18    41    1
    39    16    41   am
    40    41    42    2
    41    18    43    1
    42    43    44    1
    43    35    43    1
    44    43    45    1
    45    45    46    1
    46     2    45    1
    47    45    47    1
    48     7     9    1
    49     7     8    1
    50    30    32    1
    51    30    31    1
    52     1    48    1
    53     1    49    1
    54     1    50    1
    55     4    51    1
    56     4    52    1
    57     4    53    1
    58     9    54    1
    59     9    55    1
    60    11    56    1
    61    12    57    1
    62    13    58    1
    63    14    59    1
    64    15    60    1
    65    27    61    1
    66    27    62    1
    67    27    63    1
    68    28    64    1
    69    32    65    1
    70    32    66    1
    71    32    67    1
    72    33    68    1
    73    33    69    1
    74    34    70    1
    75    35    71    1
    76    39    72    1
    77    39    73    1
    78    39    74    1
    79    47    75    1
