@<TRIPOS>MOLECULE
NuBBE_110
 63 64 0 0 0
SMALL
GASTEIGER

@<TRIPOS>ATOM
      1 O          -0.5811    3.1776   -0.2308 O.2     1  LIG1       -0.2452
      2 C           0.2713    2.3229   -0.0340 C.2     1  LIG1        0.3381
      3 C           0.0233    0.9931    0.5916 C.2     1  LIG1        0.0749
      4 C          -1.2640    0.8558    0.9560 C.2     1  LIG1        0.0981
      5 O          -1.8878   -0.2867    1.3915 O.2     1  LIG1       -0.4701
      6 C          -1.1298   -1.4842    1.2299 C.3     1  LIG1        0.2102
      7 H          -1.5904   -2.2717    1.8442 H       1  LIG1        0.1060
      8 C           0.3134   -1.1713    1.7554 C.3     1  LIG1        0.0659
      9 H           0.8810   -2.1124    1.7543 H       1  LIG1        0.0403
     10 C           0.9751   -0.2163    0.6702 C.3     1  LIG1        0.0158
     11 H           0.8820   -0.7041   -0.3182 H       1  LIG1        0.0363
     12 C           2.5134   -0.2359    0.9200 C.3     1  LIG1        0.0526
     13 C           3.5198    0.7203    0.3307 C.2     1  LIG1        0.3074
     14 O           4.4086    0.1687   -0.5251 O.3     1  LIG1       -0.4679
     15 C           5.3362    1.1342   -1.0693 C.3     1  LIG1        0.0817
     16 O           3.6201    1.8876    0.7565 O.2     1  LIG1       -0.2508
     17 C           0.3073   -0.6161    3.2851 C.3     1  LIG1        0.1093
     18 H          -0.0330   -1.4840    3.8649 H       1  LIG1        0.0736
     19 C          -0.6677    0.4969    3.7292 C.3     1  LIG1       -0.0272
     20 O           1.6267   -0.3505    3.8770 O.3     1  LIG1       -0.4613
     21 C           2.1642    0.9120    3.8379 C.2     1  LIG1        0.3042
     22 C           3.4067    1.0124    4.6716 C.3     1  LIG1        0.0332
     23 O           1.7359    1.8366    3.1615 O.2     1  LIG1       -0.2512
     24 O          -1.1358   -1.9172   -0.1589 O.3     1  LIG1       -0.3094
     25 C          -2.4229   -2.2817   -0.7202 C.3     1  LIG1        0.1918
     26 H          -2.8007   -3.1404   -0.1505 H       1  LIG1        0.0939
     27 O          -2.2163   -2.8212   -2.0708 O.3     1  LIG1       -0.3404
     28 C          -2.8222   -2.0497   -3.1434 C.3     1  LIG1        0.1130
     29 H          -3.9125   -2.1563   -3.0932 H       1  LIG1        0.0647
     30 C          -2.3854   -0.6063   -2.9499 C.3     1  LIG1        0.1119
     31 H          -1.3169   -0.5779   -2.6934 H       1  LIG1        0.0647
     32 C          -3.2265   -0.0618   -1.8035 C.3     1  LIG1        0.1141
     33 H          -4.2025    0.2456   -2.1971 H       1  LIG1        0.0648
     34 O          -2.6400    1.1565   -1.3745 O.3     1  LIG1       -0.3864
     35 O          -2.5551    0.2464   -4.0761 O.3     1  LIG1       -0.3865
     36 C          -2.4184   -2.5931   -4.5141 C.3     1  LIG1        0.0730
     37 O          -1.0093   -2.5009   -4.6977 O.3     1  LIG1       -0.3924
     38 C          -3.4810   -1.1296   -0.7047 C.3     1  LIG1        0.1342
     39 H          -3.5732   -0.6660    0.2673 H       1  LIG1        0.0671
     40 O          -4.7927   -1.7071   -0.8997 O.3     1  LIG1       -0.3841
     41 O           1.5066    2.2951   -0.5370 O.3     1  LIG1       -0.4646
     42 C           1.7858    3.0736   -1.6853 C.3     1  LIG1        0.0820
     43 H          -2.0071    1.6603    0.9555 H       1  LIG1        0.1029
     44 H           2.6874   -0.0460    1.9614 H       1  LIG1        0.0384
     45 H           2.8937   -1.2615    0.8248 H       1  LIG1        0.0384
     46 H           5.2413    2.1550   -0.6757 H       1  LIG1        0.0661
     47 H           5.1541    1.1881   -2.1455 H       1  LIG1        0.0661
     48 H           6.3764    0.8261   -0.9027 H       1  LIG1        0.0661
     49 H          -0.5474    1.4188    3.1560 H       1  LIG1        0.0265
     50 H          -0.4877    0.8023    4.7636 H       1  LIG1        0.0265
     51 H          -1.7117    0.1808    3.6650 H       1  LIG1        0.0265
     52 H           3.7905    2.0370    4.6066 H       1  LIG1        0.0342
     53 H           4.1877    0.3382    4.3081 H       1  LIG1        0.0342
     54 H           3.1634    0.8048    5.7138 H       1  LIG1        0.0342
     55 H          -1.6800    1.0255   -1.3500 H       1  LIG1        0.2100
     56 H          -2.2746    1.1372   -3.7869 H       1  LIG1        0.2100
     57 H          -2.7033   -3.6448   -4.6080 H       1  LIG1        0.0584
     58 H          -2.9176   -2.0350   -5.3168 H       1  LIG1        0.0584
     59 H          -0.6219   -2.6778   -3.8216 H       1  LIG1        0.2095
     60 H          -5.4284   -1.0220   -0.6199 H       1  LIG1        0.2101
     61 H           0.9610    3.0312   -2.4001 H       1  LIG1        0.0661
     62 H           2.6496    2.5827   -2.1316 H       1  LIG1        0.0661
     63 H           2.0621    4.1059   -1.4435 H       1  LIG1        0.0661
@<TRIPOS>BOND
     1     1     2    2
     2     2     3    1
     3     3     4    2
     4     4     5    1
     5     5     6    1
     6     6     8    1
     7     8    10    1
     8     3    10    1
     9    12    13    1
    10    13    14    1
    11    14    15    1
    12    13    16    2
    13    17    20    1
    14    20    21    1
    15    21    22    1
    16    21    23    2
    17    24    25    1
    18    25    26    1
    19    25    27    1
    20    27    28    1
    21    28    30    1
    22    30    31    1
    23    30    32    1
    24    30    35    1
    25    36    37    1
    26    25    38    1
    27    32    38    1
    28     2    41    1
    29    41    42    1
    30    10    12    1
    31    10    11    1
    32     6    24    1
    33     6     7    1
    34     8    17    1
    35     8     9    1
    36    17    19    1
    37    17    18    1
    38    28    36    1
    39    28    29    1
    40    32    34    1
    41    32    33    1
    42    38    40    1
    43    38    39    1
    44     4    43    1
    45    12    44    1
    46    12    45    1
    47    15    46    1
    48    15    47    1
    49    15    48    1
    50    19    49    1
    51    19    50    1
    52    19    51    1
    53    22    52    1
    54    22    53    1
    55    22    54    1
    56    34    55    1
    57    35    56    1
    58    36    57    1
    59    36    58    1
    60    37    59    1
    61    40    60    1
    62    42    61    1
    63    42    62    1
    64    42    63    1
