@<TRIPOS>MOLECULE
NuBBE_1065
 29 31 0 0 0
SMALL
GASTEIGER

@<TRIPOS>ATOM
      1 O          -3.8196    0.7202    0.1420 O.3     1  LIG1       -0.5033
      2 C          -2.4540    0.7773    0.1087 C.ar    1  LIG1        0.1592
      3 C          -1.8034    2.0058    0.0174 C.ar    1  LIG1        0.1633
      4 O          -2.6237    3.1038   -0.0366 O.3     1  LIG1       -0.4914
      5 C          -1.9828    4.3714   -0.1274 C.3     1  LIG1        0.0790
      6 C          -0.4106    2.0168   -0.0158 C.ar    1  LIG1        0.0099
      7 C           0.3359    0.8471    0.0305 C.ar    1  LIG1        0.0820
      8 N           1.6592    0.9876   -0.0182 N.ar    1  LIG1       -0.2117
      9 C           2.3563   -0.1525    0.0451 C.ar    1  LIG1        0.2311
     10 O           3.7177   -0.1670    0.0321 O.2     1  LIG1       -0.4449
     11 C           4.1060   -1.4596    0.1366 C.ar    1  LIG1        0.0952
     12 C           3.0102   -2.2860    0.2143 C.ar    1  LIG1       -0.0109
     13 C           1.8583   -1.4513    0.1447 C.ar    1  LIG1        0.0820
     14 C           0.4547   -1.5816    0.1763 C.ar    1  LIG1        0.1417
     15 O          -0.2336   -2.7712    0.3729 O.3     1  LIG1       -0.4937
     16 C           0.2815   -3.9024   -0.3164 C.3     1  LIG1        0.0788
     17 C          -0.3304   -0.4000    0.1281 C.ar    1  LIG1        0.0465
     18 C          -1.7403   -0.4114    0.1666 C.ar    1  LIG1       -0.0038
     19 H          -4.1165    1.6500    0.0978 H       1  LIG1        0.2923
     20 H          -2.7622    5.1356   -0.2043 H       1  LIG1        0.0660
     21 H          -1.3626    4.4401   -1.0274 H       1  LIG1        0.0660
     22 H          -1.3974    4.5794    0.7743 H       1  LIG1        0.0660
     23 H           0.1415    2.9505   -0.0801 H       1  LIG1        0.0677
     24 H           5.1748   -1.6256    0.1485 H       1  LIG1        0.1030
     25 H           3.0586   -3.3592    0.3138 H       1  LIG1        0.0657
     26 H          -0.5005   -4.6685   -0.3263 H       1  LIG1        0.0660
     27 H           1.1308   -4.3297    0.2207 H       1  LIG1        0.0660
     28 H           0.5389   -3.6701   -1.3549 H       1  LIG1        0.0660
     29 H          -2.2869   -1.3494    0.2371 H       1  LIG1        0.0663
@<TRIPOS>BOND
     1     1     2    1
     2     2     3   ar
     3     3     4    1
     4     4     5    1
     5     3     6   ar
     6     6     7   ar
     7     7     8   ar
     8     8     9   ar
     9     9    10   ar
    10    10    11   ar
    11    11    12   ar
    12     9    13   ar
    13    12    13   ar
    14    13    14   ar
    15    14    15    1
    16    15    16    1
    17     7    17   ar
    18    14    17   ar
    19    17    18   ar
    20     2    18   ar
    21     1    19    1
    22     5    20    1
    23     5    21    1
    24     5    22    1
    25     6    23    1
    26    11    24    1
    27    12    25    1
    28    16    26    1
    29    16    27    1
    30    16    28    1
    31    18    29    1
