REMARK  Name = NuBBE_166
REMARK  16 active torsions:
REMARK  status: ('A' for Active; 'I' for Inactive)
REMARK    1  A    between atoms: O_1  and  C_2
REMARK    2  A    between atoms: C_4  and  C_6
REMARK    3  A    between atoms: C_9  and  C_11
REMARK    4  A    between atoms: C_11  and  C_12
REMARK    5  A    between atoms: C_12  and  C_13
REMARK    6  A    between atoms: C_13  and  C_14
REMARK    7  A    between atoms: C_14  and  C_15
REMARK    8  A    between atoms: C_15  and  C_16
REMARK    9  A    between atoms: C_16  and  C_17
REMARK   10  A    between atoms: C_17  and  C_18
REMARK   11  A    between atoms: C_18  and  C_19
REMARK   12  A    between atoms: C_19  and  C_20
REMARK   13  A    between atoms: C_20  and  C_21
REMARK   14  A    between atoms: C_21  and  C_22
REMARK   15  A    between atoms: C_22  and  C_23
REMARK   16  A    between atoms: C_23  and  C_24
REMARK                            x       y       z     vdW  Elec       q    Type
REMARK                         _______ _______ _______ _____ _____    ______ ____
ROOT
ATOM      1  C   LIG A   1      -1.950   0.829  -0.473  0.00  0.00    +0.000 C 
ENDROOT
BRANCH   1   2
ATOM      2  C   LIG A   1      -2.317   2.303  -0.739  0.00  0.00    +0.002 C 
BRANCH   2   3
ATOM      3  C   LIG A   1      -3.829   2.587  -0.458  0.00  0.00    +0.019 C 
BRANCH   3   9
ATOM      4  C   LIG A   1      -5.443   3.480   3.443  0.00  0.00    +0.131 C 
ATOM      5  C   LIG A   1      -6.200   2.509   2.514  0.00  0.00    +0.079 C 
ATOM      6  C   LIG A   1      -7.706   2.766   2.561  0.00  0.00    +0.026 C 
ATOM      7  N   LIG A   1      -5.717   2.694   1.127  0.00  0.00    -0.308 NA
ATOM      8  H   LIG A   1      -6.274   2.110   0.501  0.00  0.00    +0.122 HD
ATOM      9  C   LIG A   1      -4.293   2.323   1.000  0.00  0.00    +0.054 C 
ATOM     10  C   LIG A   1      -3.406   3.101   1.989  0.00  0.00    +0.021 C 
ATOM     11  C   LIG A   1      -3.950   3.174   3.414  0.00  0.00    +0.034 C 
BRANCH   4  12
ATOM     12  O   LIG A   1      -5.645   4.829   3.006  0.00  0.00    -0.390 OA
ATOM     13  H   LIG A   1      -5.655   4.776   2.029  0.00  0.00    +0.210 HD
ENDBRANCH   4  12
ENDBRANCH   3   9
ENDBRANCH   2   3
ENDBRANCH   1   2
BRANCH   1  14
ATOM     14  C   LIG A   1      -0.494   0.297  -0.606  0.00  0.00    -0.000 C 
BRANCH  14  15
ATOM     15  C   LIG A   1       0.232   0.439  -1.951  0.00  0.00    -0.000 C 
BRANCH  15  16
ATOM     16  C   LIG A   1       1.656  -0.217  -2.061  0.00  0.00    -0.000 C 
BRANCH  16  17
ATOM     17  C   LIG A   1       1.791  -1.761  -1.876  0.00  0.00    -0.000 C 
BRANCH  17  18
ATOM     18  C   LIG A   1       3.268  -2.290  -2.056  0.00  0.00    -0.000 C 
BRANCH  18  19
ATOM     19  C   LIG A   1       3.458  -3.832  -1.888  0.00  0.00    +0.000 C 
BRANCH  19  20
ATOM     20  C   LIG A   1       4.855  -4.518  -2.044  0.00  0.00    +0.000 C 
BRANCH  20  21
ATOM     21  C   LIG A   1       5.973  -4.210  -1.042  0.00  0.00    +0.007 C 
BRANCH  21  22
ATOM     22  C   LIG A   1       6.537  -2.802  -1.125  0.00  0.00    +0.074 C 
BRANCH  22  23
ATOM     23  C   LIG A   1       7.665  -2.527  -0.132  0.00  0.00    +0.130 C 
ATOM     24  C   LIG A   1       8.587  -3.676   0.209  0.00  0.00    +0.086 C 
ATOM     25  O   LIG A   1       7.850  -1.421   0.316  0.00  0.00    -0.298 OA
ENDBRANCH  22  23
ENDBRANCH  21  22
ENDBRANCH  20  21
ENDBRANCH  19  20
ENDBRANCH  18  19
ENDBRANCH  17  18
ENDBRANCH  16  17
ENDBRANCH  15  16
ENDBRANCH  14  15
ENDBRANCH   1  14
TORSDOF 14
