REMARK  Name = NuBBE_126
REMARK  6 active torsions:
REMARK  status: ('A' for Active; 'I' for Inactive)
REMARK    1  A    between atoms: O_1  and  C_2
REMARK    2  A    between atoms: C_5  and  C_6
REMARK    3  A    between atoms: C_10  and  O_11
REMARK    4  A    between atoms: C_12  and  O_13
REMARK    5  A    between atoms: C_14  and  O_15
REMARK    6  A    between atoms: O_15  and  C_16
REMARK                            x       y       z     vdW  Elec       q    Type
REMARK                         _______ _______ _______ _____ _____    ______ ____
ROOT
ATOM      1  C   LIG A   1      -1.158  -0.817   0.294  0.00  0.00    +0.139 A 
ATOM      2  O   LIG A   1      -0.476   0.386   0.142  0.00  0.00    -0.454 OA
ATOM      3  C   LIG A   1       0.862   0.350  -0.164  0.00  0.00    +0.146 A 
ATOM      4  C   LIG A   1       1.568  -0.836  -0.320  0.00  0.00    +0.109 A 
ATOM      5  C   LIG A   1       2.927  -0.801  -0.629  0.00  0.00    +0.177 A 
ATOM      6  C   LIG A   1       3.585   0.425  -0.785  0.00  0.00    +0.202 A 
ATOM      7  C   LIG A   1       2.888   1.627  -0.632  0.00  0.00    +0.169 A 
ATOM      8  C   LIG A   1       1.519   1.574  -0.320  0.00  0.00    +0.096 A 
ATOM      9  C   LIG A   1      -0.583  -2.022   0.151  0.00  0.00    +0.098 A 
ATOM     10  C   LIG A   1       0.850  -2.101  -0.158  0.00  0.00    +0.197 A 
ATOM     11  O   LIG A   1       1.428  -3.175  -0.278  0.00  0.00    -0.287 OA
ENDROOT
BRANCH   1  15
ATOM     12  C   LIG A   1      -5.335  -0.361   1.174  0.00  0.00    +0.117 A 
ATOM     13  C   LIG A   1      -4.679   0.599   0.413  0.00  0.00    +0.046 A 
ATOM     14  C   LIG A   1      -3.317   0.443   0.132  0.00  0.00    +0.015 A 
ATOM     15  C   LIG A   1      -2.600  -0.670   0.605  0.00  0.00    +0.018 A 
ATOM     16  C   LIG A   1      -3.288  -1.614   1.387  0.00  0.00    +0.015 A 
ATOM     17  C   LIG A   1      -4.650  -1.463   1.664  0.00  0.00    +0.046 A 
BRANCH  12  18
ATOM     18  O   LIG A   1      -6.661  -0.255   1.469  0.00  0.00    -0.507 OA
ATOM     19  H   LIG A   1      -7.005   0.561   1.072  0.00  0.00    +0.292 HD
ENDBRANCH  12  18
ENDBRANCH   1  15
BRANCH   5  20
ATOM     20  O   LIG A   1       3.691  -1.934  -0.795  0.00  0.00    -0.503 OA
ATOM     21  H   LIG A   1       3.103  -2.714  -0.654  0.00  0.00    +0.292 HD
ENDBRANCH   5  20
BRANCH   6  22
ATOM     22  O   LIG A   1       4.919   0.374  -1.092  0.00  0.00    -0.501 OA
ATOM     23  H   LIG A   1       5.133  -0.581  -1.134  0.00  0.00    +0.292 HD
ENDBRANCH   6  22
BRANCH   7  24
ATOM     24  O   LIG A   1       3.363   2.905  -0.745  0.00  0.00    -0.491 OA
ATOM     25  C   LIG A   1       4.739   3.080  -1.056  0.00  0.00    +0.277 C 
ENDBRANCH   7  24
TORSDOF 5
