REMARK  Name = NuBBE_2183
REMARK  10 active torsions:
REMARK  status: ('A' for Active; 'I' for Inactive)
REMARK    1  A    between atoms: C_1  and  C_3
REMARK    2  A    between atoms: C_1  and  C_13
REMARK    3  A    between atoms: C_1  and  C_14
REMARK    4  A    between atoms: C_3  and  C_4
REMARK    5  A    between atoms: C_14  and  O_15
REMARK    6  A    between atoms: O_15  and  C_16
REMARK    7  A    between atoms: C_17  and  O_26
REMARK    8  A    between atoms: C_21  and  C_23
REMARK    9  A    between atoms: C_23  and  C_24
REMARK   10  A    between atoms: O_26  and  C_27
REMARK                            x       y       z     vdW  Elec       q    Type
REMARK                         _______ _______ _______ _____ _____    ______ ____
ROOT
ATOM      1  C   LIG A   1      -1.317   0.945   0.457  0.00  0.00    +0.147 C 
ATOM      2  C   LIG A   1      -0.521   2.128   1.039  0.00  0.00    +0.137 C 
ATOM      3  C   LIG A   1       0.056   2.077   2.244  0.00  0.00    +0.095 C 
ATOM      4  C   LIG A   1      -0.026   0.879   3.109  0.00  0.00    +0.185 C 
ATOM      5  O   LIG A   1       0.589   0.857   4.181  0.00  0.00    -0.287 OA
ATOM      6  C   LIG A   1      -0.872  -0.258   2.654  0.00  0.00    +0.002 C 
ATOM      7  C   LIG A   1      -1.468  -0.190   1.453  0.00  0.00    +0.023 C 
ENDROOT
BRANCH   1   8
ATOM      8  C   LIG A   1      -0.628   0.409  -0.867  0.00  0.00    +0.034 C 
ATOM      9  C   LIG A   1      -1.484  -0.679  -1.552  0.00  0.00    +0.011 C 
BRANCH   8  10
ATOM     10  C   LIG A   1       0.824  -0.100  -0.652  0.00  0.00    +0.042 C 
BRANCH  10  11
ATOM     11  C   LIG A   1       1.571  -0.511  -1.910  0.00  0.00    -0.043 A 
ATOM     12  C   LIG A   1       2.078  -1.817  -2.041  0.00  0.00    +0.053 A 
ATOM     13  C   LIG A   1       2.790  -2.136  -3.182  0.00  0.00    +0.167 A 
ATOM     14  C   LIG A   1       3.025  -1.212  -4.171  0.00  0.00    +0.166 A 
ATOM     15  C   LIG A   1       2.548   0.077  -4.081  0.00  0.00    +0.050 A 
ATOM     16  C   LIG A   1       1.809   0.425  -2.943  0.00  0.00    +0.007 A 
ATOM     17  O   LIG A   1       3.755  -1.721  -5.199  0.00  0.00    -0.453 OA
ATOM     18  C   LIG A   1       3.942  -3.080  -4.752  0.00  0.00    +0.466 C 
ATOM     19  O   LIG A   1       3.334  -3.350  -3.471  0.00  0.00    -0.453 OA
ENDBRANCH  10  11
ENDBRANCH   8  10
ENDBRANCH   1   8
BRANCH   1  20
ATOM     20  O   LIG A   1      -2.629   1.392   0.052  0.00  0.00    -0.364 OA
ATOM     21  C   LIG A   1      -3.462   1.963   1.051  0.00  0.00    +0.195 C 
ENDBRANCH   1  20
BRANCH   2  22
ATOM     22  O   LIG A   1      -0.503   3.238   0.204  0.00  0.00    -0.496 OA
ATOM     23  C   LIG A   1       0.585   4.145   0.334  0.00  0.00    +0.277 C 
ENDBRANCH   2  22
BRANCH   6  24
ATOM     24  C   LIG A   1      -0.943  -1.468   3.546  0.00  0.00    +0.065 C 
BRANCH  24  25
ATOM     25  C   LIG A   1      -2.080  -1.408   4.526  0.00  0.00    -0.030 C 
ATOM     26  C   LIG A   1      -2.714  -2.493   4.992  0.00  0.00    +0.004 C 
ENDBRANCH  24  25
ENDBRANCH   6  24
TORSDOF 7
