REMARK  Name = NuBBE_1480
REMARK  10 active torsions:
REMARK  status: ('A' for Active; 'I' for Inactive)
REMARK    1  A    between atoms: C_1  and  C_9
REMARK    2  A    between atoms: C_1  and  C_15
REMARK    3  A    between atoms: C_2  and  C_3
REMARK    4  A    between atoms: C_3  and  C_4
REMARK    5  A    between atoms: C_4  and  C_5
REMARK    6  A    between atoms: C_5  and  C_7
REMARK    7  A    between atoms: C_9  and  C_10
REMARK    8  A    between atoms: C_10  and  C_11
REMARK    9  A    between atoms: C_12  and  C_13
REMARK   10  A    between atoms: C_12  and  C_14
REMARK                            x       y       z     vdW  Elec       q    Type
REMARK                         _______ _______ _______ _____ _____    ______ ____
ROOT
ATOM      1  C   LIG A   1       0.148   0.104   0.169  0.00  0.00    -0.076 C 
ATOM      2  C   LIG A   1      -0.261   1.100  -0.641  0.00  0.00    -0.027 C 
ATOM      3  C   LIG A   1       1.591  -0.291   0.320  0.00  0.00    +0.038 C 
ENDROOT
BRANCH   2   4
ATOM      4  C   LIG A   1       0.621   2.004  -1.461  0.00  0.00    +0.032 C 
BRANCH   4   5
ATOM      5  C   LIG A   1       0.779   1.480  -2.899  0.00  0.00    +0.038 C 
BRANCH   5   6
ATOM      6  C   LIG A   1       1.600   2.374  -3.811  0.00  0.00    -0.055 C 
ATOM      7  C   LIG A   1       2.756   1.931  -4.343  0.00  0.00    +0.012 C 
BRANCH   6   8
ATOM      8  C   LIG A   1       1.124   3.707  -4.156  0.00  0.00    -0.005 C 
ATOM      9  C   LIG A   1      -0.030   4.277  -3.757  0.00  0.00    +0.008 C 
ENDBRANCH   6   8
ENDBRANCH   5   6
ENDBRANCH   4   5
ENDBRANCH   2   4
BRANCH   1  10
ATOM     10  C   LIG A   1      -0.859  -0.740   0.932  0.00  0.00    +0.034 C 
BRANCH  10  11
ATOM     11  C   LIG A   1      -0.677  -0.719   2.457  0.00  0.00    +0.031 C 
BRANCH  11  12
ATOM     12  C   LIG A   1      -1.708  -1.584   3.136  0.00  0.00    -0.028 C 
ATOM     13  C   LIG A   1      -1.587  -2.881   3.482  0.00  0.00    -0.080 C 
ATOM     14  C   LIG A   1      -0.364  -3.725   3.247  0.00  0.00    +0.038 C 
ATOM     15  C   LIG A   1      -2.733  -3.619   4.125  0.00  0.00    +0.038 C 
ENDBRANCH  11  12
ENDBRANCH  10  11
ENDBRANCH   1  10
TORSDOF 7
