REMARK  Name = NuBBE_426
REMARK  8 active torsions:
REMARK  status: ('A' for Active; 'I' for Inactive)
REMARK    1  A    between atoms: O_1  and  C_2
REMARK    2  A    between atoms: C_4  and  O_5
REMARK    3  A    between atoms: C_9  and  C_17
REMARK    4  A    between atoms: C_10  and  O_13
REMARK    5  A    between atoms: O_13  and  C_14
REMARK    6  A    between atoms: C_14  and  C_15
REMARK    7  A    between atoms: C_20  and  O_24
REMARK    8  A    between atoms: C_21  and  O_22
REMARK                            x       y       z     vdW  Elec       q    Type
REMARK                         _______ _______ _______ _____ _____    ______ ____
ROOT
ATOM      1  C   LIG A   1      -3.971   1.993  -0.727  0.00  0.00    +0.124 A 
ATOM      2  C   LIG A   1      -3.336   3.213  -0.926  0.00  0.00    +0.091 A 
ATOM      3  C   LIG A   1      -1.941   3.247  -0.985  0.00  0.00    +0.127 A 
ATOM      4  C   LIG A   1      -1.176   2.082  -0.844  0.00  0.00    +0.040 A 
ATOM      5  C   LIG A   1      -1.845   0.867  -0.664  0.00  0.00    +0.132 A 
ATOM      6  O   LIG A   1      -1.213  -0.334  -0.505  0.00  0.00    -0.480 OA
ATOM      7  C   LIG A   1       0.174  -0.357  -0.878  0.00  0.00    +0.244 C 
ATOM      8  C   LIG A   1       0.955   0.852  -0.339  0.00  0.00    +0.226 C 
ATOM      9  C   LIG A   1       0.328   2.130  -0.903  0.00  0.00    +0.091 C 
ATOM     10  C   LIG A   1      -3.237   0.823  -0.594  0.00  0.00    +0.091 A 
ENDROOT
BRANCH   7  11
ATOM     11  C   LIG A   1       0.761  -1.695  -0.454  0.00  0.00    -0.000 A 
ATOM     12  C   LIG A   1       0.273  -2.386   0.673  0.00  0.00    +0.011 A 
ATOM     13  C   LIG A   1       0.767  -3.648   1.018  0.00  0.00    +0.049 A 
ATOM     14  C   LIG A   1       1.760  -4.221   0.236  0.00  0.00    +0.158 A 
ATOM     15  C   LIG A   1       2.265  -3.539  -0.867  0.00  0.00    +0.159 A 
ATOM     16  C   LIG A   1       1.786  -2.283  -1.213  0.00  0.00    +0.056 A 
BRANCH  15  17
ATOM     17  O   LIG A   1       3.234  -4.117  -1.638  0.00  0.00    -0.503 OA
ATOM     18  H   LIG A   1       3.389  -4.988  -1.219  0.00  0.00    +0.292 HD
ENDBRANCH  15  17
BRANCH  14  19
ATOM     19  O   LIG A   1       2.269  -5.460   0.509  0.00  0.00    -0.503 OA
ATOM     20  H   LIG A   1       1.828  -5.795   1.308  0.00  0.00    +0.292 HD
ENDBRANCH  14  19
ENDBRANCH   7  11
BRANCH   1  21
ATOM     21  O   LIG A   1      -5.330   1.897  -0.654  0.00  0.00    -0.506 OA
ATOM     22  H   LIG A   1      -5.718   2.782  -0.751  0.00  0.00    +0.292 HD
ENDBRANCH   1  21
BRANCH   3  23
ATOM     23  O   LIG A   1      -1.290   4.435  -1.176  0.00  0.00    -0.506 OA
ATOM     24  H   LIG A   1      -1.942   5.154  -1.205  0.00  0.00    +0.292 HD
ENDBRANCH   3  23
BRANCH   8  25
ATOM     25  O   LIG A   1       0.881   0.934   1.105  0.00  0.00    -0.457 OA
BRANCH  25  26
ATOM     26  C   LIG A   1       2.061   0.921   1.773  0.00  0.00    +0.304 C 
ATOM     27  C   LIG A   1       1.837   1.179   3.229  0.00  0.00    +0.136 C 
ATOM     28  O   LIG A   1       3.165   0.742   1.274  0.00  0.00    -0.251 OA
ENDBRANCH  25  26
ENDBRANCH   8  25
TORSDOF 7
