@<TRIPOS>MOLECULE
NuBBE_1848
 37 38 0 0 0
SMALL
GASTEIGER

@<TRIPOS>ATOM
      1 O           2.3434    3.0330   -0.9786 O.3     1  LIG1       -0.5059
      2 C           1.2524    3.0900   -0.1567 C.ar    1  LIG1        0.1308
      3 C           0.8493    1.9655    0.5721 C.ar    1  LIG1        0.0590
      4 C           1.5414    0.6498    0.4977 C.2     1  LIG1        0.1670
      5 C           2.1155    0.1910   -0.8354 C.3     1  LIG1        0.0146
      6 C           2.0481   -1.3228   -1.0448 C.3     1  LIG1       -0.0206
      7 C           0.6447   -1.8753   -1.1462 C.ar    1  LIG1       -0.0433
      8 C          -0.0092   -2.3212    0.0161 C.ar    1  LIG1       -0.0131
      9 C          -1.2997   -2.8437   -0.0430 C.ar    1  LIG1        0.1615
     10 O          -2.0310   -3.3036    1.0227 O.3     1  LIG1       -0.4915
     11 C          -1.4036   -3.2080    2.2987 C.3     1  LIG1        0.0790
     12 C          -1.9320   -2.9244   -1.2867 C.ar    1  LIG1        0.1585
     13 O          -3.1943   -3.4460   -1.3830 O.3     1  LIG1       -0.5033
     14 C          -1.3073   -2.4891   -2.4492 C.ar    1  LIG1       -0.0163
     15 C          -0.0172   -1.9591   -2.3792 C.ar    1  LIG1       -0.0549
     16 O           1.6300   -0.0281    1.5196 O.2     1  LIG1       -0.2919
     17 C          -0.2355    2.0744    1.4575 C.ar    1  LIG1       -0.0443
     18 C          -0.9240    3.2820    1.5936 C.ar    1  LIG1       -0.0193
     19 C          -0.5184    4.3829    0.8462 C.ar    1  LIG1        0.1204
     20 O          -1.1599    5.5825    0.9409 O.3     1  LIG1       -0.5066
     21 C           0.5664    4.2995   -0.0217 C.ar    1  LIG1        0.0220
     22 H           2.4998    3.9139   -1.3606 H       1  LIG1        0.2922
     23 H           3.1684    0.4966   -0.8506 H       1  LIG1        0.0348
     24 H           1.5964    0.6898   -1.6590 H       1  LIG1        0.0348
     25 H           2.5839   -1.8452   -0.2409 H       1  LIG1        0.0317
     26 H           2.5891   -1.5762   -1.9662 H       1  LIG1        0.0317
     27 H           0.5235   -2.2504    0.9601 H       1  LIG1        0.0658
     28 H          -2.0869   -3.6310    3.0409 H       1  LIG1        0.0660
     29 H          -1.2209   -2.1624    2.5698 H       1  LIG1        0.0660
     30 H          -0.4786   -3.7937    2.3304 H       1  LIG1        0.0660
     31 H          -3.4257   -3.7036   -0.4693 H       1  LIG1        0.2923
     32 H          -1.8207   -2.5697   -3.4026 H       1  LIG1        0.0655
     33 H           0.4699   -1.6288   -3.2930 H       1  LIG1        0.0621
     34 H          -0.5447    1.2131    2.0472 H       1  LIG1        0.0627
     35 H          -1.7581    3.3446    2.2855 H       1  LIG1        0.0654
     36 H          -1.9204    5.4870    1.5388 H       1  LIG1        0.2921
     37 H           0.8659    5.1866   -0.5715 H       1  LIG1        0.0691
@<TRIPOS>BOND
     1     1     2    1
     2     2     3   ar
     3     3     4    1
     4     4     5    1
     5     5     6    1
     6     6     7    1
     7     7     8   ar
     8     8     9   ar
     9     9    10    1
    10    10    11    1
    11     9    12   ar
    12    12    13    1
    13    12    14   ar
    14    14    15   ar
    15     7    15   ar
    16     4    16    2
    17     3    17   ar
    18    17    18   ar
    19    18    19   ar
    20    19    20    1
    21    19    21   ar
    22     2    21   ar
    23     1    22    1
    24     5    23    1
    25     5    24    1
    26     6    25    1
    27     6    26    1
    28     8    27    1
    29    11    28    1
    30    11    29    1
    31    11    30    1
    32    13    31    1
    33    14    32    1
    34    15    33    1
    35    17    34    1
    36    18    35    1
    37    20    36    1
    38    21    37    1
