REMARK  Name = NuBBE_1009
REMARK  4 active torsions:
REMARK  status: ('A' for Active; 'I' for Inactive)
REMARK    1  A    between atoms: C_4  and  O_5
REMARK    2  A    between atoms: C_6  and  O_7
REMARK    3  A    between atoms: C_8  and  O_9
REMARK    4  A    between atoms: C_13  and  C_14
REMARK                            x       y       z     vdW  Elec       q    Type
REMARK                         _______ _______ _______ _____ _____    ______ ____
ROOT
ATOM      1  O   LIG A   1      -2.697   1.238   0.000  0.00  0.00    -0.244 OA
ATOM      2  C   LIG A   1      -1.468   1.237   0.001  0.00  0.00    +0.348 A 
ATOM      3  C   LIG A   1      -0.734  -0.045   0.001  0.00  0.00    +0.112 A 
ATOM      4  C   LIG A   1      -1.429  -1.262  -0.000  0.00  0.00    +0.177 A 
ATOM      5  C   LIG A   1      -0.718  -2.457  -0.001  0.00  0.00    +0.201 A 
ATOM      6  C   LIG A   1       0.670  -2.451  -0.001  0.00  0.00    +0.163 A 
ATOM      7  C   LIG A   1       1.372  -1.253   0.001  0.00  0.00    +0.058 A 
ATOM      8  C   LIG A   1       0.668  -0.041   0.001  0.00  0.00    -0.001 A 
ATOM      9  C   LIG A   1       1.383   1.227   0.002  0.00  0.00    +0.050 A 
ATOM     10  C   LIG A   1       0.683   2.367   0.001  0.00  0.00    +0.107 A 
ATOM     11  C   LIG A   1       1.311   3.724   0.001  0.00  0.00    +0.086 C 
ATOM     12  O   LIG A   1      -0.731   2.385   0.001  0.00  0.00    -0.427 OA
ENDROOT
BRANCH   4  13
ATOM     13  O   LIG A   1      -2.798  -1.368  -0.001  0.00  0.00    -0.503 OA
ATOM     14  H   LIG A   1      -3.177  -0.458  -0.001  0.00  0.00    +0.292 HD
ENDBRANCH   4  13
BRANCH   5  15
ATOM     15  O   LIG A   1      -1.375  -3.658  -0.002  0.00  0.00    -0.501 OA
ATOM     16  H   LIG A   1      -2.325  -3.416  -0.002  0.00  0.00    +0.292 HD
ENDBRANCH   5  15
BRANCH   6  17
ATOM     17  O   LIG A   1       1.360  -3.628  -0.003  0.00  0.00    -0.503 OA
ATOM     18  H   LIG A   1       0.670  -4.323  -0.005  0.00  0.00    +0.292 HD
ENDBRANCH   6  17
TORSDOF 3
