@<TRIPOS>MOLECULE
NuBBE_1196
 86 89 0 0 0
SMALL
GASTEIGER

@<TRIPOS>ATOM
      1 C          -1.7744   -2.6811    2.4613 C.3     1  LIG1       -0.0331
      2 C          -1.1089   -1.3662    2.9421 C.3     1  LIG1        0.0961
      3 O           0.2515   -1.3264    2.4570 O.3     1  LIG1       -0.3647
      4 C           1.0653   -2.1860    3.2968 C.3     1  LIG1        0.0900
      5 C           2.5241   -1.6696    3.3730 C.3     1  LIG1        0.0866
      6 C           3.4014   -2.5953    4.2212 C.3     1  LIG1       -0.0339
      7 O           3.0688   -1.6911    2.0428 O.3     1  LIG1       -0.3866
      8 C           2.6329   -0.2294    3.8764 C.3     1  LIG1       -0.0339
      9 H           1.0831   -3.1558    2.7812 H       1  LIG1        0.0625
     10 C           0.3283   -2.3378    4.6247 C.3     1  LIG1        0.0049
     11 C          -0.8949   -1.4463    4.4774 C.3     1  LIG1        0.0866
     12 O          -2.0029   -1.9351    5.2168 O.3     1  LIG1       -0.3889
     13 C          -1.9163   -0.0745    2.5036 C.3     1  LIG1       -0.0063
     14 H          -2.8845   -0.1890    3.0176 H       1  LIG1        0.0332
     15 C          -1.3083    1.2381    3.0222 C.3     1  LIG1       -0.0467
     16 C          -1.2799    2.2770    1.9028 C.3     1  LIG1       -0.0464
     17 C          -1.6417    1.6021    0.5558 C.3     1  LIG1       -0.0209
     18 C          -2.7430    2.5027   -0.0841 C.3     1  LIG1       -0.0587
     19 C          -0.4289    1.3693   -0.4967 C.3     1  LIG1        0.0029
     20 C          -0.9690    0.5760   -1.7518 C.3     1  LIG1       -0.0268
     21 C          -2.0820   -0.4555   -1.4222 C.3     1  LIG1       -0.0488
     22 C          -2.1035   -0.8921    0.0228 C.3     1  LIG1       -0.0491
     23 C          -2.2887    0.2426    1.0128 C.3     1  LIG1       -0.0295
     24 C           0.7252    0.6550    0.2456 C.3     1  LIG1       -0.0564
     25 C           0.1417    2.6681   -1.1580 C.3     1  LIG1        0.0619
     26 H          -0.6381    3.1807   -1.7343 H       1  LIG1        0.0599
     27 O           0.5807    3.5936   -0.1681 O.3     1  LIG1       -0.3912
     28 C           1.3229    2.3835   -2.1086 C.3     1  LIG1       -0.0193
     29 C           1.1850    1.2420   -3.1646 C.3     1  LIG1       -0.0124
     30 C           0.1163    0.0819   -2.8104 C.3     1  LIG1       -0.0216
     31 C           0.8279   -1.1918   -2.2788 C.3     1  LIG1       -0.0587
     32 C          -0.6676   -0.3627   -4.1353 C.3     1  LIG1       -0.0367
     33 C          -1.5684    0.7026   -4.7847 C.3     1  LIG1        0.0453
     34 C          -2.2779    0.2080   -6.0250 C.2     1  LIG1        0.3047
     35 O          -3.5171   -0.2569   -5.7282 O.3     1  LIG1       -0.4806
     36 O          -1.8685    0.2367   -7.1523 O.2     1  LIG1       -0.2510
     37 C           2.5895    0.8164   -3.7232 C.2     1  LIG1       -0.0760
     38 C           3.8329    0.9301   -2.8566 C.3     1  LIG1       -0.0438
     39 C           2.8111    0.4482   -5.0008 C.2     1  LIG1       -0.0994
     40 H          -1.3791   -3.5574    2.9873 H       1  LIG1        0.0258
     41 H          -1.5569   -2.9148    1.4193 H       1  LIG1        0.0258
     42 H          -2.8567   -2.6670    2.6160 H       1  LIG1        0.0258
     43 H           3.3621   -3.6234    3.8435 H       1  LIG1        0.0258
     44 H           3.1023   -2.6018    5.2735 H       1  LIG1        0.0258
     45 H           4.4532   -2.2902    4.1715 H       1  LIG1        0.0258
     46 H           2.4087   -1.2447    1.4782 H       1  LIG1        0.2102
     47 H           2.1620   -0.0975    4.8544 H       1  LIG1        0.0258
     48 H           2.1811    0.4744    3.1707 H       1  LIG1        0.0258
     49 H           3.6851    0.0679    3.9643 H       1  LIG1        0.0258
     50 H           0.9207   -2.0495    5.4978 H       1  LIG1        0.0317
     51 H           0.0608   -3.3891    4.7885 H       1  LIG1        0.0317
     52 H          -0.6375   -0.4692    4.8956 H       1  LIG1        0.0623
     53 H          -2.1419   -2.8726    4.9994 H       1  LIG1        0.2099
     54 H          -0.2981    1.1079    3.4188 H       1  LIG1        0.0269
     55 H          -1.9168    1.6195    3.8538 H       1  LIG1        0.0269
     56 H          -0.3078    2.7750    1.8900 H       1  LIG1        0.0271
     57 H          -1.9967    3.0686    2.1598 H       1  LIG1        0.0271
     58 H          -2.3653    3.5089   -0.2935 H       1  LIG1        0.0235
     59 H          -3.5976    2.6256    0.5940 H       1  LIG1        0.0235
     60 H          -3.1469    2.0948   -1.0125 H       1  LIG1        0.0235
     61 H          -1.5243    1.3399   -2.3083 H       1  LIG1        0.0312
     62 H          -2.0070   -1.3611   -2.0273 H       1  LIG1        0.0268
     63 H          -3.0616   -0.0313   -1.6798 H       1  LIG1        0.0268
     64 H          -1.1672   -1.4146    0.1991 H       1  LIG1        0.0268
     65 H          -2.9140   -1.6185    0.1566 H       1  LIG1        0.0268
     66 H          -3.3766    0.4192    1.0408 H       1  LIG1        0.0310
     67 H           0.8284    0.9963    1.2753 H       1  LIG1        0.0236
     68 H           1.7101    0.8171   -0.1906 H       1  LIG1        0.0236
     69 H           0.5922   -0.4221    0.2670 H       1  LIG1        0.0236
     70 H           0.8826    4.3965   -0.6264 H       1  LIG1        0.2098
     71 H           2.2079    2.2458   -1.4840 H       1  LIG1        0.0296
     72 H           1.5511    3.3143   -2.6498 H       1  LIG1        0.0296
     73 H           0.7380    1.7741   -4.0131 H       1  LIG1        0.0352
     74 H           1.6696   -0.9571   -1.6243 H       1  LIG1        0.0235
     75 H           1.2182   -1.8155   -3.0894 H       1  LIG1        0.0235
     76 H           0.1504   -1.8340   -1.7061 H       1  LIG1        0.0235
     77 H           0.0381   -0.7497   -4.8795 H       1  LIG1        0.0276
     78 H          -1.3096   -1.2239   -3.9094 H       1  LIG1        0.0276
     79 H          -1.0142    1.6005   -5.0712 H       1  LIG1        0.0378
     80 H          -2.3528    1.0328   -4.0970 H       1  LIG1        0.0378
     81 H          -3.9091   -0.4775   -6.5977 H       1  LIG1        0.2951
     82 H           4.7519    0.7340   -3.4269 H       1  LIG1        0.0274
     83 H           3.8126    0.2214   -2.0260 H       1  LIG1        0.0274
     84 H           3.9654    1.9477   -2.4771 H       1  LIG1        0.0274
     85 H           3.8173    0.1845   -5.3329 H       1  LIG1        0.0534
     86 H           2.0439    0.4038   -5.7625 H       1  LIG1        0.0534
@<TRIPOS>BOND
     1     2     3    1
     2     3     4    1
     3     4     5    1
     4     5     6    1
     5     5     7    1
     6     5     8    1
     7     4     9    1
     8     4    10    1
     9    10    11    1
    10     2    11    1
    11    11    12    1
    12    13    15    1
    13    15    16    1
    14    16    17    1
    15    17    19    1
    16    19    20    1
    17    20    21    1
    18    21    22    1
    19    22    23    1
    20    17    23    1
    21    13    23    1
    22    19    25    1
    23    25    28    1
    24    28    29    1
    25    29    30    1
    26    20    30    1
    27    32    33    1
    28    33    34    1
    29    34    35    1
    30    34    36    2
    31    37    38    1
    32    37    39    2
    33    13    14    1
    34    17    18    1
    35    19    24    1
    36    29    37    1
    37     2    13    1
    38     2     1    1
    39    25    27    1
    40    25    26    1
    41    30    32    1
    42    30    31    1
    43     1    40    1
    44     1    41    1
    45     1    42    1
    46     6    43    1
    47     6    44    1
    48     6    45    1
    49     7    46    1
    50     8    47    1
    51     8    48    1
    52     8    49    1
    53    10    50    1
    54    10    51    1
    55    11    52    1
    56    12    53    1
    57    15    54    1
    58    15    55    1
    59    16    56    1
    60    16    57    1
    61    18    58    1
    62    18    59    1
    63    18    60    1
    64    20    61    1
    65    21    62    1
    66    21    63    1
    67    22    64    1
    68    22    65    1
    69    23    66    1
    70    24    67    1
    71    24    68    1
    72    24    69    1
    73    27    70    1
    74    28    71    1
    75    28    72    1
    76    29    73    1
    77    31    74    1
    78    31    75    1
    79    31    76    1
    80    32    77    1
    81    32    78    1
    82    33    79    1
    83    33    80    1
    84    35    81    1
    85    38    82    1
    86    38    83    1
    87    38    84    1
    88    39    85    1
    89    39    86    1
