@<TRIPOS>MOLECULE
NuBBE_1260
 90 91 0 0 0
SMALL
GASTEIGER

@<TRIPOS>ATOM
      1 O          -2.0173    1.4804    1.1001 O.2     1  LIG1       -0.2912
      2 C          -1.1329    1.4908    0.2404 C.2     1  LIG1        0.1767
      3 C          -0.4151    2.8103    0.0207 C.2     1  LIG1        0.0420
      4 C          -0.8502    4.1235    0.7337 C.3     1  LIG1        0.0010
      5 C          -1.9533    4.9248   -0.0302 C.3     1  LIG1       -0.0457
      6 C          -3.2837    4.2233   -0.3241 C.3     1  LIG1       -0.0553
      7 C          -4.0696    3.8181    0.9089 C.3     1  LIG1       -0.0653
      8 C          -1.1767    4.0533    2.2446 C.3     1  LIG1        0.0519
      9 C          -0.0303    3.6442    3.0824 C.2     1  LIG1        0.3074
     10 O          -0.4155    2.9594    4.1759 O.3     1  LIG1       -0.4679
     11 C           0.4799    1.9143    4.4913 C.3     1  LIG1        0.0817
     12 O           1.1951    3.7861    2.7432 O.2     1  LIG1       -0.2508
     13 C           0.7153    2.7155   -0.6955 C.2     1  LIG1        0.1414
     14 O           1.7243    3.6926   -0.6572 O.2     1  LIG1       -0.4872
     15 C           3.0204    3.0416   -0.4841 C.3     1  LIG1        0.1070
     16 H           2.9289    2.3213    0.3457 H       1  LIG1        0.0737
     17 C           4.0912    4.0477   -0.1068 C.3     1  LIG1       -0.0271
     18 C           3.4676    2.3427   -1.7792 C.3     1  LIG1        0.0562
     19 H           3.9481    3.0399   -2.4732 H       1  LIG1        0.0414
     20 C           4.4935    1.2266   -1.4468 C.3     1  LIG1       -0.0519
     21 C           2.1658    1.9154   -2.4696 C.2     1  LIG1        0.1762
     22 O           2.0594    1.7538   -3.6743 O.2     1  LIG1       -0.2914
     23 C           1.0578    1.5752   -1.5020 C.2     1  LIG1        0.0981
     24 C           0.5488    0.3329   -1.3216 C.2     1  LIG1        0.1252
     25 O           1.0659   -0.8016   -1.9507 O.2     1  LIG1       -0.4975
     26 C           2.4851   -0.8695   -2.0361 C.3     1  LIG1        0.0784
     27 C          -0.7414    0.1043   -0.4847 C.3     1  LIG1        0.0950
     28 C          -1.9536   -0.1648   -1.4593 C.3     1  LIG1       -0.0148
     29 C          -1.9885   -1.3984   -2.3489 C.2     1  LIG1       -0.0839
     30 C          -3.1362   -1.9385   -2.8182 C.2     1  LIG1       -0.0796
     31 C          -4.4778   -1.2816   -2.6197 C.3     1  LIG1       -0.0440
     32 C          -3.1865   -3.2642   -3.5349 C.3     1  LIG1       -0.0440
     33 C          -0.7786   -0.9493    0.7789 C.3     1  LIG1       -0.0262
     34 C          -0.6631   -2.5341    0.7442 C.3     1  LIG1       -0.0157
     35 C           0.7471   -2.9711    0.2422 C.3     1  LIG1       -0.0280
     36 C           1.0574   -4.4481    0.1538 C.2     1  LIG1       -0.0847
     37 C           2.2755   -5.0319    0.2102 C.2     1  LIG1       -0.0796
     38 C           3.5699   -4.2994    0.4461 C.3     1  LIG1       -0.0440
     39 C           2.4246   -6.5131   -0.0369 C.3     1  LIG1       -0.0440
     40 C          -1.1174   -3.2310    2.0952 C.2     1  LIG1       -0.0763
     41 C          -2.5157   -3.8312    2.2085 C.3     1  LIG1       -0.0438
     42 C          -0.3579   -3.4202    3.1934 C.2     1  LIG1       -0.0994
     43 H           0.0173    4.8018    0.6845 H       1  LIG1        0.0356
     44 H          -1.5387    5.2653   -0.9909 H       1  LIG1        0.0271
     45 H          -2.1679    5.8533    0.5215 H       1  LIG1        0.0271
     46 H          -3.1112    3.3514   -0.9626 H       1  LIG1        0.0263
     47 H          -3.9179    4.9070   -0.9046 H       1  LIG1        0.0263
     48 H          -3.5507    3.0700    1.4933 H       1  LIG1        0.0230
     49 H          -5.0151    3.3489    0.6302 H       1  LIG1        0.0230
     50 H          -4.2661    4.6742    1.5603 H       1  LIG1        0.0230
     51 H          -1.9371    3.3094    2.4605 H       1  LIG1        0.0383
     52 H          -1.5560    5.0126    2.6183 H       1  LIG1        0.0383
     53 H           0.7103    1.3610    3.5727 H       1  LIG1        0.0661
     54 H          -0.0107    1.2233    5.1789 H       1  LIG1        0.0661
     55 H           1.3960    2.3000    4.9460 H       1  LIG1        0.0661
     56 H           3.8471    4.5355    0.8368 H       1  LIG1        0.0265
     57 H           4.1745    4.8155   -0.8808 H       1  LIG1        0.0265
     58 H           5.0678    3.5598   -0.0009 H       1  LIG1        0.0265
     59 H           5.4612    1.6047   -1.1122 H       1  LIG1        0.0238
     60 H           4.7097    0.5825   -2.3096 H       1  LIG1        0.0238
     61 H           4.1384    0.5943   -0.6216 H       1  LIG1        0.0238
     62 H           2.8998   -1.4867   -2.8372 H       1  LIG1        0.0660
     63 H           2.9483   -1.0434   -1.0605 H       1  LIG1        0.0660
     64 H           2.8499    0.0493   -2.4002 H       1  LIG1        0.0660
     65 H          -2.1057    0.7168   -2.1008 H       1  LIG1        0.0321
     66 H          -2.8471   -0.2259   -0.8239 H       1  LIG1        0.0321
     67 H          -1.0467   -1.8916   -2.5811 H       1  LIG1        0.0572
     68 H          -4.9421   -1.6630   -1.7062 H       1  LIG1        0.0274
     69 H          -5.1487   -1.4766   -3.4629 H       1  LIG1        0.0274
     70 H          -4.3934   -0.1923   -2.5430 H       1  LIG1        0.0274
     71 H          -2.2092   -3.7547   -3.5793 H       1  LIG1        0.0274
     72 H          -3.5591   -3.1515   -4.5588 H       1  LIG1        0.0274
     73 H          -3.8655   -3.9413   -3.0020 H       1  LIG1        0.0274
     74 H          -1.7686   -0.7981    1.2377 H       1  LIG1        0.0285
     75 H          -0.0653   -0.5673    1.5228 H       1  LIG1        0.0285
     76 H          -1.3834   -2.8848   -0.0037 H       1  LIG1        0.0349
     77 H           1.5313   -2.4306    0.7841 H       1  LIG1        0.0313
     78 H           0.7963   -2.6577   -0.7987 H       1  LIG1        0.0313
     79 H           0.1933   -5.0813   -0.0415 H       1  LIG1        0.0572
     80 H           3.5928   -3.3325   -0.0645 H       1  LIG1        0.0274
     81 H           4.4254   -4.8699    0.0635 H       1  LIG1        0.0274
     82 H           3.7324   -4.1481    1.5175 H       1  LIG1        0.0274
     83 H           1.5930   -6.9101   -0.6289 H       1  LIG1        0.0274
     84 H           2.4786   -7.0595    0.9088 H       1  LIG1        0.0274
     85 H           3.3363   -6.7250   -0.6084 H       1  LIG1        0.0274
     86 H          -2.9894   -4.0269    1.2451 H       1  LIG1        0.0274
     87 H          -3.1664   -3.1777    2.8022 H       1  LIG1        0.0274
     88 H          -2.4895   -4.7993    2.7376 H       1  LIG1        0.0274
     89 H           0.6595   -3.0740    3.3017 H       1  LIG1        0.0534
     90 H          -0.7678   -3.9573    4.0548 H       1  LIG1        0.0534
@<TRIPOS>BOND
     1     1     2    2
     2     2     3    1
     3     3     4    1
     4     4     5    1
     5     5     6    1
     6     6     7    1
     7     4     8    1
     8     8     9    1
     9     9    10    1
    10    10    11    1
    11     9    12    2
    12     3    13    2
    13    13    14    1
    14    14    15    1
    15    15    16    1
    16    15    17    1
    17    15    18    1
    18    18    19    1
    19    18    20    1
    20    18    21    1
    21    21    22    2
    22    13    23    1
    23    21    23    1
    24    23    24    2
    25    24    25    1
    26    25    26    1
    27    24    27    1
    28    27    28    1
    29    28    29    1
    30    29    30    2
    31    30    31    1
    32    30    32    1
    33     2    27    1
    34    27    33    1
    35    33    34    1
    36    34    35    1
    37    35    36    1
    38    36    37    2
    39    37    38    1
    40    37    39    1
    41    34    40    1
    42    40    41    1
    43    40    42    2
    44     4    43    1
    45     5    44    1
    46     5    45    1
    47     6    46    1
    48     6    47    1
    49     7    48    1
    50     7    49    1
    51     7    50    1
    52     8    51    1
    53     8    52    1
    54    11    53    1
    55    11    54    1
    56    11    55    1
    57    17    56    1
    58    17    57    1
    59    17    58    1
    60    20    59    1
    61    20    60    1
    62    20    61    1
    63    26    62    1
    64    26    63    1
    65    26    64    1
    66    28    65    1
    67    28    66    1
    68    29    67    1
    69    31    68    1
    70    31    69    1
    71    31    70    1
    72    32    71    1
    73    32    72    1
    74    32    73    1
    75    33    74    1
    76    33    75    1
    77    34    76    1
    78    35    77    1
    79    35    78    1
    80    36    79    1
    81    38    80    1
    82    38    81    1
    83    38    82    1
    84    39    83    1
    85    39    84    1
    86    39    85    1
    87    41    86    1
    88    41    87    1
    89    41    88    1
    90    42    89    1
    91    42    90    1
