REMARK  Name = NuBBE_1180
REMARK  4 active torsions:
REMARK  status: ('A' for Active; 'I' for Inactive)
REMARK    1  A    between atoms: C_1  and  O_2
REMARK    2  A    between atoms: O_2  and  C_3
REMARK    3  A    between atoms: C_4  and  O_5
REMARK    4  A    between atoms: O_5  and  C_6
REMARK                            x       y       z     vdW  Elec       q    Type
REMARK                         _______ _______ _______ _____ _____    ______ ____
ROOT
ATOM      1  C   LIG A   1      -0.635  -1.041  -0.662  0.00  0.00    +0.162 A 
ATOM      2  C   LIG A   1      -0.841   0.351  -0.605  0.00  0.00    +0.165 A 
ATOM      3  C   LIG A   1      -0.029   1.120   0.230  0.00  0.00    +0.096 A 
ATOM      4  C   LIG A   1       0.939   0.509   1.016  0.00  0.00    +0.143 A 
ATOM      5  O   LIG A   1       1.694   1.369   1.857  0.00  0.00    -0.422 OA
ATOM      6  C   LIG A   1       2.651   0.865   2.712  0.00  0.00    +0.337 A 
ATOM      7  C   LIG A   1       2.876  -0.587   2.668  0.00  0.00    +0.092 A 
ATOM      8  C   LIG A   1       2.187  -1.409   1.860  0.00  0.00    +0.019 A 
ATOM      9  O   LIG A   1       3.290   1.583   3.463  0.00  0.00    -0.245 OA
ATOM     10  C   LIG A   1       1.155  -0.860   0.993  0.00  0.00    +0.021 A 
ATOM     11  C   LIG A   1       0.361  -1.638   0.142  0.00  0.00    +0.061 A 
ENDROOT
BRANCH   1  13
ATOM     12  C   LIG A   1      -1.961  -1.453  -2.610  0.00  0.00    +0.277 C 
ATOM     13  O   LIG A   1      -1.350  -1.941  -1.417  0.00  0.00    -0.491 OA
ENDBRANCH   1  13
BRANCH   2  14
ATOM     14  O   LIG A   1      -1.849   0.890  -1.357  0.00  0.00    -0.491 OA
ATOM     15  C   LIG A   1      -2.066   2.292  -1.268  0.00  0.00    +0.277 C 
ENDBRANCH   2  14
TORSDOF 2
