@<TRIPOS>MOLECULE
NuBBE_48
 85 87 0 0 0
SMALL
GASTEIGER

@<TRIPOS>ATOM
      1 C          -1.7335    1.9123    1.8368 C.3     1  LIG1       -0.0584
      2 C          -1.5353    0.8730    0.7181 C.3     1  LIG1        0.0029
      3 H          -2.5760    0.6526    0.4592 H       1  LIG1        0.0340
      4 C          -1.0318   -0.4613    1.2927 C.3     1  LIG1        0.1438
      5 H          -1.1217   -0.3729    2.3740 H       1  LIG1        0.0775
      6 O          -1.9362   -1.5510    0.9141 O.3     1  LIG1       -0.4573
      7 C          -3.0015   -1.6460    1.7564 C.2     1  LIG1        0.3074
      8 C          -3.9216   -2.8151    1.4450 C.3     1  LIG1        0.0447
      9 C          -5.0767   -2.8179    2.4685 C.3     1  LIG1       -0.0458
     10 C          -6.1219   -3.8805    2.2105 C.3     1  LIG1       -0.0648
     11 O          -3.2411   -0.8565    2.6774 O.2     1  LIG1       -0.2508
     12 C           0.4398   -0.8182    1.0782 C.3     1  LIG1        0.1554
     13 H           0.5269   -1.8982    1.2776 H       1  LIG1        0.0783
     14 O           1.1950   -0.1527    2.1350 O.3     1  LIG1       -0.4567
     15 C           1.0999   -0.7821    3.3557 C.2     1  LIG1        0.3043
     16 C           1.7347    0.0070    4.4561 C.3     1  LIG1        0.0332
     17 O           0.5373   -1.8526    3.5543 O.2     1  LIG1       -0.2512
     18 C           1.0082   -0.6030   -0.3624 C.3     1  LIG1        0.1036
     19 C           0.7825   -1.8944   -1.1591 C.2     1  LIG1        0.0125
     20 C           1.8710   -2.8891   -0.8069 C.3     1  LIG1        0.2315
     21 H           1.5249   -3.7349   -0.2056 H       1  LIG1        0.1111
     22 O           2.6193   -3.3069   -1.9573 O.3     1  LIG1       -0.4311
     23 C           2.1606   -4.3846   -2.6378 C.2     1  LIG1        0.3063
     24 C           3.1569   -4.8190   -3.6744 C.3     1  LIG1        0.0333
     25 O           1.0882   -4.9458   -2.4547 O.2     1  LIG1       -0.2511
     26 O           2.7748   -2.1131    0.0096 O.3     1  LIG1       -0.2971
     27 C           2.5761   -0.7350   -0.3706 C.3     1  LIG1        0.2216
     28 H           2.9658   -0.5751   -1.3883 H       1  LIG1        0.1068
     29 O           3.2937    0.1410    0.5113 O.3     1  LIG1       -0.4341
     30 C           4.6507    0.0061    0.4168 C.2     1  LIG1        0.3061
     31 C           5.3794    0.8390    1.4352 C.3     1  LIG1        0.0333
     32 O           5.2477   -0.6782   -0.4064 O.2     1  LIG1       -0.2511
     33 C           0.0255   -2.0078   -2.2628 C.2     1  LIG1       -0.0497
     34 C          -0.3757   -0.8409   -3.0914 C.3     1  LIG1        0.0772
     35 H          -1.4557   -0.7251   -3.0337 H       1  LIG1        0.0640
     36 O          -0.0408   -1.2247   -4.4305 O.3     1  LIG1       -0.3757
     37 C          -0.5417   -0.3428   -5.4213 C.3     1  LIG1        0.0372
     38 C           0.4357    0.3957   -2.6713 C.3     1  LIG1       -0.0185
     39 C           0.4496    0.6546   -1.1304 C.3     1  LIG1       -0.0135
     40 H           1.2623    1.3800   -1.0374 H       1  LIG1        0.0319
     41 C          -0.8765    1.4177   -0.6141 C.3     1  LIG1       -0.0185
     42 C          -2.0697    1.3556   -1.6401 C.3     1  LIG1       -0.0586
     43 C          -0.5645    2.9800   -0.5891 C.3     1  LIG1       -0.0282
     44 C           0.5904    3.4746    0.2494 C.2     1  LIG1       -0.0806
     45 C           0.7084    4.6484    0.8994 C.2     1  LIG1       -0.0549
     46 C          -0.3040    5.6827    0.9708 C.2     1  LIG1       -0.0662
     47 C          -0.8153    6.3258   -0.0858 C.2     1  LIG1       -0.0985
     48 C           1.9847    4.9803    1.6296 C.3     1  LIG1       -0.0400
     49 H          -0.8095    2.4131    2.1210 H       1  LIG1        0.0234
     50 H          -2.1261    1.4507    2.7475 H       1  LIG1        0.0234
     51 H          -2.4812    2.6538    1.5359 H       1  LIG1        0.0234
     52 H          -3.3562   -3.7445    1.5139 H       1  LIG1        0.0377
     53 H          -4.3087   -2.6906    0.4310 H       1  LIG1        0.0377
     54 H          -5.5702   -1.8372    2.4613 H       1  LIG1        0.0268
     55 H          -4.6724   -2.9523    3.4792 H       1  LIG1        0.0268
     56 H          -6.5176   -3.8110    1.1920 H       1  LIG1        0.0230
     57 H          -6.9592   -3.7486    2.9047 H       1  LIG1        0.0230
     58 H          -5.7137   -4.8816    2.3640 H       1  LIG1        0.0230
     59 H           1.3820   -0.3914    5.4157 H       1  LIG1        0.0342
     60 H           1.4270    1.0536    4.4060 H       1  LIG1        0.0342
     61 H           2.8197   -0.0934    4.4120 H       1  LIG1        0.0342
     62 H           4.1686   -4.7525   -3.2640 H       1  LIG1        0.0342
     63 H           3.0716   -4.2096   -4.5767 H       1  LIG1        0.0342
     64 H           2.9705   -5.8663   -3.9206 H       1  LIG1        0.0342
     65 H           5.9270    1.6354    0.9232 H       1  LIG1        0.0342
     66 H           6.0856    0.2042    1.9815 H       1  LIG1        0.0342
     67 H           4.6923    1.2834    2.1571 H       1  LIG1        0.0342
     68 H          -0.1124   -2.9685   -2.7475 H       1  LIG1        0.0599
     69 H           0.1000    0.5392   -5.4884 H       1  LIG1        0.0524
     70 H          -1.5748   -0.0493   -5.2134 H       1  LIG1        0.0524
     71 H          -0.5128   -0.8627   -6.3819 H       1  LIG1        0.0524
     72 H           0.1118    1.2851   -3.2215 H       1  LIG1        0.0296
     73 H           1.4728    0.2616   -3.0133 H       1  LIG1        0.0296
     74 H          -2.4791    0.3457   -1.7225 H       1  LIG1        0.0235
     75 H          -1.8141    1.7280   -2.6353 H       1  LIG1        0.0235
     76 H          -2.9043    1.9857   -1.3024 H       1  LIG1        0.0235
     77 H          -0.3298    3.2814   -1.6200 H       1  LIG1        0.0313
     78 H          -1.4814    3.5223   -0.3279 H       1  LIG1        0.0313
     79 H           1.4452    2.8091    0.3231 H       1  LIG1        0.0575
     80 H          -0.6074    5.9857    1.9717 H       1  LIG1        0.0614
     81 H          -0.5136    6.0943   -1.1014 H       1  LIG1        0.0535
     82 H          -1.5421    7.1207    0.0535 H       1  LIG1        0.0535
     83 H           2.8001    4.3045    1.3458 H       1  LIG1        0.0277
     84 H           1.8447    4.9063    2.7122 H       1  LIG1        0.0277
     85 H           2.3189    5.9948    1.3842 H       1  LIG1        0.0277
@<TRIPOS>BOND
     1     2     4    1
     2     6     7    1
     3     7     8    1
     4     8     9    1
     5     9    10    1
     6     7    11    2
     7     4    12    1
     8    14    15    1
     9    15    16    1
    10    15    17    2
    11    12    18    1
    12    18    19    1
    13    19    20    1
    14    22    23    1
    15    23    24    1
    16    23    25    2
    17    20    26    1
    18    26    27    1
    19    18    27    1
    20    29    30    1
    21    30    31    1
    22    30    32    2
    23    19    33    2
    24    33    34    1
    25    36    37    1
    26    34    38    1
    27    38    39    1
    28    18    39    1
    29    39    41    1
    30     2    41    1
    31    43    44    1
    32    44    45    2
    33    45    46    1
    34    46    47    2
    35    45    48    1
    36    12    13    1
    37    12    14    1
    38    20    21    1
    39    20    22    1
    40    27    28    1
    41    27    29    1
    42    39    40    1
    43    41    42    1
    44    41    43    1
    45     4     6    1
    46     4     5    1
    47     2     3    1
    48     2     1    1
    49    34    36    1
    50    34    35    1
    51     1    49    1
    52     1    50    1
    53     1    51    1
    54     8    52    1
    55     8    53    1
    56     9    54    1
    57     9    55    1
    58    10    56    1
    59    10    57    1
    60    10    58    1
    61    16    59    1
    62    16    60    1
    63    16    61    1
    64    24    62    1
    65    24    63    1
    66    24    64    1
    67    31    65    1
    68    31    66    1
    69    31    67    1
    70    33    68    1
    71    37    69    1
    72    37    70    1
    73    37    71    1
    74    38    72    1
    75    38    73    1
    76    42    74    1
    77    42    75    1
    78    42    76    1
    79    43    77    1
    80    43    78    1
    81    44    79    1
    82    46    80    1
    83    47    81    1
    84    47    82    1
    85    48    83    1
    86    48    84    1
    87    48    85    1
