@<TRIPOS>MOLECULE
NuBBE_232
 79 81 0 0 0
SMALL
GASTEIGER

@<TRIPOS>ATOM
      1 C          -2.8297    0.9590    2.9301 C.3     1  LIG1       -0.0584
      2 C          -2.1438    0.3194    1.7034 C.3     1  LIG1        0.0029
      3 H          -2.9782   -0.1670    1.1903 H       1  LIG1        0.0340
      4 C          -1.1879   -0.7931    2.1866 C.3     1  LIG1        0.1438
      5 H          -0.8392   -0.5083    3.1864 H       1  LIG1        0.0775
      6 O          -1.9438   -2.0327    2.4491 O.3     1  LIG1       -0.4575
      7 C          -2.3322   -2.7866    1.3793 C.2     1  LIG1        0.3043
      8 C          -1.7634   -4.1821    1.4682 C.3     1  LIG1        0.0332
      9 O          -2.9825   -2.3810    0.4229 O.2     1  LIG1       -0.2512
     10 C           0.0811   -1.1540    1.3769 C.3     1  LIG1        0.1554
     11 H          -0.0067   -2.2240    1.1820 H       1  LIG1        0.0783
     12 O           1.2778   -1.0846    2.2322 O.3     1  LIG1       -0.4567
     13 C           1.5506   -2.1927    2.9876 C.2     1  LIG1        0.3043
     14 C           2.8862   -2.1089    3.6764 C.3     1  LIG1        0.0332
     15 O           0.8439   -3.1904    3.0799 O.2     1  LIG1       -0.2512
     16 C           0.2911   -0.5052   -0.0383 C.3     1  LIG1        0.1036
     17 C           0.3959   -1.6996   -0.9831 C.2     1  LIG1        0.0125
     18 C           1.7505   -2.3287   -0.7740 C.3     1  LIG1        0.2315
     19 H           1.7471   -3.0523    0.0489 H       1  LIG1        0.1111
     20 O           2.2718   -2.9285   -1.9557 O.3     1  LIG1       -0.4311
     21 C           1.8641   -4.2137   -2.1339 C.2     1  LIG1        0.3063
     22 C           2.4774   -4.8059   -3.3594 C.3     1  LIG1        0.0333
     23 O           1.0604   -4.8159   -1.4237 O.2     1  LIG1       -0.2511
     24 O           2.5804   -1.2412   -0.3227 O.3     1  LIG1       -0.2971
     25 C           1.7715   -0.0404   -0.2973 C.3     1  LIG1        0.2216
     26 H           2.1400    0.6271    0.4896 H       1  LIG1        0.1068
     27 O           1.8828    0.5751   -1.6004 O.3     1  LIG1       -0.4341
     28 C           3.0684    1.2050   -1.8586 C.2     1  LIG1        0.3061
     29 C           3.2822    1.2072   -3.3588 C.3     1  LIG1        0.0333
     30 O           3.8351    1.6591   -1.0464 O.2     1  LIG1       -0.2511
     31 C          -0.5061   -2.0556   -1.9034 C.2     1  LIG1       -0.0497
     32 C          -1.7304   -1.3012   -2.2347 C.3     1  LIG1        0.0772
     33 H          -2.5905   -1.9618   -2.0610 H       1  LIG1        0.0640
     34 O          -1.6397   -1.0523   -3.6429 O.3     1  LIG1       -0.3757
     35 C          -2.8231   -0.5083   -4.2116 C.3     1  LIG1        0.0372
     36 C          -1.9037   -0.0085   -1.4482 C.3     1  LIG1       -0.0185
     37 C          -0.8139    0.5295   -0.4711 C.3     1  LIG1       -0.0135
     38 H          -0.2935    1.2825   -1.0741 H       1  LIG1        0.0319
     39 C          -1.5398    1.3550    0.6932 C.3     1  LIG1       -0.0185
     40 C          -2.7500    2.1882    0.1148 C.3     1  LIG1       -0.0586
     41 C          -0.5987    2.4029    1.3877 C.3     1  LIG1       -0.0282
     42 C          -0.0222    3.4746    0.4796 C.2     1  LIG1       -0.0806
     43 C           0.7276    4.5334    0.8460 C.2     1  LIG1       -0.0549
     44 C           1.0445    4.8392    2.2267 C.2     1  LIG1       -0.0662
     45 C           0.6697    5.9993    2.7821 C.2     1  LIG1       -0.0985
     46 C           1.2638    5.5201   -0.1665 C.3     1  LIG1       -0.0400
     47 H          -2.1076    1.4353    3.6007 H       1  LIG1        0.0234
     48 H          -3.3613    0.1952    3.5087 H       1  LIG1        0.0234
     49 H          -3.5716    1.7083    2.6394 H       1  LIG1        0.0234
     50 H          -2.4973   -4.8772    1.8712 H       1  LIG1        0.0342
     51 H          -0.8810   -4.1976    2.1037 H       1  LIG1        0.0342
     52 H          -1.4250   -4.4955    0.4741 H       1  LIG1        0.0342
     53 H           2.9824   -2.9709    4.3514 H       1  LIG1        0.0342
     54 H           2.9496   -1.2047    4.2823 H       1  LIG1        0.0342
     55 H           3.6970   -2.1653    2.9467 H       1  LIG1        0.0342
     56 H           3.5280   -4.5130   -3.4255 H       1  LIG1        0.0342
     57 H           1.9315   -4.4876   -4.2504 H       1  LIG1        0.0342
     58 H           2.4375   -5.8965   -3.2771 H       1  LIG1        0.0342
     59 H           4.3314    1.4241   -3.5723 H       1  LIG1        0.0342
     60 H           2.6480    1.9545   -3.8371 H       1  LIG1        0.0342
     61 H           3.0647    0.2128   -3.7572 H       1  LIG1        0.0342
     62 H          -0.3643   -2.9455   -2.5077 H       1  LIG1        0.0599
     63 H          -2.9668    0.5279   -3.8969 H       1  LIG1        0.0524
     64 H          -3.7047   -1.1021   -3.9544 H       1  LIG1        0.0524
     65 H          -2.6992   -0.4973   -5.2964 H       1  LIG1        0.0524
     66 H          -2.8551   -0.1380   -0.9293 H       1  LIG1        0.0296
     67 H          -2.0720    0.8202   -2.1428 H       1  LIG1        0.0296
     68 H          -3.6310    1.5663   -0.0866 H       1  LIG1        0.0235
     69 H          -2.4910    2.6936   -0.8213 H       1  LIG1        0.0235
     70 H          -3.0913    2.9575    0.8158 H       1  LIG1        0.0235
     71 H          -1.1808    2.9265    2.1591 H       1  LIG1        0.0313
     72 H           0.2188    1.8830    1.8947 H       1  LIG1        0.0313
     73 H          -0.2781    3.4092   -0.5760 H       1  LIG1        0.0575
     74 H           1.6015    4.1036    2.8019 H       1  LIG1        0.0614
     75 H           0.0937    6.7272    2.2161 H       1  LIG1        0.0535
     76 H           0.9168    6.2534    3.8056 H       1  LIG1        0.0535
     77 H           0.8676    5.3393   -1.1703 H       1  LIG1        0.0277
     78 H           2.3566    5.4481   -0.2180 H       1  LIG1        0.0277
     79 H           1.0080    6.5530    0.0939 H       1  LIG1        0.0277
@<TRIPOS>BOND
     1     2     4    1
     2     6     7    1
     3     7     8    1
     4     7     9    2
     5     4    10    1
     6    12    13    1
     7    13    14    1
     8    13    15    2
     9    10    16    1
    10    16    17    1
    11    17    18    1
    12    20    21    1
    13    21    22    1
    14    21    23    2
    15    18    24    1
    16    24    25    1
    17    16    25    1
    18    27    28    1
    19    28    29    1
    20    28    30    2
    21    17    31    2
    22    31    32    1
    23    34    35    1
    24    32    36    1
    25    36    37    1
    26    16    37    1
    27    37    39    1
    28     2    39    1
    29    41    42    1
    30    42    43    2
    31    43    44    1
    32    44    45    2
    33    43    46    1
    34    10    11    1
    35    10    12    1
    36    18    19    1
    37    18    20    1
    38    25    26    1
    39    25    27    1
    40    37    38    1
    41    39    40    1
    42    39    41    1
    43     4     6    1
    44     4     5    1
    45     2     3    1
    46     2     1    1
    47    32    34    1
    48    32    33    1
    49     1    47    1
    50     1    48    1
    51     1    49    1
    52     8    50    1
    53     8    51    1
    54     8    52    1
    55    14    53    1
    56    14    54    1
    57    14    55    1
    58    22    56    1
    59    22    57    1
    60    22    58    1
    61    29    59    1
    62    29    60    1
    63    29    61    1
    64    31    62    1
    65    35    63    1
    66    35    64    1
    67    35    65    1
    68    36    66    1
    69    36    67    1
    70    40    68    1
    71    40    69    1
    72    40    70    1
    73    41    71    1
    74    41    72    1
    75    42    73    1
    76    44    74    1
    77    45    75    1
    78    45    76    1
    79    46    77    1
    80    46    78    1
    81    46    79    1
