REMARK  Name = NuBBE_580
REMARK  10 active torsions:
REMARK  status: ('A' for Active; 'I' for Inactive)
REMARK    1  A    between atoms: C_7  and  C_9
REMARK    2  A    between atoms: C_9  and  C_10
REMARK    3  A    between atoms: C_13  and  C_28
REMARK    4  A    between atoms: C_15  and  O_17
REMARK    5  A    between atoms: O_17  and  C_18
REMARK    6  A    between atoms: C_18  and  C_19
REMARK    7  A    between atoms: C_21  and  O_23
REMARK    8  A    between atoms: O_23  and  C_24
REMARK    9  A    between atoms: C_24  and  C_25
REMARK   10  A    between atoms: C_29  and  C_30
REMARK                            x       y       z     vdW  Elec       q    Type
REMARK                         _______ _______ _______ _____ _____    ______ ____
ROOT
ATOM      1  C   LIG A   1      -0.744  -0.393   1.989  0.00  0.00    +0.126 C 
ATOM      2  O   LIG A   1      -0.326   0.911   1.562  0.00  0.00    -0.365 OA
ATOM      3  C   LIG A   1       0.089   1.021   0.192  0.00  0.00    +0.186 C 
ATOM      4  C   LIG A   1      -0.915   0.394  -0.811  0.00  0.00    +0.249 C 
ATOM      5  C   LIG A   1      -1.567  -0.903  -0.292  0.00  0.00    +0.222 C 
ATOM      6  C   LIG A   1      -1.970  -0.785   1.162  0.00  0.00    +0.080 C 
ENDROOT
BRANCH   3   7
ATOM      7  C   LIG A   1       0.282   2.507  -0.016  0.00  0.00    +0.009 C 
ATOM      8  C   LIG A   1       1.163   3.054  -0.872  0.00  0.00    +0.006 C 
BRANCH   8   9
ATOM      9  C   LIG A   1       1.411   4.500  -0.989  0.00  0.00    -0.025 A 
ATOM     10  C   LIG A   1       1.771   5.032  -2.234  0.00  0.00    +0.008 A 
ATOM     11  C   LIG A   1       2.022   6.400  -2.380  0.00  0.00    +0.001 A 
ATOM     12  C   LIG A   1       1.930   7.249  -1.279  0.00  0.00    +0.000 A 
ATOM     13  C   LIG A   1       1.608   6.728  -0.028  0.00  0.00    +0.001 A 
ATOM     14  C   LIG A   1       1.361   5.360   0.118  0.00  0.00    +0.008 A 
ENDBRANCH   8   9
ENDBRANCH   3   7
BRANCH   1  15
ATOM     15  C   LIG A   1       0.456  -1.369   1.992  0.00  0.00    +0.076 C 
BRANCH  15  22
ATOM     16  O   LIG A   1      -1.295  -3.964   5.433  0.00  0.00    -0.246 OA
ATOM     17  C   LIG A   1      -0.589  -3.903   4.443  0.00  0.00    +0.332 C 
ATOM     18  C   LIG A   1       0.160  -5.082   3.978  0.00  0.00    +0.087 C 
ATOM     19  C   LIG A   1       1.087  -4.999   3.015  0.00  0.00    -0.016 C 
ATOM     20  C   LIG A   1       1.352  -3.707   2.315  0.00  0.00    +0.072 C 
ATOM     21  O   LIG A   1      -0.412  -2.754   3.748  0.00  0.00    -0.458 OA
ATOM     22  C   LIG A   1       0.117  -2.803   2.407  0.00  0.00    +0.183 C 
ENDBRANCH  15  22
ENDBRANCH   1  15
BRANCH   4  23
ATOM     23  O   LIG A   1      -0.309   0.160  -2.123  0.00  0.00    -0.455 OA
BRANCH  23  24
ATOM     24  C   LIG A   1       0.596  -0.853  -2.245  0.00  0.00    +0.304 C 
ATOM     25  C   LIG A   1       1.086  -0.988  -3.637  0.00  0.00    +0.136 C 
ATOM     26  O   LIG A   1       1.005  -1.566  -1.334  0.00  0.00    -0.251 OA
ENDBRANCH  23  24
ENDBRANCH   4  23
BRANCH   5  27
ATOM     27  O   LIG A   1      -2.701  -1.214  -1.129  0.00  0.00    -0.458 OA
BRANCH  27  28
ATOM     28  C   LIG A   1      -2.647  -2.425  -1.762  0.00  0.00    +0.304 C 
ATOM     29  C   LIG A   1      -3.660  -2.482  -2.868  0.00  0.00    +0.136 C 
ATOM     30  O   LIG A   1      -1.875  -3.339  -1.510  0.00  0.00    -0.251 OA
ENDBRANCH  27  28
ENDBRANCH   5  27
TORSDOF 8
