@<TRIPOS>MOLECULE
NuBBE_2167
 66 67 0 0 0
SMALL
GASTEIGER

@<TRIPOS>ATOM
      1 O          -4.0256    2.0672   -0.4047 O.2     1  LIG1       -0.2918
      2 C          -4.1530    0.8469   -0.2932 C.2     1  LIG1        0.1702
      3 C          -4.8796    0.0766   -1.3607 C.ar    1  LIG1        0.1019
      4 C          -4.8116    0.4983   -2.7062 C.ar    1  LIG1        0.1456
      5 O          -4.1480    1.7029   -3.0368 O.3     1  LIG1       -0.4252
      6 C          -4.6741    2.5581   -4.0093 C.2     1  LIG1        0.3092
      7 C          -3.7565    3.7298   -4.1984 C.3     1  LIG1        0.0336
      8 O          -5.7090    2.4001   -4.6439 O.2     1  LIG1       -0.2507
      9 C          -5.2917   -0.3150   -3.7420 C.ar    1  LIG1       -0.0183
     10 C          -5.8940   -1.5315   -3.4510 C.ar    1  LIG1       -0.0548
     11 C          -6.0578   -1.9205   -2.1277 C.ar    1  LIG1       -0.0183
     12 C          -5.5910   -1.1070   -1.0889 C.ar    1  LIG1        0.1456
     13 O          -5.7479   -1.5117    0.2574 O.3     1  LIG1       -0.4252
     14 C          -6.5797   -2.5552    0.6823 C.2     1  LIG1        0.3092
     15 C          -5.9368   -3.1688    1.8921 C.3     1  LIG1        0.0336
     16 O          -7.5688   -2.9824    0.1267 O.2     1  LIG1       -0.2507
     17 C          -3.5018    0.1185    0.8903 C.3     1  LIG1        0.0107
     18 C          -1.9829    0.2897    0.8537 C.3     1  LIG1       -0.0460
     19 C          -1.2426   -0.4028    2.0096 C.3     1  LIG1       -0.0527
     20 C           0.2676   -0.1743    1.8688 C.3     1  LIG1       -0.0530
     21 C           1.0874   -0.8239    2.9886 C.3     1  LIG1       -0.0531
     22 C           2.5935   -0.5633    2.8430 C.3     1  LIG1       -0.0531
     23 C           2.9552    0.9278    2.8984 C.3     1  LIG1       -0.0530
     24 C           4.4548    1.2078    2.7644 C.3     1  LIG1       -0.0528
     25 C           5.0116    0.7007    1.4352 C.3     1  LIG1       -0.0491
     26 C           6.5094    0.9518    1.2944 C.3     1  LIG1       -0.0277
     27 C           6.9986    0.3956   -0.0201 C.ar    1  LIG1       -0.0474
     28 C           7.0028    1.1977   -1.1680 C.ar    1  LIG1       -0.0586
     29 C           7.4115    0.6727   -2.3939 C.ar    1  LIG1       -0.0615
     30 C           7.8110   -0.6595   -2.4848 C.ar    1  LIG1       -0.0617
     31 C           7.7939   -1.4710   -1.3518 C.ar    1  LIG1       -0.0615
     32 C           7.3858   -0.9477   -0.1246 C.ar    1  LIG1       -0.0586
     33 H          -2.8463    3.6064   -3.6059 H       1  LIG1        0.0342
     34 H          -4.2618    4.6465   -3.8854 H       1  LIG1        0.0342
     35 H          -3.4696    3.7934   -5.2519 H       1  LIG1        0.0342
     36 H          -5.1934   -0.0171   -4.7826 H       1  LIG1        0.0654
     37 H          -6.2498   -2.1734   -4.2528 H       1  LIG1        0.0620
     38 H          -6.5414   -2.8740   -1.9386 H       1  LIG1        0.0654
     39 H          -5.5050   -2.3952    2.5321 H       1  LIG1        0.0342
     40 H          -5.1482   -3.8458    1.5457 H       1  LIG1        0.0342
     41 H          -6.6791   -3.7249    2.4637 H       1  LIG1        0.0342
     42 H          -3.7074   -0.9503    0.8902 H       1  LIG1        0.0345
     43 H          -3.9300    0.5356    1.8103 H       1  LIG1        0.0345
     44 H          -1.7357    1.3574    0.8584 H       1  LIG1        0.0269
     45 H          -1.6142   -0.1158   -0.0965 H       1  LIG1        0.0269
     46 H          -1.4583   -1.4776    2.0152 H       1  LIG1        0.0265
     47 H          -1.5822    0.0053    2.9692 H       1  LIG1        0.0265
     48 H           0.4390    0.9066    1.8663 H       1  LIG1        0.0265
     49 H           0.6133   -0.5565    0.8999 H       1  LIG1        0.0265
     50 H           0.9196   -1.9083    2.9773 H       1  LIG1        0.0265
     51 H           0.7501   -0.4567    3.9639 H       1  LIG1        0.0265
     52 H           2.9217   -1.0031    1.8953 H       1  LIG1        0.0265
     53 H           3.1313   -1.0949    3.6385 H       1  LIG1        0.0265
     54 H           2.5963    1.3517    3.8440 H       1  LIG1        0.0265
     55 H           2.4463    1.4684    2.0941 H       1  LIG1        0.0265
     56 H           4.9949    0.7551    3.6033 H       1  LIG1        0.0265
     57 H           4.6126    2.2923    2.8310 H       1  LIG1        0.0265
     58 H           4.4706    1.1798    0.6086 H       1  LIG1        0.0268
     59 H           4.8373   -0.3761    1.3433 H       1  LIG1        0.0268
     60 H           7.0551    0.4777    2.1198 H       1  LIG1        0.0313
     61 H           6.7286    2.0245    1.3532 H       1  LIG1        0.0313
     62 H           6.6772    2.2339   -1.1132 H       1  LIG1        0.0620
     63 H           7.4133    1.3030   -3.2789 H       1  LIG1        0.0618
     64 H           8.1303   -1.0666   -3.4402 H       1  LIG1        0.0618
     65 H           8.0940   -2.5129   -1.4247 H       1  LIG1        0.0618
     66 H           7.3602   -1.5961    0.7484 H       1  LIG1        0.0620
@<TRIPOS>BOND
     1     1     2    2
     2     2     3    1
     3     3     4   ar
     4     4     5    1
     5     5     6    1
     6     6     7    1
     7     6     8    2
     8     4     9   ar
     9     9    10   ar
    10    10    11   ar
    11    11    12   ar
    12     3    12   ar
    13    12    13    1
    14    13    14    1
    15    14    15    1
    16    14    16    2
    17     2    17    1
    18    17    18    1
    19    18    19    1
    20    19    20    1
    21    20    21    1
    22    21    22    1
    23    22    23    1
    24    23    24    1
    25    24    25    1
    26    25    26    1
    27    26    27    1
    28    27    28   ar
    29    28    29   ar
    30    29    30   ar
    31    30    31   ar
    32    31    32   ar
    33    27    32   ar
    34     7    33    1
    35     7    34    1
    36     7    35    1
    37     9    36    1
    38    10    37    1
    39    11    38    1
    40    15    39    1
    41    15    40    1
    42    15    41    1
    43    17    42    1
    44    17    43    1
    45    18    44    1
    46    18    45    1
    47    19    46    1
    48    19    47    1
    49    20    48    1
    50    20    49    1
    51    21    50    1
    52    21    51    1
    53    22    52    1
    54    22    53    1
    55    23    54    1
    56    23    55    1
    57    24    56    1
    58    24    57    1
    59    25    58    1
    60    25    59    1
    61    26    60    1
    62    26    61    1
    63    28    62    1
    64    29    63    1
    65    30    64    1
    66    31    65    1
    67    32    66    1
