REMARK  Name = NuBBE_1806
REMARK  19 active torsions:
REMARK  status: ('A' for Active; 'I' for Inactive)
REMARK    1  A    between atoms: O_1  and  C_2
REMARK    2  A    between atoms: C_2  and  C_3
REMARK    3  A    between atoms: C_3  and  O_4
REMARK    4  A    between atoms: C_3  and  C_5
REMARK    5  A    between atoms: C_5  and  C_6
REMARK    6  A    between atoms: C_6  and  C_7
REMARK    7  A    between atoms: C_6  and  C_20
REMARK    8  A    between atoms: C_7  and  C_8
REMARK    9  A    between atoms: C_8  and  C_9
REMARK   10  A    between atoms: C_8  and  O_19
REMARK   11  A    between atoms: C_9  and  C_10
REMARK   12  A    between atoms: C_10  and  C_11
REMARK   13  A    between atoms: C_11  and  C_12
REMARK   14  A    between atoms: C_12  and  C_13
REMARK   15  A    between atoms: C_13  and  C_14
REMARK   16  A    between atoms: C_14  and  C_15
REMARK   17  A    between atoms: C_15  and  C_16
REMARK   18  A    between atoms: C_16  and  C_17
REMARK   19  A    between atoms: C_20  and  O_21
REMARK                            x       y       z     vdW  Elec       q    Type
REMARK                         _______ _______ _______ _____ _____    ______ ____
ROOT
ATOM      1  C   LIG A   1       0.997   1.419   0.854  0.00  0.00    +0.115 C 
ENDROOT
BRANCH   1   2
ATOM      2  O   LIG A   1       1.152   2.079  -0.401  0.00  0.00    -0.392 OA
ATOM      3  H   LIG A   1       0.282   2.416  -0.675  0.00  0.00    +0.210 HD
ENDBRANCH   1   2
BRANCH   1   4
ATOM      4  C   LIG A   1      -0.186   0.436   0.740  0.00  0.00    +0.031 C 
BRANCH   4   5
ATOM      5  C   LIG A   1       0.062  -0.601  -0.363  0.00  0.00    +0.002 C 
BRANCH   5   6
ATOM      6  C   LIG A   1      -1.098  -1.587  -0.526  0.00  0.00    +0.000 C 
BRANCH   6   7
ATOM      7  C   LIG A   1      -0.838  -2.514  -1.717  0.00  0.00    -0.000 C 
BRANCH   7   8
ATOM      8  C   LIG A   1      -2.001  -3.472  -1.973  0.00  0.00    +0.000 C 
BRANCH   8   9
ATOM      9  C   LIG A   1      -1.704  -4.377  -3.171  0.00  0.00    +0.000 C 
BRANCH   9  10
ATOM     10  C   LIG A   1      -2.857  -5.342  -3.446  0.00  0.00    +0.004 C 
BRANCH  10  11
ATOM     11  C   LIG A   1      -2.541  -6.260  -4.627  0.00  0.00    +0.026 C 
BRANCH  11  12
ATOM     12  C   LIG A   1      -3.667  -7.214  -4.889  0.00  0.00    -0.035 C 
ATOM     13  C   LIG A   1      -4.659  -6.969  -5.770  0.00  0.00    +0.004 C 
ENDBRANCH  11  12
ENDBRANCH  10  11
ENDBRANCH   9  10
ENDBRANCH   8   9
ENDBRANCH   7   8
ENDBRANCH   6   7
ENDBRANCH   5   6
ENDBRANCH   4   5
ENDBRANCH   1   4
BRANCH   1  14
ATOM     14  C   LIG A   1       0.778   2.467   1.956  0.00  0.00    +0.037 C 
BRANCH  14  15
ATOM     15  C   LIG A   1       2.022   3.334   2.326  0.00  0.00    +0.019 C 
BRANCH  15  16
ATOM     16  C   LIG A   1       2.594   4.108   1.122  0.00  0.00    +0.159 C 
BRANCH  16  17
ATOM     17  O   LIG A   1       3.781   4.828   1.436  0.00  0.00    -0.395 OA
ATOM     18  H   LIG A   1       4.458   4.171   1.680  0.00  0.00    +0.209 HD
ENDBRANCH  16  17
ENDBRANCH  15  16
BRANCH  15  19
ATOM     19  C   LIG A   1       1.601   4.284   3.485  0.00  0.00    +0.039 C 
BRANCH  19  20
ATOM     20  C   LIG A   1       2.714   5.144   4.089  0.00  0.00    +0.140 C 
BRANCH  20  21
ATOM     21  O   LIG A   1       3.756   4.285   4.558  0.00  0.00    -0.390 OA
ATOM     22  H   LIG A   1       4.457   4.878   4.887  0.00  0.00    +0.210 HD
ENDBRANCH  20  21
BRANCH  20  23
ATOM     23  C   LIG A   1       2.191   6.021   5.235  0.00  0.00    +0.187 C 
BRANCH  23  24
ATOM     24  O   LIG A   1       3.247   6.838   5.745  0.00  0.00    -0.393 OA
ATOM     25  H   LIG A   1       3.370   7.576   5.122  0.00  0.00    +0.209 HD
ENDBRANCH  23  24
ENDBRANCH  20  23
ENDBRANCH  19  20
ENDBRANCH  15  19
ENDBRANCH  14  15
ENDBRANCH   1  14
TORSDOF 19
