@<TRIPOS>MOLECULE
NuBBE_493
 75 79 0 0 0
SMALL
GASTEIGER

@<TRIPOS>ATOM
      1 C          -3.8039   -3.1601    0.5259 C.3     1  LIG1       -0.0411
      2 C          -2.5616   -2.5675   -0.1010 C.2     1  LIG1       -0.0446
      3 C          -1.3781   -3.2239   -0.1535 C.2     1  LIG1       -0.0649
      4 C          -1.3085   -4.7095    0.1279 C.3     1  LIG1       -0.0431
      5 C          -0.0770   -2.5666   -0.6468 C.3     1  LIG1        0.0206
      6 C           1.0754   -2.4244    0.4004 C.3     1  LIG1        0.0350
      7 H           2.0272   -2.3054   -0.1353 H       1  LIG1        0.0508
      8 N           0.7959   -1.1404    0.9927 N.am    1  LIG1       -0.3107
      9 C           1.2431   -3.5348    1.4467 C.3     1  LIG1       -0.0066
     10 C           2.4003   -3.3034    2.3765 C.ar    1  LIG1       -0.0206
     11 C           3.6995   -3.7375    2.2003 C.ar    1  LIG1        0.0060
     12 N           4.4426   -3.3156    3.2706 N.ar    1  LIG1       -0.3604
     13 C           3.6567   -2.6031    4.1458 C.ar    1  LIG1        0.0467
     14 C           3.9888   -1.9750    5.3523 C.ar    1  LIG1       -0.0378
     15 C           2.9685   -1.3124    6.0415 C.ar    1  LIG1       -0.0598
     16 C           1.6664   -1.2916    5.5494 C.ar    1  LIG1       -0.0611
     17 C           1.3497   -1.9345    4.3482 C.ar    1  LIG1       -0.0523
     18 C           2.3644   -2.5947    3.6226 C.ar    1  LIG1        0.0029
     19 H           0.2747   -3.1992   -1.4716 H       1  LIG1        0.0378
     20 C          -0.2484   -1.0555   -1.1117 C.3     1  LIG1        0.1256
     21 C          -1.6504   -0.8279   -1.7180 C.3     1  LIG1        0.0286
     22 H          -1.7588   -1.5571   -2.5394 H       1  LIG1        0.0386
     23 C          -1.8875    0.5040   -2.4302 C.2     1  LIG1       -0.0807
     24 C          -2.2724    1.6659   -1.8776 C.2     1  LIG1       -0.0870
     25 C          -2.6152    2.9037   -2.6714 C.3     1  LIG1       -0.0287
     26 C          -1.5186    3.9934   -2.7061 C.3     1  LIG1       -0.0220
     27 H          -0.6774    3.6005   -3.2828 H       1  LIG1        0.0343
     28 C          -2.0409    5.2233   -3.4557 C.3     1  LIG1       -0.0587
     29 C          -1.0750    4.4038   -1.3196 C.2     1  LIG1       -0.0791
     30 C           0.1843    4.5492   -0.8525 C.2     1  LIG1       -0.0407
     31 C           0.3940    5.0047    0.5716 C.3     1  LIG1       -0.0409
     32 C           1.4724    4.3581   -1.6243 C.3     1  LIG1        0.1377
     33 H           2.3227    4.3744   -0.9304 H       1  LIG1        0.0724
     34 O           1.6321    5.4937   -2.4729 O.3     1  LIG1       -0.3796
     35 C           1.6560    3.0452   -2.4253 C.2     1  LIG1        0.1885
     36 O           2.2091    3.0603   -3.5287 O.2     1  LIG1       -0.2895
     37 C          -2.7565   -1.1854   -0.6903 C.3     1  LIG1        0.0838
     38 H          -2.8236   -0.4563    0.1247 H       1  LIG1        0.0646
     39 O          -4.0196   -1.1918   -1.3664 O.3     1  LIG1       -0.3869
     40 C           0.8464   -0.7506   -2.1525 C.2     1  LIG1        0.1724
     41 C           1.3265    0.6212   -2.4962 C.2     1  LIG1       -0.0147
     42 C           1.1903    1.7661   -1.8174 C.2     1  LIG1       -0.0129
     43 O           1.3289   -1.6583   -2.8416 O.2     1  LIG1       -0.2915
     44 C          -0.0314   -0.3666    0.2238 C.2     1  LIG1        0.2283
     45 O          -0.4862    0.7013    0.6047 O.2     1  LIG1       -0.2747
     46 H          -3.5848   -4.0053    1.1850 H       1  LIG1        0.0275
     47 H          -4.5029   -3.4995   -0.2446 H       1  LIG1        0.0275
     48 H          -4.3045   -2.4100    1.1484 H       1  LIG1        0.0275
     49 H          -2.2054   -5.2261   -0.2320 H       1  LIG1        0.0275
     50 H          -1.2041   -4.9115    1.1966 H       1  LIG1        0.0275
     51 H          -0.4696   -5.1710   -0.4033 H       1  LIG1        0.0275
     52 H           1.1377   -0.8288    1.8956 H       1  LIG1        0.1490
     53 H           0.3416   -3.6182    2.0633 H       1  LIG1        0.0332
     54 H           1.3915   -4.4965    0.9415 H       1  LIG1        0.0332
     55 H           4.1589   -4.3123    1.4067 H       1  LIG1        0.0810
     56 H           5.4281   -3.4957    3.4038 H       1  LIG1        0.1653
     57 H           5.0005   -1.9949    5.7438 H       1  LIG1        0.0638
     58 H           3.1953   -0.8091    6.9787 H       1  LIG1        0.0618
     59 H           0.8866   -0.7732    6.1023 H       1  LIG1        0.0618
     60 H           0.3275   -1.9159    3.9804 H       1  LIG1        0.0624
     61 H          -1.7780    0.4615   -3.5156 H       1  LIG1        0.0573
     62 H          -2.3911    1.7495   -0.7982 H       1  LIG1        0.0569
     63 H          -3.5410    3.3182   -2.2498 H       1  LIG1        0.0313
     64 H          -2.8625    2.6206   -3.7033 H       1  LIG1        0.0313
     65 H          -2.3454    4.9558   -4.4734 H       1  LIG1        0.0235
     66 H          -1.2670    5.9951   -3.5328 H       1  LIG1        0.0235
     67 H          -2.9078    5.6650   -2.9509 H       1  LIG1        0.0235
     68 H          -1.8995    4.6242   -0.6394 H       1  LIG1        0.0575
     69 H          -0.5493    5.1745    1.1014 H       1  LIG1        0.0275
     70 H           0.9567    5.9441    0.5900 H       1  LIG1        0.0275
     71 H           0.9552    4.2489    1.1309 H       1  LIG1        0.0275
     72 H           2.1371    5.1750   -3.2471 H       1  LIG1        0.2108
     73 H          -4.1810   -0.2808   -1.6668 H       1  LIG1        0.2102
     74 H           1.8417    0.6335   -3.4577 H       1  LIG1        0.0654
     75 H           0.7103    1.8631   -0.8600 H       1  LIG1        0.0654
@<TRIPOS>BOND
     1     2     3    2
     2     3     5    1
     3     5     6    1
     4     6     8    1
     5     9    10    1
     6    10    11   ar
     7    11    12   ar
     8    12    13   ar
     9    13    14   ar
    10    14    15   ar
    11    15    16   ar
    12    16    17   ar
    13    17    18   ar
    14    13    18   ar
    15    10    18   ar
    16     5    20    1
    17    20    21    1
    18    21    23    1
    19    23    24    2
    20    24    25    1
    21    25    26    1
    22    26    29    1
    23    29    30    2
    24    30    32    1
    25    32    35    1
    26    21    37    1
    27     2    37    1
    28    20    40    1
    29    40    41    1
    30    41    42    2
    31    35    42    1
    32    20    44    1
    33     8    44   am
    34     1     2    1
    35     3     4    1
    36     5    19    1
    37     6     7    1
    38     6     9    1
    39    21    22    1
    40    26    27    1
    41    26    28    1
    42    30    31    1
    43    32    33    1
    44    32    34    1
    45    35    36    2
    46    37    38    1
    47    37    39    1
    48    40    43    2
    49    44    45    2
    50     1    46    1
    51     1    47    1
    52     1    48    1
    53     4    49    1
    54     4    50    1
    55     4    51    1
    56     8    52    1
    57     9    53    1
    58     9    54    1
    59    11    55    1
    60    12    56    1
    61    14    57    1
    62    15    58    1
    63    16    59    1
    64    17    60    1
    65    23    61    1
    66    24    62    1
    67    25    63    1
    68    25    64    1
    69    28    65    1
    70    28    66    1
    71    28    67    1
    72    29    68    1
    73    31    69    1
    74    31    70    1
    75    31    71    1
    76    34    72    1
    77    39    73    1
    78    41    74    1
    79    42    75    1
