@<TRIPOS>MOLECULE
NuBBE_582
 60 62 0 0 0
SMALL
GASTEIGER

@<TRIPOS>ATOM
      1 O           4.9045    4.4125    2.3167 O.2     1  LIG1       -0.2456
      2 C           3.7136    4.5985    2.1019 C.2     1  LIG1        0.3322
      3 C           2.7139    4.3129    3.1480 C.2     1  LIG1        0.0187
      4 C           1.4396    4.7036    3.0320 C.2     1  LIG1       -0.0735
      5 C           0.9649    5.3936    1.7969 C.3     1  LIG1        0.0067
      6 C           1.8540    5.0441    0.5990 C.3     1  LIG1        0.1250
      7 H           1.6962    5.8056   -0.1747 H       1  LIG1        0.0782
      8 C           1.5405    3.6914    0.0105 C.2     1  LIG1       -0.0475
      9 C           0.6498    3.4934   -0.9748 C.2     1  LIG1       -0.0821
     10 C           0.3286    2.1368   -1.5236 C.3     1  LIG1       -0.0081
     11 C          -1.1153    1.6813   -1.2264 C.3     1  LIG1        0.0665
     12 H          -1.7845    2.3717   -1.7557 H       1  LIG1        0.0600
     13 O          -1.3662    0.3949   -1.7966 O.3     1  LIG1       -0.3651
     14 C          -0.6891   -0.6853   -1.1490 C.3     1  LIG1        0.1178
     15 H           0.3943   -0.5218   -1.1883 H       1  LIG1        0.0679
     16 C          -0.9703   -1.8942   -1.9925 C.2     1  LIG1       -0.0514
     17 C          -0.1200   -2.9209   -2.1672 C.2     1  LIG1       -0.0560
     18 C          -0.4103   -4.0851   -3.0134 C.ar    1  LIG1       -0.0252
     19 C          -1.7268   -4.4946   -3.2597 C.ar    1  LIG1       -0.0546
     20 C          -1.9937   -5.5950   -4.0713 C.ar    1  LIG1       -0.0612
     21 C          -0.9437   -6.3129   -4.6347 C.ar    1  LIG1       -0.0617
     22 C           0.3735   -5.9372   -4.3759 C.ar    1  LIG1       -0.0612
     23 C           0.6409   -4.8332   -3.5603 C.ar    1  LIG1       -0.0546
     24 C          -1.1256   -0.8290    0.3269 C.3     1  LIG1        0.1692
     25 H          -2.1741   -1.1450    0.4078 H       1  LIG1        0.0801
     26 C          -0.9061    0.5232    1.0263 C.3     1  LIG1        0.1449
     27 H           0.1727    0.6957    1.0828 H       1  LIG1        0.0773
     28 C          -1.5286    1.6832    0.2491 C.3     1  LIG1        0.0146
     29 O          -1.4727    0.5144    2.3601 O.3     1  LIG1       -0.4576
     30 C          -0.6029    0.7337    3.3889 C.2     1  LIG1        0.3043
     31 C          -1.3437    0.9209    4.6799 C.3     1  LIG1        0.0332
     32 O           0.6084    0.8588    3.2851 O.2     1  LIG1       -0.2512
     33 O          -0.2156   -1.7777    0.9366 O.3     1  LIG1       -0.4548
     34 C          -0.6950   -3.0273    1.1832 C.2     1  LIG1        0.3044
     35 C           0.4682   -3.9832    1.1719 C.3     1  LIG1        0.0332
     36 O          -1.8554   -3.3317    1.3385 O.2     1  LIG1       -0.2512
     37 O           3.2570    5.0967    0.9258 O.3     1  LIG1       -0.4538
     38 H           3.0865    3.8215    4.0389 H       1  LIG1        0.0686
     39 H           0.7349    4.5261    3.8380 H       1  LIG1        0.0575
     40 H           0.9941    6.4741    1.9802 H       1  LIG1        0.0346
     41 H          -0.0785    5.1261    1.5925 H       1  LIG1        0.0346
     42 H           2.0691    2.8391    0.4359 H       1  LIG1        0.0605
     43 H           0.1091    4.3344   -1.4035 H       1  LIG1        0.0571
     44 H           1.0583    1.4081   -1.1567 H       1  LIG1        0.0332
     45 H           0.4739    2.1546   -2.6117 H       1  LIG1        0.0332
     46 H          -1.9151   -1.8656   -2.5284 H       1  LIG1        0.0599
     47 H           0.8441   -2.9245   -1.6665 H       1  LIG1        0.0621
     48 H          -2.5657   -3.9624   -2.8193 H       1  LIG1        0.0623
     49 H          -3.0236   -5.8854   -4.2574 H       1  LIG1        0.0618
     50 H          -1.1544   -7.1682   -5.2703 H       1  LIG1        0.0618
     51 H           1.1924   -6.5030   -4.8127 H       1  LIG1        0.0618
     52 H           1.6771   -4.5603   -3.3721 H       1  LIG1        0.0623
     53 H          -1.2739    2.6320    0.7352 H       1  LIG1        0.0327
     54 H          -2.6236    1.6159    0.3111 H       1  LIG1        0.0327
     55 H          -1.7773    1.9240    4.7003 H       1  LIG1        0.0342
     56 H          -0.6473    0.8185    5.5185 H       1  LIG1        0.0342
     57 H          -2.1226    0.1637    4.7930 H       1  LIG1        0.0342
     58 H           1.0986   -3.7818    0.3015 H       1  LIG1        0.0342
     59 H           0.1000   -5.0066    1.0724 H       1  LIG1        0.0342
     60 H           1.0632   -3.8729    2.0774 H       1  LIG1        0.0342
@<TRIPOS>BOND
     1     1     2    2
     2     2     3    1
     3     3     4    2
     4     4     5    1
     5     5     6    1
     6     6     7    1
     7     6     8    1
     8     8     9    2
     9     9    10    1
    10    11    13    1
    11    13    14    1
    12    14    15    1
    13    14    16    1
    14    16    17    2
    15    17    18    1
    16    18    19   ar
    17    19    20   ar
    18    20    21   ar
    19    21    22   ar
    20    22    23   ar
    21    18    23   ar
    22    14    24    1
    23    24    26    1
    24    26    27    1
    25    26    28    1
    26    11    28    1
    27    26    29    1
    28    29    30    1
    29    30    31    1
    30    30    32    2
    31    33    34    1
    32    34    35    1
    33    34    36    2
    34     6    37    1
    35     2    37    1
    36    11    12    1
    37    11    10    1
    38    24    33    1
    39    24    25    1
    40     3    38    1
    41     4    39    1
    42     5    40    1
    43     5    41    1
    44     8    42    1
    45     9    43    1
    46    10    44    1
    47    10    45    1
    48    16    46    1
    49    17    47    1
    50    19    48    1
    51    20    49    1
    52    21    50    1
    53    22    51    1
    54    23    52    1
    55    28    53    1
    56    28    54    1
    57    31    55    1
    58    31    56    1
    59    31    57    1
    60    35    58    1
    61    35    59    1
    62    35    60    1
