@<TRIPOS>MOLECULE
NuBBE_1364
 99 101 0 0 0
SMALL
GASTEIGER

@<TRIPOS>ATOM
      1 O          -0.2670   -1.9129    2.2389 O.2     1  LIG1       -0.2912
      2 C           0.3599   -1.2555    1.4084 C.2     1  LIG1        0.1767
      3 C           1.0685   -0.0239    1.9793 C.2     1  LIG1        0.0420
      4 C           0.1638    1.4165    2.4869 C.3     1  LIG1        0.0010
      5 C          -0.2246    2.9505    1.5417 C.3     1  LIG1        0.0519
      6 C          -1.6250    2.8471    0.3041 C.2     1  LIG1        0.3074
      7 O          -1.5148    1.6982   -0.4715 O.3     1  LIG1       -0.4679
      8 C          -2.1110    0.6119   -1.2179 C.3     1  LIG1        0.0817
      9 O          -2.4886    3.5571    0.1811 O.2     1  LIG1       -0.2508
     10 C          -1.2453    1.1240    3.0213 C.3     1  LIG1       -0.0455
     11 C          -2.4822    0.7789    2.1762 C.3     1  LIG1       -0.0525
     12 C          -2.5753   -0.5705    1.5517 C.3     1  LIG1       -0.0530
     13 C          -3.8415   -0.8145    0.7511 C.3     1  LIG1       -0.0533
     14 C          -4.9460   -1.0272    1.7159 C.3     1  LIG1       -0.0559
     15 C          -6.2780   -1.4884    1.1993 C.3     1  LIG1       -0.0653
     16 C           2.3639   -0.1033    1.5458 C.2     1  LIG1        0.1414
     17 C           2.8582   -1.2754    0.7895 C.2     1  LIG1        0.0981
     18 C           2.0978   -2.1101    0.0159 C.2     1  LIG1        0.1251
     19 C           0.6037   -1.7994   -0.1646 C.3     1  LIG1        0.0948
     20 C           0.4291   -1.0540   -1.6486 C.3     1  LIG1       -0.0297
     21 C           1.0744    0.4173   -2.0201 C.3     1  LIG1       -0.0335
     22 C           0.9373    1.7639   -1.2675 C.3     1  LIG1       -0.0255
     23 C           0.6480    1.1613   -0.0157 C.3     1  LIG1       -0.0590
     24 C           2.1622    2.6600   -1.0738 C.3     1  LIG1       -0.0590
     25 C           0.6202    1.3601   -3.2448 C.3     1  LIG1       -0.0426
     26 C          -0.0799    2.3489   -2.2901 C.3     1  LIG1       -0.0147
     27 C          -0.2285    3.8591   -2.3076 C.2     1  LIG1       -0.0761
     28 C          -0.6047    4.4669   -3.5937 C.3     1  LIG1       -0.0438
     29 C          -0.2463    4.6727   -1.2291 C.2     1  LIG1       -0.0994
     30 C          -0.3763   -3.1315   -0.2326 C.3     1  LIG1       -0.0148
     31 C          -1.9089   -3.0124   -0.2427 C.2     1  LIG1       -0.0839
     32 C          -2.8645   -3.4813   -1.0846 C.2     1  LIG1       -0.0796
     33 C          -2.4733   -4.6599   -1.8930 C.3     1  LIG1       -0.0440
     34 C          -4.3768   -3.1486   -1.2568 C.3     1  LIG1       -0.0440
     35 O           2.4637   -3.3001   -0.5869 O.2     1  LIG1       -0.4975
     36 C           3.4829   -4.0500    0.0624 C.3     1  LIG1        0.0784
     37 O           3.2134    1.0192    1.6026 O.2     1  LIG1       -0.4872
     38 C           4.6401    0.8219    1.6635 C.3     1  LIG1        0.1070
     39 H           4.8493    0.5285    2.6985 H       1  LIG1        0.0737
     40 C           5.1124   -0.2645    0.6968 C.3     1  LIG1        0.0562
     41 H           4.8765   -0.0244   -0.3504 H       1  LIG1        0.0414
     42 C           4.2771   -1.4248    1.1337 C.2     1  LIG1        0.1762
     43 O           4.6130   -2.2348    1.9923 O.2     1  LIG1       -0.2914
     44 C           6.5867   -0.5619    0.8560 C.3     1  LIG1       -0.0519
     45 C           5.3933    2.1359    1.4077 C.3     1  LIG1       -0.0271
     46 H           0.8530    1.7854    3.2684 H       1  LIG1        0.0356
     47 H           0.7528    3.2951    1.1401 H       1  LIG1        0.0383
     48 H          -0.4990    3.7839    2.1900 H       1  LIG1        0.0383
     49 H          -1.7983   -0.2577   -0.6595 H       1  LIG1        0.0661
     50 H          -1.6385    0.3396   -2.1667 H       1  LIG1        0.0661
     51 H          -3.1440    0.7631   -1.3816 H       1  LIG1        0.0661
     52 H          -1.5389    2.0971    3.4295 H       1  LIG1        0.0271
     53 H          -1.1662    0.3997    3.8203 H       1  LIG1        0.0271
     54 H          -2.7332    1.5298    1.4474 H       1  LIG1        0.0265
     55 H          -3.3348    0.8567    2.8401 H       1  LIG1        0.0265
     56 H          -2.5097   -1.3680    2.2939 H       1  LIG1        0.0265
     57 H          -1.7222   -0.7583    0.9401 H       1  LIG1        0.0265
     58 H          -3.6847   -1.7622    0.3268 H       1  LIG1        0.0265
     59 H          -4.0811   -0.1957   -0.1126 H       1  LIG1        0.0265
     60 H          -5.0723   -0.0617    2.1851 H       1  LIG1        0.0263
     61 H          -4.5867   -1.7704    2.4362 H       1  LIG1        0.0263
     62 H          -6.6219   -0.9074    0.3410 H       1  LIG1        0.0230
     63 H          -6.9700   -1.3398    2.0297 H       1  LIG1        0.0230
     64 H          -6.2890   -2.5533    0.9431 H       1  LIG1        0.0230
     65 H          -0.6185   -1.1548   -1.9151 H       1  LIG1        0.0282
     66 H           0.8221   -1.7138   -2.4391 H       1  LIG1        0.0282
     67 H           2.1405    0.1609   -2.0361 H       1  LIG1        0.0307
     68 H           1.3793    1.5551    0.6541 H       1  LIG1        0.0235
     69 H           0.0383    0.2795    0.0508 H       1  LIG1        0.0235
     70 H          -0.1390    1.4589    0.5539 H       1  LIG1        0.0235
     71 H           2.9403    2.1705   -0.4863 H       1  LIG1        0.0235
     72 H           1.9280    3.5767   -0.5216 H       1  LIG1        0.0235
     73 H           2.5623    2.9469   -2.0321 H       1  LIG1        0.0235
     74 H          -0.0521    0.8625   -3.9420 H       1  LIG1        0.0274
     75 H           1.4518    1.8489   -3.7423 H       1  LIG1        0.0274
     76 H          -1.1221    2.0770   -2.4750 H       1  LIG1        0.0351
     77 H          -1.1965    3.7885   -4.2113 H       1  LIG1        0.0274
     78 H           0.3529    4.6843   -4.0569 H       1  LIG1        0.0274
     79 H          -1.1829    5.3867   -3.4475 H       1  LIG1        0.0274
     80 H          -0.0523    4.3989   -0.2162 H       1  LIG1        0.0534
     81 H          -0.5133    5.7262   -1.2469 H       1  LIG1        0.0534
     82 H          -0.1679   -3.7299    0.6593 H       1  LIG1        0.0321
     83 H          -0.1116   -3.7080   -1.1168 H       1  LIG1        0.0321
     84 H          -2.2430   -2.6925    0.7283 H       1  LIG1        0.0572
     85 H          -3.2618   -5.4065   -1.7628 H       1  LIG1        0.0274
     86 H          -1.5652   -5.1452   -1.5236 H       1  LIG1        0.0274
     87 H          -2.3248   -4.3426   -2.9199 H       1  LIG1        0.0274
     88 H          -4.8070   -2.2423   -0.8408 H       1  LIG1        0.0274
     89 H          -5.0340   -3.9395   -0.8839 H       1  LIG1        0.0274
     90 H          -4.5843   -2.9309   -2.3111 H       1  LIG1        0.0274
     91 H           3.8048   -4.8665   -0.5833 H       1  LIG1        0.0660
     92 H           3.1290   -4.4492    1.0206 H       1  LIG1        0.0660
     93 H           4.3820   -3.4587    0.1725 H       1  LIG1        0.0660
     94 H           7.1833    0.2392    0.4124 H       1  LIG1        0.0238
     95 H           6.8545   -1.5074    0.3783 H       1  LIG1        0.0238
     96 H           6.8445   -0.6327    1.9186 H       1  LIG1        0.0238
     97 H           4.9124    2.9983    1.8769 H       1  LIG1        0.0265
     98 H           5.4859    2.3534    0.3363 H       1  LIG1        0.0265
     99 H           6.4121    2.0616    1.8086 H       1  LIG1        0.0265
@<TRIPOS>BOND
     1     1     2    2
     2     2     3    1
     3     3     4    1
     4     4     5    1
     5     5     6    1
     6     6     7    1
     7     7     8    1
     8     6     9    2
     9     4    10    1
    10    10    11    1
    11    11    12    1
    12    12    13    1
    13    13    14    1
    14    14    15    1
    15     3    16    2
    16    16    17    1
    17    17    18    2
    18    18    19    1
    19    19    20    1
    20    20    21    1
    21    21    22    1
    22    22    23    1
    23    22    24    1
    24    21    25    1
    25    25    26    1
    26    22    26    1
    27    26    27    1
    28    27    28    1
    29    27    29    2
    30     2    19    1
    31    19    30    1
    32    30    31    1
    33    31    32    2
    34    32    33    1
    35    32    34    1
    36    18    35    1
    37    35    36    1
    38    16    37    1
    39    37    38    1
    40    38    39    1
    41    38    40    1
    42    40    41    1
    43    40    42    1
    44    17    42    1
    45    42    43    2
    46    40    44    1
    47    38    45    1
    48     4    46    1
    49     5    47    1
    50     5    48    1
    51     8    49    1
    52     8    50    1
    53     8    51    1
    54    10    52    1
    55    10    53    1
    56    11    54    1
    57    11    55    1
    58    12    56    1
    59    12    57    1
    60    13    58    1
    61    13    59    1
    62    14    60    1
    63    14    61    1
    64    15    62    1
    65    15    63    1
    66    15    64    1
    67    20    65    1
    68    20    66    1
    69    21    67    1
    70    23    68    1
    71    23    69    1
    72    23    70    1
    73    24    71    1
    74    24    72    1
    75    24    73    1
    76    25    74    1
    77    25    75    1
    78    26    76    1
    79    28    77    1
    80    28    78    1
    81    28    79    1
    82    29    80    1
    83    29    81    1
    84    30    82    1
    85    30    83    1
    86    31    84    1
    87    33    85    1
    88    33    86    1
    89    33    87    1
    90    34    88    1
    91    34    89    1
    92    34    90    1
    93    36    91    1
    94    36    92    1
    95    36    93    1
    96    44    94    1
    97    44    95    1
    98    44    96    1
    99    45    97    1
   100    45    98    1
   101    45    99    1
