@<TRIPOS>MOLECULE
NuBBE_2463
 56 58 0 0 0
SMALL
GASTEIGER

@<TRIPOS>ATOM
      1 C          -3.3454   -4.2095   -2.4132 C.3     1  LIG1        0.0790
      2 O          -2.1690   -4.2048   -1.6056 O.3     1  LIG1       -0.4914
      3 C          -1.5017   -3.0217   -1.4697 C.ar    1  LIG1        0.1618
      4 C          -0.1113   -2.9972   -1.3100 C.ar    1  LIG1        0.1618
      5 O           0.7114   -4.0900   -1.2555 O.3     1  LIG1       -0.4914
      6 C           0.0901   -5.3730   -1.3505 C.3     1  LIG1        0.0790
      7 C           0.5423   -1.7652   -1.1893 C.ar    1  LIG1       -0.0123
      8 C          -0.1739   -0.5404   -1.2024 C.ar    1  LIG1       -0.0328
      9 C           0.5679    0.7833   -1.0846 C.3     1  LIG1        0.0149
     10 H           1.3823    0.7088   -1.8235 H       1  LIG1        0.0401
     11 C           1.2984    1.0035    0.2554 C.ar    1  LIG1       -0.0359
     12 C           2.4484    1.8094    0.2845 C.ar    1  LIG1       -0.0543
     13 C           3.1400    2.0482    1.4818 C.ar    1  LIG1       -0.0160
     14 C           2.6896    1.5188    2.6939 C.ar    1  LIG1        0.1615
     15 O           3.3220    1.7197    3.8920 O.3     1  LIG1       -0.4915
     16 C           4.4949    2.5190    3.9265 C.3     1  LIG1        0.0790
     17 C           1.5405    0.7126    2.6879 C.ar    1  LIG1        0.1618
     18 O           0.9673    0.0932    3.7708 O.3     1  LIG1       -0.4914
     19 C           1.0783    0.7621    5.0244 C.3     1  LIG1        0.0790
     20 C           0.8862    0.4360    1.4710 C.ar    1  LIG1       -0.0125
     21 C          -0.2935    2.0263   -1.5030 C.3     1  LIG1       -0.0018
     22 H           0.1260    2.9343   -1.0488 H       1  LIG1        0.0335
     23 C          -0.1860    2.2678   -3.0334 C.3     1  LIG1        0.0482
     24 O          -0.6058    1.1525   -3.8001 O.3     1  LIG1       -0.3947
     25 C          -1.7799    1.9339   -1.0537 C.3     1  LIG1       -0.0081
     26 H          -2.3440    2.7504   -1.5257 H       1  LIG1        0.0330
     27 C          -1.9623    2.1218    0.4596 C.3     1  LIG1        0.0477
     28 O          -3.3469    2.0916    0.7995 O.3     1  LIG1       -0.3947
     29 C          -2.4350    0.6386   -1.5184 C.3     1  LIG1       -0.0220
     30 C          -1.5726   -0.5833   -1.3467 C.ar    1  LIG1       -0.0396
     31 C          -2.2133   -1.8161   -1.4609 C.ar    1  LIG1       -0.0128
     32 H          -3.5070   -5.2393   -2.7421 H       1  LIG1        0.0660
     33 H          -3.2332   -3.5857   -3.3060 H       1  LIG1        0.0660
     34 H          -4.2026   -3.9030   -1.8127 H       1  LIG1        0.0660
     35 H           0.8349   -6.1514   -1.1883 H       1  LIG1        0.0660
     36 H          -0.3211   -5.5181   -2.3583 H       1  LIG1        0.0660
     37 H          -0.6690   -5.5150   -0.5702 H       1  LIG1        0.0660
     38 H           1.6237   -1.7406   -1.1195 H       1  LIG1        0.0658
     39 H           2.8339    2.2456   -0.6334 H       1  LIG1        0.0622
     40 H           4.0403    2.6550    1.4256 H       1  LIG1        0.0655
     41 H           4.7542    2.6772    4.9788 H       1  LIG1        0.0660
     42 H           4.3297    3.5047    3.4820 H       1  LIG1        0.0660
     43 H           5.3296    1.9975    3.4490 H       1  LIG1        0.0660
     44 H           0.3402    0.3244    5.7036 H       1  LIG1        0.0660
     45 H           0.8522    1.8306    4.9356 H       1  LIG1        0.0660
     46 H           2.0578    0.5927    5.4811 H       1  LIG1        0.0660
     47 H           0.0259   -0.2317    1.5023 H       1  LIG1        0.0658
     48 H          -0.7919    3.1313   -3.3276 H       1  LIG1        0.0560
     49 H           0.8540    2.4804   -3.3032 H       1  LIG1        0.0560
     50 H          -0.5695    1.3977   -4.7397 H       1  LIG1        0.2094
     51 H          -1.4783    1.3328    1.0281 H       1  LIG1        0.0560
     52 H          -1.5649    3.0889    0.7801 H       1  LIG1        0.0560
     53 H          -3.3983    1.8077    1.7300 H       1  LIG1        0.2094
     54 H          -2.6889    0.7148   -2.5832 H       1  LIG1        0.0317
     55 H          -3.3932    0.4807   -1.0064 H       1  LIG1        0.0317
     56 H          -3.3036   -1.8077   -1.5581 H       1  LIG1        0.0658
@<TRIPOS>BOND
     1     1     2    1
     2     2     3    1
     3     3     4   ar
     4     4     5    1
     5     5     6    1
     6     4     7   ar
     7     7     8   ar
     8     8     9    1
     9     9    10    1
    10     9    11    1
    11    11    12   ar
    12    12    13   ar
    13    13    14   ar
    14    14    15    1
    15    15    16    1
    16    14    17   ar
    17    17    18    1
    18    18    19    1
    19    17    20   ar
    20    11    20   ar
    21     9    21    1
    22    23    24    1
    23    21    25    1
    24    27    28    1
    25    25    29    1
    26     8    30   ar
    27    29    30    1
    28    30    31   ar
    29     3    31   ar
    30    21    23    1
    31    21    22    1
    32    25    27    1
    33    25    26    1
    34     1    32    1
    35     1    33    1
    36     1    34    1
    37     6    35    1
    38     6    36    1
    39     6    37    1
    40     7    38    1
    41    12    39    1
    42    13    40    1
    43    16    41    1
    44    16    42    1
    45    16    43    1
    46    19    44    1
    47    19    45    1
    48    19    46    1
    49    20    47    1
    50    23    48    1
    51    23    49    1
    52    24    50    1
    53    27    51    1
    54    27    52    1
    55    28    53    1
    56    29    54    1
    57    29    55    1
    58    31    56    1
