@<TRIPOS>MOLECULE
NuBBE_1156
 54 54 0 0 0
SMALL
GASTEIGER

@<TRIPOS>ATOM
      1 O          -5.8349    2.0889   -3.8931 O.2     1  LIG1       -0.2509
      2 C          -5.7224    2.2535   -2.6785 C.2     1  LIG1        0.3068
      3 O          -6.5459    3.0061   -1.8819 O.3     1  LIG1       -0.4679
      4 C          -7.7674    3.4241   -2.4935 C.3     1  LIG1        0.0817
      5 C          -4.6989    1.6098   -1.7609 C.3     1  LIG1        0.0449
      6 C          -3.6487    0.7764   -2.4972 C.3     1  LIG1       -0.0430
      7 C          -2.6538    0.1011   -1.5475 C.3     1  LIG1       -0.0526
      8 C          -3.2853   -0.9161   -0.5849 C.3     1  LIG1       -0.0530
      9 C          -2.2690   -1.5889    0.3525 C.3     1  LIG1       -0.0531
     10 C          -1.5551   -0.5837    1.2632 C.3     1  LIG1       -0.0531
     11 C          -0.5340   -1.2019    2.2226 C.3     1  LIG1       -0.0531
     12 C           0.6567   -1.9060    1.5551 C.3     1  LIG1       -0.0531
     13 C           1.4773   -0.9753    0.6503 C.3     1  LIG1       -0.0530
     14 C           2.6917   -1.6765    0.0366 C.3     1  LIG1       -0.0528
     15 C           3.5206   -0.7705   -0.8911 C.3     1  LIG1       -0.0491
     16 C           4.1956    0.4483   -0.2331 C.3     1  LIG1       -0.0277
     17 C           5.1640    0.1691    0.8957 C.ar    1  LIG1       -0.0474
     18 C           5.3301    1.1112    1.9241 C.ar    1  LIG1       -0.0586
     19 C           6.2155    0.8704    2.9794 C.ar    1  LIG1       -0.0615
     20 C           6.9481   -0.3132    3.0197 C.ar    1  LIG1       -0.0617
     21 C           6.8238   -1.2373    1.9867 C.ar    1  LIG1       -0.0615
     22 C           5.9559   -0.9865    0.9224 C.ar    1  LIG1       -0.0586
     23 H          -7.6057    4.3138   -3.1094 H       1  LIG1        0.0661
     24 H          -8.4673    3.6721   -1.6938 H       1  LIG1        0.0661
     25 H          -8.2079    2.6128   -3.0857 H       1  LIG1        0.0661
     26 H          -5.2719    0.9668   -1.0835 H       1  LIG1        0.0377
     27 H          -4.1967    2.3885   -1.1691 H       1  LIG1        0.0377
     28 H          -3.0867    1.4342   -3.1739 H       1  LIG1        0.0270
     29 H          -4.1333    0.0232   -3.1315 H       1  LIG1        0.0270
     30 H          -2.1447    0.8917   -0.9868 H       1  LIG1        0.0265
     31 H          -1.8874   -0.4072   -2.1452 H       1  LIG1        0.0265
     32 H          -3.7920   -1.6944   -1.1693 H       1  LIG1        0.0265
     33 H          -4.0510   -0.4365    0.0337 H       1  LIG1        0.0265
     34 H          -1.5485   -2.1554   -0.2468 H       1  LIG1        0.0265
     35 H          -2.8052   -2.3169    0.9755 H       1  LIG1        0.0265
     36 H          -2.3094   -0.0505    1.8556 H       1  LIG1        0.0265
     37 H          -1.0464    0.1775    0.6670 H       1  LIG1        0.0265
     38 H          -1.0428   -1.9068    2.8914 H       1  LIG1        0.0265
     39 H          -0.1458   -0.3981    2.8619 H       1  LIG1        0.0265
     40 H           0.3065   -2.7757    0.9881 H       1  LIG1        0.0265
     41 H           1.3061   -2.2965    2.3493 H       1  LIG1        0.0265
     42 H           1.8029   -0.1115    1.2393 H       1  LIG1        0.0265
     43 H           0.8499   -0.6032   -0.1663 H       1  LIG1        0.0265
     44 H           2.3400   -2.5304   -0.5570 H       1  LIG1        0.0265
     45 H           3.3236   -2.0947    0.8273 H       1  LIG1        0.0265
     46 H           2.8748   -0.4064   -1.7009 H       1  LIG1        0.0268
     47 H           4.2835   -1.3862   -1.3831 H       1  LIG1        0.0268
     48 H           3.4150    1.1372    0.1131 H       1  LIG1        0.0313
     49 H           4.7536    0.9881   -1.0099 H       1  LIG1        0.0313
     50 H           4.7689    2.0434    1.9150 H       1  LIG1        0.0620
     51 H           6.3317    1.6047    3.7728 H       1  LIG1        0.0618
     52 H           7.6207   -0.5122    3.8493 H       1  LIG1        0.0618
     53 H           7.4013   -2.1575    2.0056 H       1  LIG1        0.0618
     54 H           5.9000   -1.7171    0.1204 H       1  LIG1        0.0620
@<TRIPOS>BOND
     1     1     2    2
     2     2     3    1
     3     3     4    1
     4     2     5    1
     5     5     6    1
     6     6     7    1
     7     7     8    1
     8     8     9    1
     9     9    10    1
    10    10    11    1
    11    11    12    1
    12    12    13    1
    13    13    14    1
    14    14    15    1
    15    15    16    1
    16    16    17    1
    17    17    18   ar
    18    18    19   ar
    19    19    20   ar
    20    20    21   ar
    21    21    22   ar
    22    17    22   ar
    23     4    23    1
    24     4    24    1
    25     4    25    1
    26     5    26    1
    27     5    27    1
    28     6    28    1
    29     6    29    1
    30     7    30    1
    31     7    31    1
    32     8    32    1
    33     8    33    1
    34     9    34    1
    35     9    35    1
    36    10    36    1
    37    10    37    1
    38    11    38    1
    39    11    39    1
    40    12    40    1
    41    12    41    1
    42    13    42    1
    43    13    43    1
    44    14    44    1
    45    14    45    1
    46    15    46    1
    47    15    47    1
    48    16    48    1
    49    16    49    1
    50    18    50    1
    51    19    51    1
    52    20    52    1
    53    21    53    1
    54    22    54    1
