REMARK  Name = NuBBE_2363
REMARK  5 active torsions:
REMARK  status: ('A' for Active; 'I' for Inactive)
REMARK    1  A    between atoms: C_1  and  C_2
REMARK    2  A    between atoms: C_2  and  C_3
REMARK    3  A    between atoms: C_3  and  O_4
REMARK    4  A    between atoms: C_9  and  C_10
REMARK    5  A    between atoms: C_18  and  O_19
REMARK                            x       y       z     vdW  Elec       q    Type
REMARK                         _______ _______ _______ _____ _____    ______ ____
ROOT
ATOM      1  C   LIG A   1      -3.080  -1.189   1.277  0.00  0.00    +0.023 C 
ATOM      2  C   LIG A   1      -1.533  -1.240   1.171  0.00  0.00    +0.068 C 
ATOM      3  C   LIG A   1      -0.985  -0.893   2.570  0.00  0.00    +0.018 C 
ATOM      4  C   LIG A   1       0.524  -0.676   2.627  0.00  0.00    +0.002 C 
ATOM      5  C   LIG A   1       1.169  -0.305   1.293  0.00  0.00    +0.012 C 
ATOM      6  C   LIG A   1       0.281   0.569   0.377  0.00  0.00    -0.003 C 
ATOM      7  C   LIG A   1      -0.075   1.901   1.097  0.00  0.00    +0.016 C 
ATOM      8  C   LIG A   1      -1.065  -0.208   0.070  0.00  0.00    +0.016 C 
ATOM      9  C   LIG A   1      -1.069  -0.848  -1.331  0.00  0.00    +0.010 C 
ATOM     10  C   LIG A   1      -0.788   0.188  -2.403  0.00  0.00    +0.036 C 
ATOM     11  C   LIG A   1       0.559   0.808  -2.183  0.00  0.00    -0.043 A 
ATOM     12  C   LIG A   1       1.078   0.984  -0.885  0.00  0.00    -0.035 A 
ATOM     13  C   LIG A   1       2.340   1.606  -0.763  0.00  0.00    +0.049 A 
ATOM     14  C   LIG A   1       3.050   2.025  -1.887  0.00  0.00    +0.117 A 
ATOM     15  C   LIG A   1       2.529   1.854  -3.157  0.00  0.00    +0.045 A 
ATOM     16  C   LIG A   1       1.283   1.253  -3.305  0.00  0.00    +0.007 A 
ENDROOT
BRANCH   2  17
ATOM     17  C   LIG A   1      -1.115  -2.689   0.860  0.00  0.00    +0.311 C 
ATOM     18  O   LIG A   1      -0.065  -3.231   1.164  0.00  0.00    -0.250 OA
BRANCH  17  19
ATOM     19  O   LIG A   1      -2.021  -3.387   0.147  0.00  0.00    -0.480 OA
ATOM     20  H   LIG A   1      -1.595  -4.262   0.023  0.00  0.00    +0.295 HD
ENDBRANCH  17  19
ENDBRANCH   2  17
BRANCH  14  21
ATOM     21  O   LIG A   1       4.270   2.625  -1.776  0.00  0.00    -0.507 OA
ATOM     22  H   LIG A   1       4.515   2.652  -0.837  0.00  0.00    +0.292 HD
ENDBRANCH  14  21
TORSDOF 3
