REMARK  Name = NuBBE_1297
REMARK  3 active torsions:
REMARK  status: ('A' for Active; 'I' for Inactive)
REMARK    1  A    between atoms: O_1  and  C_2
REMARK    2  A    between atoms: C_2  and  C_3
REMARK    3  A    between atoms: N_4  and  C_8
REMARK                            x       y       z     vdW  Elec       q    Type
REMARK                         _______ _______ _______ _____ _____    ______ ____
ROOT
ATOM      1  C   LIG A   1       0.589  -0.480  -0.503  0.00  0.00    +0.166 C 
ATOM      2  N   LIG A   1       0.313   0.964  -0.251  0.00  0.00    -0.293 NA
ATOM      3  C   LIG A   1       0.702   1.139   1.157  0.00  0.00    +0.085 C 
ATOM      4  C   LIG A   1       0.265  -0.132   1.873  0.00  0.00    +0.017 C 
ATOM      5  C   LIG A   1       0.215  -1.203   0.790  0.00  0.00    +0.031 C 
ATOM      6  C   LIG A   1      -1.095   1.327  -0.446  0.00  0.00    +0.105 C 
ENDROOT
BRANCH   1   7
ATOM      7  C   LIG A   1      -0.099  -1.038  -1.744  0.00  0.00    +0.322 C 
ATOM      8  O   LIG A   1      -1.148  -1.663  -1.786  0.00  0.00    -0.249 OA
BRANCH   7   9
ATOM      9  O   LIG A   1       0.561  -0.750  -2.886  0.00  0.00    -0.479 OA
ATOM     10  H   LIG A   1      -0.012  -1.114  -3.591  0.00  0.00    +0.295 HD
ENDBRANCH   7   9
ENDBRANCH   1   7
TORSDOF 2
