REMARK  Name = NuBBE_946
REMARK  10 active torsions:
REMARK  status: ('A' for Active; 'I' for Inactive)
REMARK    1  A    between atoms: C_1  and  O_2
REMARK    2  A    between atoms: O_2  and  C_3
REMARK    3  A    between atoms: C_5  and  C_6
REMARK    4  A    between atoms: C_8  and  O_10
REMARK    5  A    between atoms: O_10  and  C_11
REMARK    6  A    between atoms: C_11  and  C_12
REMARK    7  A    between atoms: C_12  and  C_13
REMARK    8  A    between atoms: C_12  and  C_14
REMARK    9  A    between atoms: C_27  and  C_29
REMARK   10  A    between atoms: C_30  and  O_32
REMARK                            x       y       z     vdW  Elec       q    Type
REMARK                         _______ _______ _______ _____ _____    ______ ____
ROOT
ATOM      1  C   LIG A   1      -1.293   1.662  -2.251  0.00  0.00    +0.155 C 
ATOM      2  C   LIG A   1      -0.853   1.419  -0.789  0.00  0.00    +0.100 C 
ATOM      3  C   LIG A   1      -1.477   2.453   0.148  0.00  0.00    +0.044 C 
ATOM      4  C   LIG A   1      -1.139  -0.024  -0.304  0.00  0.00    +0.083 C 
ATOM      5  C   LIG A   1      -0.079  -0.614   0.655  0.00  0.00    +0.190 C 
ATOM      6  C   LIG A   1       0.735  -1.740  -0.019  0.00  0.00    +0.109 C 
ATOM      7  C   LIG A   1       1.862  -2.386   0.720  0.00  0.00    +0.040 C 
ATOM      8  C   LIG A   1       2.295  -2.266   1.978  0.00  0.00    +0.020 C 
ATOM      9  C   LIG A   1       1.409  -1.565  -1.377  0.00  0.00    +0.220 C 
ATOM     10  O   LIG A   1       2.124  -2.827  -1.512  0.00  0.00    -0.455 OA
ATOM     11  C   LIG A   1       2.556  -3.239  -0.282  0.00  0.00    +0.336 C 
ATOM     12  O   LIG A   1       3.348  -4.129  -0.057  0.00  0.00    -0.245 OA
ATOM     13  C   LIG A   1       2.445  -0.484  -1.588  0.00  0.00    +0.197 C 
ATOM     14  C   LIG A   1       2.359   0.963  -2.117  0.00  0.00    +0.150 C 
ATOM     15  O   LIG A   1       2.501  -0.145  -2.997  0.00  0.00    -0.356 OA
ATOM     16  C   LIG A   1       3.619   1.785  -2.037  0.00  0.00    +0.050 C 
ATOM     17  C   LIG A   1       1.052   1.708  -2.096  0.00  0.00    +0.202 C 
ATOM     18  O   LIG A   1       0.564   1.643  -0.762  0.00  0.00    -0.337 OA
ATOM     19  C   LIG A   1      -0.054   1.224  -3.017  0.00  0.00    +0.102 C 
ENDROOT
BRANCH   1  21
ATOM     20  C   LIG A   1      -2.915   1.139  -3.910  0.00  0.00    +0.194 C 
ATOM     21  O   LIG A   1      -2.470   0.930  -2.576  0.00  0.00    -0.377 OA
ENDBRANCH   1  21
BRANCH  17  22
ATOM     22  O   LIG A   1       1.239   3.091  -2.371  0.00  0.00    -0.362 OA
ATOM     23  H   LIG A   1       1.651   3.443  -1.563  0.00  0.00    +0.213 HD
ENDBRANCH  17  22
BRANCH   5  24
ATOM     24  O   LIG A   1      -0.789  -1.291   1.745  0.00  0.00    -0.460 OA
BRANCH  24  25
ATOM     25  C   LIG A   1      -1.266  -0.532   2.769  0.00  0.00    +0.310 C 
ATOM     26  O   LIG A   1      -1.208   0.687   2.822  0.00  0.00    -0.251 OA
BRANCH  25  27
ATOM     27  C   LIG A   1      -1.804  -1.419   3.877  0.00  0.00    +0.092 C 
ATOM     28  C   LIG A   1      -0.684  -1.674   4.878  0.00  0.00    +0.019 C 
ATOM     29  C   LIG A   1      -3.006  -0.774   4.562  0.00  0.00    +0.019 C 
ENDBRANCH  25  27
ENDBRANCH  24  25
ENDBRANCH   5  24
TORSDOF 5
