@<TRIPOS>MOLECULE
NuBBE_2299
 46 49 0 0 0
SMALL
GASTEIGER

@<TRIPOS>ATOM
      1 C          -1.8764    0.5174   -1.1950 C.3     1  LIG1       -0.0590
      2 C          -0.6037    0.5421   -0.3611 C.3     1  LIG1       -0.0020
      3 H           0.1273    1.0786   -0.9808 H       1  LIG1        0.0334
      4 C          -0.5960    1.2103    1.0346 C.3     1  LIG1        0.0406
      5 C           0.7360    0.6059    1.5509 C.3     1  LIG1        0.2346
      6 O           1.8696    1.1271    0.8435 O.3     1  LIG1       -0.3584
      7 O           0.6863   -0.7594    1.2008 O.3     1  LIG1       -0.3340
      8 C          -0.0784   -0.8735   -0.0287 C.3     1  LIG1        0.0907
      9 H          -0.9147   -1.5443    0.2073 H       1  LIG1        0.0650
     10 C           0.7747   -1.4970   -1.1192 C.ar    1  LIG1       -0.0148
     11 C           0.4050   -2.7288   -1.6869 C.ar    1  LIG1       -0.0105
     12 C           1.2127   -3.2657   -2.6718 C.ar    1  LIG1        0.1666
     13 O           0.9984   -4.4396   -3.3257 O.3     1  LIG1       -0.4526
     14 C           2.1463   -4.4771   -4.2007 C.3     1  LIG1        0.2332
     15 O           3.0096   -3.3310   -4.0676 O.3     1  LIG1       -0.4526
     16 C           2.3567   -2.6358   -3.1004 C.ar    1  LIG1        0.1662
     17 C           2.7538   -1.4298   -2.5795 C.ar    1  LIG1       -0.0158
     18 C           1.9501   -0.8605   -1.5900 C.ar    1  LIG1       -0.0524
     19 C          -1.7805    0.7556    1.9652 C.3     1  LIG1       -0.0237
     20 C          -3.1741    1.0769    1.4930 C.2     1  LIG1       -0.0904
     21 C          -4.1274    0.1521    1.3111 C.2     1  LIG1       -0.1026
     22 C          -0.4591    2.7494    0.9941 C.3     1  LIG1       -0.0410
     23 C          -0.0755    3.3482    2.3614 C.3     1  LIG1       -0.0455
     24 C           1.0800    2.6425    3.0792 C.3     1  LIG1        0.0113
     25 C           0.9878    1.1285    2.9778 C.2     1  LIG1        0.1924
     26 O           1.2007    0.3926    3.9496 O.2     1  LIG1       -0.2917
     27 H          -2.5767   -0.2532   -0.8628 H       1  LIG1        0.0234
     28 H          -1.6369    0.2776   -2.2370 H       1  LIG1        0.0234
     29 H          -2.3773    1.4899   -1.1921 H       1  LIG1        0.0234
     30 H           2.6037    0.5638    1.1558 H       1  LIG1        0.2132
     31 H          -0.4877   -3.2581   -1.3705 H       1  LIG1        0.0659
     32 H           1.7969   -4.5291   -5.2382 H       1  LIG1        0.1166
     33 H           2.7277   -5.3792   -3.9787 H       1  LIG1        0.1166
     34 H           3.6549   -0.9355   -2.9229 H       1  LIG1        0.0655
     35 H           2.2546    0.1020   -1.1923 H       1  LIG1        0.0622
     36 H          -1.7052   -0.3194    2.1721 H       1  LIG1        0.0315
     37 H          -1.6820    1.2314    2.9488 H       1  LIG1        0.0315
     38 H          -3.4163    2.1181    1.2910 H       1  LIG1        0.0566
     39 H          -3.9455   -0.9034    1.4939 H       1  LIG1        0.0532
     40 H          -5.1120    0.4287    0.9453 H       1  LIG1        0.0532
     41 H          -1.3872    3.2140    0.6424 H       1  LIG1        0.0273
     42 H           0.3092    3.0400    0.2659 H       1  LIG1        0.0273
     43 H          -0.9533    3.3396    3.0166 H       1  LIG1        0.0269
     44 H           0.1863    4.4050    2.2254 H       1  LIG1        0.0269
     45 H           1.0987    2.9342    4.1343 H       1  LIG1        0.0343
     46 H           2.0391    2.9487    2.6420 H       1  LIG1        0.0343
@<TRIPOS>BOND
     1     2     4    1
     2     4     5    1
     3     5     7    1
     4     7     8    1
     5     2     8    1
     6    10    11   ar
     7    11    12   ar
     8    12    13    1
     9    13    14    1
    10    14    15    1
    11    12    16   ar
    12    15    16    1
    13    16    17   ar
    14    17    18   ar
    15    10    18   ar
    16    19    20    1
    17    20    21    2
    18     4    22    1
    19    22    23    1
    20    23    24    1
    21    24    25    1
    22     5    25    1
    23     1     2    1
    24     2     3    1
    25     4    19    1
    26     5     6    1
    27     8     9    1
    28     8    10    1
    29    25    26    2
    30     1    27    1
    31     1    28    1
    32     1    29    1
    33     6    30    1
    34    11    31    1
    35    14    32    1
    36    14    33    1
    37    17    34    1
    38    18    35    1
    39    19    36    1
    40    19    37    1
    41    20    38    1
    42    21    39    1
    43    21    40    1
    44    22    41    1
    45    22    42    1
    46    23    43    1
    47    23    44    1
    48    24    45    1
    49    24    46    1
