REMARK  Name = NuBBE_2378
REMARK  7 active torsions:
REMARK  status: ('A' for Active; 'I' for Inactive)
REMARK    1  A    between atoms: C_1  and  C_24
REMARK    2  A    between atoms: C_1  and  C_25
REMARK    3  A    between atoms: C_11  and  O_19
REMARK    4  A    between atoms: C_12  and  O_18
REMARK    5  A    between atoms: C_13  and  C_14
REMARK    6  A    between atoms: C_14  and  C_15
REMARK    7  A    between atoms: C_14  and  C_16
REMARK                            x       y       z     vdW  Elec       q    Type
REMARK                         _______ _______ _______ _____ _____    ______ ____
ROOT
ATOM      1  C   LIG A   1      -0.283  -2.774   1.925  0.00  0.00    -0.031 C 
ATOM      2  C   LIG A   1      -0.207  -1.349   1.277  0.00  0.00    +0.020 C 
ATOM      3  C   LIG A   1      -0.368  -1.283  -0.293  0.00  0.00    +0.100 C 
ATOM      4  C   LIG A   1      -1.880  -1.414  -0.596  0.00  0.00    +0.319 C 
ATOM      5  O   LIG A   1      -2.378  -2.236  -1.353  0.00  0.00    -0.250 OA
ATOM      6  O   LIG A   1      -2.635  -0.471   0.059  0.00  0.00    -0.456 OA
ATOM      7  C   LIG A   1      -1.878   0.481   0.842  0.00  0.00    +0.207 C 
ATOM      8  C   LIG A   1      -0.846   1.103  -0.068  0.00  0.00    +0.001 A 
ATOM      9  C   LIG A   1      -0.018   0.160  -0.719  0.00  0.00    +0.021 A 
ATOM     10  C   LIG A   1       0.936   0.647  -1.600  0.00  0.00    +0.163 A 
ATOM     11  C   LIG A   1       1.109   2.032  -1.768  0.00  0.00    +0.162 A 
ATOM     12  C   LIG A   1       0.304   2.970  -1.108  0.00  0.00    +0.001 A 
ATOM     13  C   LIG A   1      -0.695   2.480  -0.255  0.00  0.00    +0.015 A 
ATOM     14  C   LIG A   1      -1.148  -0.298   1.939  0.00  0.00    +0.055 C 
ATOM     15  C   LIG A   1       0.456  -2.385  -0.980  0.00  0.00    +0.023 C 
ATOM     16  C   LIG A   1       0.312  -3.769  -0.353  0.00  0.00    +0.002 C 
ATOM     17  C   LIG A   1       0.632  -3.738   1.136  0.00  0.00    +0.007 C 
ATOM     18  C   LIG A   1      -1.705  -3.373   1.991  0.00  0.00    +0.011 C 
ATOM     19  C   LIG A   1       0.246  -2.703   3.377  0.00  0.00    +0.011 C 
ENDROOT
BRANCH  12  20
ATOM     20  C   LIG A   1       0.453   4.473  -1.278  0.00  0.00    +0.017 C 
ATOM     21  C   LIG A   1       0.162   4.928  -2.710  0.00  0.00    +0.012 C 
ATOM     22  C   LIG A   1       1.814   4.983  -0.796  0.00  0.00    +0.012 C 
ENDBRANCH  12  20
BRANCH  11  23
ATOM     23  O   LIG A   1       2.095   2.450  -2.624  0.00  0.00    -0.503 OA
ATOM     24  H   LIG A   1       2.545   1.628  -2.905  0.00  0.00    +0.292 HD
ENDBRANCH  11  23
BRANCH  10  25
ATOM     25  O   LIG A   1       1.742  -0.143  -2.370  0.00  0.00    -0.503 OA
ATOM     26  H   LIG A   1       1.162  -0.786  -2.814  0.00  0.00    +0.292 HD
ENDBRANCH  10  25
TORSDOF 3
