@<TRIPOS>MOLECULE
NuBBE_628
 30 30 0 0 0
SMALL
GASTEIGER

@<TRIPOS>ATOM
      1 O          -1.5066   -0.7295    0.8961 O.2     1  LIG1       -0.2450
      2 C          -0.3616   -0.5070    0.5519 C.2     1  LIG1        0.3394
      3 O           0.3448    0.6327    0.7660 O.3     1  LIG1       -0.4612
      4 C          -0.3143    1.6855    1.4916 C.3     1  LIG1        0.0928
      5 C          -1.1497    2.5414    0.5402 C.3     1  LIG1       -0.0188
      6 C          -1.8501    3.6961    1.2569 C.3     1  LIG1       -0.0528
      7 C          -2.6926    4.5366    0.3056 C.3     1  LIG1       -0.0652
      8 C           0.5042   -1.5061   -0.1328 C.ar    1  LIG1        0.0661
      9 C           0.1667   -2.8699   -0.0419 C.ar    1  LIG1       -0.0023
     10 C           0.9875   -3.8171   -0.6502 C.ar    1  LIG1        0.1628
     11 O           0.7269   -5.1579   -0.5865 O.3     1  LIG1       -0.5032
     12 C           2.1228   -3.4158   -1.3467 C.ar    1  LIG1        0.2006
     13 O           2.9433   -4.3383   -1.9370 O.3     1  LIG1       -0.5009
     14 C           2.4420   -2.0691   -1.4501 C.ar    1  LIG1        0.1628
     15 O           3.5540   -1.6766   -2.1361 O.3     1  LIG1       -0.5032
     16 C           1.6411   -1.1073   -0.8525 C.ar    1  LIG1       -0.0023
     17 H           0.4807    2.2927    1.9405 H       1  LIG1        0.0697
     18 H          -0.9093    1.2753    2.3156 H       1  LIG1        0.0697
     19 H          -1.8879    1.9094    0.0335 H       1  LIG1        0.0298
     20 H          -0.4974    2.9352   -0.2491 H       1  LIG1        0.0298
     21 H          -1.1026    4.3431    1.7299 H       1  LIG1        0.0264
     22 H          -2.4945    3.3074    2.0538 H       1  LIG1        0.0264
     23 H          -2.0860    4.9399   -0.5116 H       1  LIG1        0.0230
     24 H          -3.1375    5.3816    0.8419 H       1  LIG1        0.0230
     25 H          -3.5079    3.9491   -0.1291 H       1  LIG1        0.0230
     26 H          -0.7199   -3.1704    0.5106 H       1  LIG1        0.0663
     27 H          -0.0970   -5.2910   -0.0849 H       1  LIG1        0.2923
     28 H           2.5295   -5.2009   -1.7274 H       1  LIG1        0.2924
     29 H           3.9619   -2.5097   -2.4480 H       1  LIG1        0.2923
     30 H           1.9093   -0.0593   -0.9502 H       1  LIG1        0.0663
@<TRIPOS>BOND
     1     1     2    2
     2     2     3    1
     3     3     4    1
     4     4     5    1
     5     5     6    1
     6     6     7    1
     7     2     8    1
     8     8     9   ar
     9     9    10   ar
    10    10    11    1
    11    10    12   ar
    12    12    13    1
    13    12    14   ar
    14    14    15    1
    15    14    16   ar
    16     8    16   ar
    17     4    17    1
    18     4    18    1
    19     5    19    1
    20     5    20    1
    21     6    21    1
    22     6    22    1
    23     7    23    1
    24     7    24    1
    25     7    25    1
    26     9    26    1
    27    11    27    1
    28    13    28    1
    29    15    29    1
    30    16    30    1
