REMARK  Name = NuBBE_582
REMARK  11 active torsions:
REMARK  status: ('A' for Active; 'I' for Inactive)
REMARK    1  A    between atoms: C_6  and  C_8
REMARK    2  A    between atoms: C_9  and  C_10
REMARK    3  A    between atoms: C_10  and  C_11
REMARK    4  A    between atoms: C_14  and  C_16
REMARK    5  A    between atoms: C_17  and  C_18
REMARK    6  A    between atoms: C_24  and  O_33
REMARK    7  A    between atoms: C_26  and  O_29
REMARK    8  A    between atoms: O_29  and  C_30
REMARK    9  A    between atoms: C_30  and  C_31
REMARK   10  A    between atoms: O_33  and  C_34
REMARK   11  A    between atoms: C_34  and  C_35
REMARK                            x       y       z     vdW  Elec       q    Type
REMARK                         _______ _______ _______ _____ _____    ______ ____
ROOT
ATOM      1  C   LIG A   1      -1.115   1.681  -1.226  0.00  0.00    +0.127 C 
ATOM      2  O   LIG A   1      -1.366   0.395  -1.797  0.00  0.00    -0.365 OA
ATOM      3  C   LIG A   1      -0.689  -0.685  -1.149  0.00  0.00    +0.186 C 
ATOM      4  C   LIG A   1      -1.126  -0.829   0.327  0.00  0.00    +0.249 C 
ATOM      5  C   LIG A   1      -0.906   0.523   1.026  0.00  0.00    +0.222 C 
ATOM      6  C   LIG A   1      -1.529   1.683   0.249  0.00  0.00    +0.080 C 
ENDROOT
BRANCH   3   7
ATOM      7  C   LIG A   1      -0.970  -1.894  -1.992  0.00  0.00    +0.009 C 
ATOM      8  C   LIG A   1      -0.120  -2.921  -2.167  0.00  0.00    +0.006 C 
BRANCH   8   9
ATOM      9  C   LIG A   1      -0.410  -4.085  -3.013  0.00  0.00    -0.025 A 
ATOM     10  C   LIG A   1      -1.727  -4.495  -3.260  0.00  0.00    +0.008 A 
ATOM     11  C   LIG A   1      -1.994  -5.595  -4.071  0.00  0.00    +0.001 A 
ATOM     12  C   LIG A   1      -0.944  -6.313  -4.635  0.00  0.00    +0.000 A 
ATOM     13  C   LIG A   1       0.373  -5.937  -4.376  0.00  0.00    +0.001 A 
ATOM     14  C   LIG A   1       0.641  -4.833  -3.560  0.00  0.00    +0.008 A 
ENDBRANCH   8   9
ENDBRANCH   3   7
BRANCH   1  15
ATOM     15  C   LIG A   1       0.329   2.137  -1.524  0.00  0.00    +0.058 C 
BRANCH  15  17
ATOM     16  C   LIG A   1       1.540   3.691   0.011  0.00  0.00    +0.013 C 
ATOM     17  C   LIG A   1       0.650   3.493  -0.975  0.00  0.00    -0.025 C 
BRANCH  16  23
ATOM     18  O   LIG A   1       4.904   4.412   2.317  0.00  0.00    -0.246 OA
ATOM     19  C   LIG A   1       3.714   4.598   2.102  0.00  0.00    +0.332 C 
ATOM     20  C   LIG A   1       2.714   4.313   3.148  0.00  0.00    +0.087 C 
ATOM     21  C   LIG A   1       1.440   4.704   3.032  0.00  0.00    -0.016 C 
ATOM     22  C   LIG A   1       0.965   5.394   1.797  0.00  0.00    +0.076 C 
ATOM     23  C   LIG A   1       1.854   5.044   0.599  0.00  0.00    +0.203 C 
ATOM     24  O   LIG A   1       3.257   5.097   0.926  0.00  0.00    -0.454 OA
ENDBRANCH  16  23
ENDBRANCH  15  17
ENDBRANCH   1  15
BRANCH   5  25
ATOM     25  O   LIG A   1      -1.473   0.514   2.360  0.00  0.00    -0.458 OA
BRANCH  25  26
ATOM     26  C   LIG A   1      -0.603   0.734   3.389  0.00  0.00    +0.304 C 
ATOM     27  C   LIG A   1      -1.344   0.921   4.680  0.00  0.00    +0.136 C 
ATOM     28  O   LIG A   1       0.608   0.859   3.285  0.00  0.00    -0.251 OA
ENDBRANCH  25  26
ENDBRANCH   5  25
BRANCH   4  29
ATOM     29  O   LIG A   1      -0.216  -1.778   0.937  0.00  0.00    -0.455 OA
BRANCH  29  30
ATOM     30  C   LIG A   1      -0.695  -3.027   1.183  0.00  0.00    +0.304 C 
ATOM     31  C   LIG A   1       0.468  -3.983   1.172  0.00  0.00    +0.136 C 
ATOM     32  O   LIG A   1      -1.855  -3.332   1.339  0.00  0.00    -0.251 OA
ENDBRANCH  29  30
ENDBRANCH   4  29
TORSDOF 9
