@<TRIPOS>MOLECULE
NuBBE_1557
 40 42 0 0 0
SMALL
GASTEIGER

@<TRIPOS>ATOM
      1 O          -1.8202    0.9676   -0.3416 O.2     1  LIG1       -0.2863
      2 C          -0.6029    0.9369   -0.5317 C.ar    1  LIG1        0.2038
      3 C           0.1528   -0.3192   -0.7463 C.ar    1  LIG1        0.0679
      4 C           1.4483   -0.1942   -1.0826 C.ar    1  LIG1        0.1040
      5 O           2.1470    0.9825   -1.2356 O.2     1  LIG1       -0.4618
      6 C           1.5102    2.1523   -0.9010 C.ar    1  LIG1        0.1454
      7 C           0.1620    2.1908   -0.5498 C.ar    1  LIG1        0.1060
      8 C          -0.4241    3.4163   -0.2160 C.ar    1  LIG1        0.1347
      9 O          -1.7440    3.5441    0.1281 O.3     1  LIG1       -0.5058
     10 C           0.3304    4.5850   -0.2112 C.ar    1  LIG1        0.0225
     11 C           1.6819    4.5491   -0.5623 C.ar    1  LIG1        0.1271
     12 C           2.2681    3.3277   -0.9138 C.ar    1  LIG1        0.0233
     13 O           2.5159    5.6352   -0.5949 O.3     1  LIG1       -0.4949
     14 C           1.9228    6.8834   -0.2448 C.3     1  LIG1        0.0788
     15 C          -0.4747   -1.6439   -0.5792 C.ar    1  LIG1        0.0306
     16 C          -0.5021   -2.3007    0.6684 C.ar    1  LIG1        0.1314
     17 O           0.0773   -1.6463    1.7298 O.3     1  LIG1       -0.4944
     18 C           0.6035   -2.4788    2.7602 C.3     1  LIG1        0.0788
     19 C          -1.1427   -3.5453    0.7963 C.ar    1  LIG1        0.0224
     20 C          -1.7195   -4.1623   -0.3149 C.ar    1  LIG1        0.1236
     21 C          -1.6809   -3.5196   -1.5512 C.ar    1  LIG1       -0.0191
     22 C          -1.0597   -2.2736   -1.6874 C.ar    1  LIG1       -0.0469
     23 O          -2.3915   -5.3548   -0.2966 O.3     1  LIG1       -0.4950
     24 C          -1.9628   -6.2986    0.6795 C.3     1  LIG1        0.0788
     25 H           2.1087   -1.0316   -1.2659 H       1  LIG1        0.1037
     26 H          -2.1644    2.6584    0.0464 H       1  LIG1        0.2922
     27 H          -0.1683    5.5055    0.0731 H       1  LIG1        0.0691
     28 H           3.3203    3.2947   -1.1883 H       1  LIG1        0.0691
     29 H           2.6878    7.6611   -0.3198 H       1  LIG1        0.0660
     30 H           1.5625    6.8680    0.7899 H       1  LIG1        0.0660
     31 H           1.1157    7.1417   -0.9395 H       1  LIG1        0.0660
     32 H           1.2313   -1.8549    3.4034 H       1  LIG1        0.0660
     33 H           1.2343   -3.2747    2.3486 H       1  LIG1        0.0660
     34 H          -0.1942   -2.8953    3.3841 H       1  LIG1        0.0660
     35 H          -1.2301   -4.0072    1.7710 H       1  LIG1        0.0691
     36 H          -2.1434   -3.9914   -2.4153 H       1  LIG1        0.0654
     37 H          -1.0514   -1.7969   -2.6647 H       1  LIG1        0.0626
     38 H          -2.5382   -7.2182    0.5319 H       1  LIG1        0.0660
     39 H          -2.1627   -5.9529    1.6978 H       1  LIG1        0.0660
     40 H          -0.9029   -6.5400    0.5458 H       1  LIG1        0.0660
@<TRIPOS>BOND
     1     1     2    2
     2     2     3   ar
     3     3     4   ar
     4     4     5   ar
     5     5     6   ar
     6     6     7   ar
     7     2     7   ar
     8     7     8   ar
     9     8     9    1
    10     8    10   ar
    11    10    11   ar
    12    11    12   ar
    13     6    12   ar
    14    11    13    1
    15    13    14    1
    16     3    15    1
    17    15    16   ar
    18    16    17    1
    19    17    18    1
    20    16    19   ar
    21    19    20   ar
    22    20    21   ar
    23    21    22   ar
    24    15    22   ar
    25    20    23    1
    26    23    24    1
    27     4    25    1
    28     9    26    1
    29    10    27    1
    30    12    28    1
    31    14    29    1
    32    14    30    1
    33    14    31    1
    34    18    32    1
    35    18    33    1
    36    18    34    1
    37    19    35    1
    38    21    36    1
    39    22    37    1
    40    24    38    1
    41    24    39    1
    42    24    40    1
