REMARK  Name = NuBBE_2134
REMARK  1 active torsions:
REMARK  status: ('A' for Active; 'I' for Inactive)
REMARK    1  A    between atoms: C_1  and  C_2
REMARK                            x       y       z     vdW  Elec       q    Type
REMARK                         _______ _______ _______ _____ _____    ______ ____
ROOT
ATOM      1  C   LIG A   1      -2.532   0.097   0.036  0.00  0.00    +0.038 C 
ATOM      2  C   LIG A   1      -1.028   0.126   0.019  0.00  0.00    -0.076 C 
ATOM      3  C   LIG A   1      -0.349   1.279   0.019  0.00  0.00    -0.028 C 
ATOM      4  C   LIG A   1       1.135   1.393  -0.015  0.00  0.00    +0.027 C 
ATOM      5  C   LIG A   1       1.931   0.091  -0.024  0.00  0.00    +0.004 C 
ATOM      6  C   LIG A   1       1.173  -1.233  -0.014  0.00  0.00    +0.005 C 
ATOM      7  C   LIG A   1      -0.355  -1.212  -0.007  0.00  0.00    +0.030 C 
ENDROOT
TORSDOF 0
