@<TRIPOS>MOLECULE
NuBBE_2345
 47 49 0 0 0
SMALL
GASTEIGER

@<TRIPOS>ATOM
      1 C           1.2934    4.5195   -2.8137 C.3     1  LIG1        0.0790
      2 O          -0.0651    4.1117   -2.6755 O.3     1  LIG1       -0.4913
      3 C          -0.2900    2.9456   -1.9891 C.ar    1  LIG1        0.1655
      4 C          -1.4108    2.1533   -2.3175 C.ar    1  LIG1        0.2035
      5 O          -2.2887    2.3772   -3.3532 O.3     1  LIG1       -0.4885
      6 C          -2.5332    3.7129   -3.7662 C.3     1  LIG1        0.0791
      7 C          -1.6372    0.9536   -1.6049 C.ar    1  LIG1        0.1655
      8 O          -2.7554    0.2185   -1.9350 O.3     1  LIG1       -0.4913
      9 C          -3.0230   -0.9390   -1.1456 C.3     1  LIG1        0.0790
     10 C          -0.7357    0.5539   -0.6140 C.ar    1  LIG1       -0.0094
     11 C           0.3830    1.3264   -0.2832 C.ar    1  LIG1        0.0004
     12 C           1.3943    0.8549    0.7549 C.3     1  LIG1        0.1320
     13 H           2.1460    1.6439    0.8886 H       1  LIG1        0.0790
     14 O           0.7313    0.6924    2.0389 O.3     1  LIG1       -0.4832
     15 C           0.6005   -0.6650    2.1792 C.ar    1  LIG1        0.1287
     16 C          -0.2381   -1.2550    3.1085 C.ar    1  LIG1        0.0255
     17 C          -0.3663   -2.6477    3.0719 C.ar    1  LIG1        0.1620
     18 O          -1.2453   -3.2255    3.9516 O.3     1  LIG1       -0.5032
     19 C           0.3434   -3.4217    2.1347 C.ar    1  LIG1        0.1618
     20 O           0.2573   -4.7773    1.9446 O.3     1  LIG1       -0.4914
     21 C          -0.0820   -5.5655    3.0780 C.3     1  LIG1        0.0790
     22 C           1.1940   -2.7849    1.2122 C.ar    1  LIG1       -0.0093
     23 C           1.3116   -1.4047    1.2564 C.ar    1  LIG1        0.0046
     24 C           2.0885   -0.4836    0.3802 C.3     1  LIG1        0.0261
     25 H           1.9690   -0.7279   -0.6807 H       1  LIG1        0.0387
     26 C           3.5701   -0.4759    0.7437 C.3     1  LIG1       -0.0546
     27 C           0.5682    2.5394   -0.9527 C.ar    1  LIG1       -0.0094
     28 H           1.3230    5.3514   -3.5235 H       1  LIG1        0.0660
     29 H           1.9157    3.7117   -3.2152 H       1  LIG1        0.0660
     30 H           1.6941    4.8919   -1.8659 H       1  LIG1        0.0660
     31 H          -3.3326    3.6825   -4.5145 H       1  LIG1        0.0660
     32 H          -1.6723    4.1560   -4.2722 H       1  LIG1        0.0660
     33 H          -2.8807    4.3301   -2.9319 H       1  LIG1        0.0660
     34 H          -3.1514   -0.6797   -0.0879 H       1  LIG1        0.0660
     35 H          -2.2358   -1.6907   -1.2727 H       1  LIG1        0.0660
     36 H          -3.9606   -1.3838   -1.4906 H       1  LIG1        0.0660
     37 H          -0.8889   -0.3785   -0.0842 H       1  LIG1        0.0659
     38 H          -0.7959   -0.6352    3.7941 H       1  LIG1        0.0692
     39 H          -1.6890   -2.5311    4.4619 H       1  LIG1        0.2923
     40 H           0.0237   -6.6166    2.7896 H       1  LIG1        0.0660
     41 H          -1.1262   -5.4357    3.3718 H       1  LIG1        0.0660
     42 H           0.6040   -5.3769    3.9101 H       1  LIG1        0.0660
     43 H           1.7286   -3.3703    0.4710 H       1  LIG1        0.0659
     44 H           3.7305   -0.2276    1.7993 H       1  LIG1        0.0237
     45 H           4.1070    0.2633    0.1395 H       1  LIG1        0.0237
     46 H           4.0247   -1.4556    0.5615 H       1  LIG1        0.0237
     47 H           1.4022    3.1653   -0.6517 H       1  LIG1        0.0659
@<TRIPOS>BOND
     1     1     2    1
     2     2     3    1
     3     3     4   ar
     4     4     5    1
     5     5     6    1
     6     4     7   ar
     7     7     8    1
     8     8     9    1
     9     7    10   ar
    10    10    11   ar
    11    12    14    1
    12    14    15    1
    13    15    16   ar
    14    16    17   ar
    15    17    18    1
    16    17    19   ar
    17    19    20    1
    18    20    21    1
    19    19    22   ar
    20    22    23   ar
    21    15    23   ar
    22    23    24    1
    23    12    24    1
    24    11    27   ar
    25     3    27   ar
    26    12    13    1
    27    12    11    1
    28    24    26    1
    29    24    25    1
    30     1    28    1
    31     1    29    1
    32     1    30    1
    33     6    31    1
    34     6    32    1
    35     6    33    1
    36     9    34    1
    37     9    35    1
    38     9    36    1
    39    10    37    1
    40    16    38    1
    41    18    39    1
    42    21    40    1
    43    21    41    1
    44    21    42    1
    45    22    43    1
    46    26    44    1
    47    26    45    1
    48    26    46    1
    49    27    47    1
