@<TRIPOS>MOLECULE
NuBBE_2155
 57 60 0 0 0
SMALL
GASTEIGER

@<TRIPOS>ATOM
      1 C           2.6207   -0.7732   -4.5484 C.3     1  LIG1        0.0790
      2 O           2.1491   -0.1844   -3.3404 O.3     1  LIG1       -0.4913
      3 C           0.8186   -0.3254   -3.0662 C.ar    1  LIG1        0.1656
      4 C          -0.1389   -0.9625   -3.8298 C.ar    1  LIG1        0.2075
      5 O           0.0324   -1.5770   -5.0337 O.3     1  LIG1       -0.4489
      6 C          -1.3162   -1.9397   -5.3691 C.3     1  LIG1        0.2334
      7 O          -2.2529   -1.6685   -4.3102 O.3     1  LIG1       -0.4525
      8 C          -1.4514   -1.0256   -3.4148 C.ar    1  LIG1        0.1702
      9 C          -1.8825   -0.4787   -2.2194 C.ar    1  LIG1       -0.0123
     10 C          -0.9482    0.1871   -1.4095 C.ar    1  LIG1       -0.0327
     11 C          -1.4138    0.8408   -0.0978 C.3     1  LIG1        0.0338
     12 H          -2.4972    0.6716   -0.0269 H       1  LIG1        0.0394
     13 C          -1.1167    2.3613   -0.1440 C.3     1  LIG1        0.1048
     14 H          -0.6947    2.6548   -1.1137 H       1  LIG1        0.0736
     15 C          -2.3311    3.2534    0.0855 C.3     1  LIG1       -0.0272
     16 O          -0.1087    2.6499    0.8467 O.2     1  LIG1       -0.4884
     17 C           0.3166    1.4229    1.3162 C.2     1  LIG1        0.1499
     18 C          -0.7339    0.3721    1.2208 C.3     1  LIG1        0.0447
     19 C          -1.7283    0.5101    2.4365 C.3     1  LIG1       -0.0398
     20 C          -1.0762    0.3299    3.8259 C.3     1  LIG1       -0.0550
     21 C          -2.0814    0.4271    4.9635 C.3     1  LIG1       -0.0652
     22 C          -0.2299   -1.0889    1.2064 C.3     1  LIG1       -0.0059
     23 C           1.2952   -1.2541    1.1452 C.3     1  LIG1        0.1247
     24 H           1.6753   -1.1053    0.1272 H       1  LIG1        0.0680
     25 O           1.6552   -2.5837    1.5450 O.3     1  LIG1       -0.3718
     26 C           1.1300   -3.6127    0.7184 C.3     1  LIG1        0.0374
     27 C           1.5881    1.2318    1.6966 C.2     1  LIG1        0.2032
     28 O           2.4576    2.3123    1.7630 O.2     1  LIG1       -0.4888
     29 C           3.8094    2.0391    2.1325 C.3     1  LIG1        0.0791
     30 C           1.9775   -0.1960    2.0241 C.2     1  LIG1        0.2290
     31 O           2.8204   -0.4605    2.8869 O.2     1  LIG1       -0.2859
     32 C           0.3936    0.2662   -1.8639 C.ar    1  LIG1       -0.0125
     33 H           3.6931   -0.5710   -4.6282 H       1  LIG1        0.0660
     34 H           2.1400   -0.3213   -5.4226 H       1  LIG1        0.0660
     35 H           2.4938   -1.8612   -4.5338 H       1  LIG1        0.0660
     36 H          -1.3424   -3.0093   -5.6045 H       1  LIG1        0.1166
     37 H          -1.6143   -1.3769   -6.2621 H       1  LIG1        0.1166
     38 H          -2.9291   -0.5572   -1.9421 H       1  LIG1        0.0658
     39 H          -2.5942    3.3312    1.1440 H       1  LIG1        0.0265
     40 H          -3.1998    2.9089   -0.4838 H       1  LIG1        0.0265
     41 H          -2.1012    4.2729   -0.2476 H       1  LIG1        0.0265
     42 H          -2.5299   -0.2325    2.3191 H       1  LIG1        0.0275
     43 H          -2.2217    1.4882    2.4214 H       1  LIG1        0.0275
     44 H          -0.3093    1.0960    3.9791 H       1  LIG1        0.0263
     45 H          -0.5770   -0.6401    3.9126 H       1  LIG1        0.0263
     46 H          -2.6342    1.3697    4.9262 H       1  LIG1        0.0230
     47 H          -1.5579    0.3777    5.9251 H       1  LIG1        0.0230
     48 H          -2.7957   -0.4016    4.9301 H       1  LIG1        0.0230
     49 H          -0.7078   -1.6470    0.3939 H       1  LIG1        0.0304
     50 H          -0.5775   -1.6350    2.0923 H       1  LIG1        0.0304
     51 H           1.5105   -4.5714    1.0799 H       1  LIG1        0.0524
     52 H           1.4365   -3.4762   -0.3229 H       1  LIG1        0.0524
     53 H           0.0385   -3.6528    0.7879 H       1  LIG1        0.0524
     54 H           4.3826    2.9589    1.9820 H       1  LIG1        0.0660
     55 H           4.2477    1.2662    1.4953 H       1  LIG1        0.0660
     56 H           3.8733    1.7777    3.1916 H       1  LIG1        0.0660
     57 H           1.1382    0.8118   -1.2858 H       1  LIG1        0.0658
@<TRIPOS>BOND
     1     1     2    1
     2     2     3    1
     3     3     4   ar
     4     4     5    1
     5     5     6    1
     6     6     7    1
     7     4     8   ar
     8     7     8    1
     9     8     9   ar
    10     9    10   ar
    11    10    11    1
    12    11    12    1
    13    11    13    1
    14    13    16    1
    15    16    17    1
    16    17    18    1
    17    18    19    1
    18    19    20    1
    19    20    21    1
    20    11    18    1
    21    18    22    1
    22    22    23    1
    23    23    24    1
    24    23    25    1
    25    25    26    1
    26    17    27    2
    27    27    28    1
    28    28    29    1
    29    27    30    1
    30    23    30    1
    31    30    31    2
    32    10    32   ar
    33     3    32   ar
    34    13    15    1
    35    13    14    1
    36     1    33    1
    37     1    34    1
    38     1    35    1
    39     6    36    1
    40     6    37    1
    41     9    38    1
    42    15    39    1
    43    15    40    1
    44    15    41    1
    45    19    42    1
    46    19    43    1
    47    20    44    1
    48    20    45    1
    49    21    46    1
    50    21    47    1
    51    21    48    1
    52    22    49    1
    53    22    50    1
    54    26    51    1
    55    26    52    1
    56    26    53    1
    57    29    54    1
    58    29    55    1
    59    29    56    1
    60    32    57    1
