REMARK  Name = NuBBE_2126
REMARK  1 active torsions:
REMARK  status: ('A' for Active; 'I' for Inactive)
REMARK    1  A    between atoms: C_1  and  C_2
REMARK                            x       y       z     vdW  Elec       q    Type
REMARK                         _______ _______ _______ _____ _____    ______ ____
ROOT
ATOM      1  C   LIG A   1      -1.516   0.355   1.338  0.00  0.00    +0.007 C 
ATOM      2  C   LIG A   1       0.006   0.314   1.179  0.00  0.00    -0.014 C 
ATOM      3  C   LIG A   1       0.499  -1.092   0.805  0.00  0.00    +0.003 C 
ATOM      4  C   LIG A   1       0.163  -1.478  -0.634  0.00  0.00    +0.000 C 
ATOM      5  C   LIG A   1       0.657  -0.434  -1.631  0.00  0.00    +0.000 C 
ATOM      6  C   LIG A   1       0.164   0.968  -1.286  0.00  0.00    +0.000 C 
ATOM      7  C   LIG A   1       0.498   1.348   0.156  0.00  0.00    +0.003 C 
ENDROOT
TORSDOF 0
