REMARK  Name = NuBBE_32
REMARK  13 active torsions:
REMARK  status: ('A' for Active; 'I' for Inactive)
REMARK    1  A    between atoms: O_1  and  C_2
REMARK    2  A    between atoms: C_6  and  C_7
REMARK    3  A    between atoms: C_6  and  C_13
REMARK    4  A    between atoms: C_8  and  C_9
REMARK    5  A    between atoms: C_10  and  C_11
REMARK    6  A    between atoms: C_10  and  C_12
REMARK    7  A    between atoms: C_16  and  C_17
REMARK    8  A    between atoms: C_17  and  C_18
REMARK    9  A    between atoms: C_19  and  C_20
REMARK   10  A    between atoms: C_19  and  C_21
REMARK   11  A    between atoms: C_22  and  C_23
REMARK   12  A    between atoms: C_24  and  C_25
REMARK   13  A    between atoms: C_25  and  O_26
REMARK                            x       y       z     vdW  Elec       q    Type
REMARK                         _______ _______ _______ _____ _____    ______ ____
ROOT
ATOM      1  C   LIG A   1      -2.412  -1.367   2.162  0.00  0.00    +0.138 A 
ATOM      2  C   LIG A   1      -1.731  -0.144   2.169  0.00  0.00    +0.037 A 
ATOM      3  C   LIG A   1      -0.396  -0.109   1.752  0.00  0.00    +0.132 A 
ATOM      4  O   LIG A   1       0.318   1.063   1.670  0.00  0.00    -0.481 OA
ATOM      5  C   LIG A   1      -0.421   2.300   1.705  0.00  0.00    +0.127 C 
ATOM      6  C   LIG A   1       0.605   3.384   2.075  0.00  0.00    +0.060 C 
ATOM      7  C   LIG A   1      -1.487   2.255   2.808  0.00  0.00    +0.057 C 
ATOM      8  C   LIG A   1      -2.454   1.109   2.578  0.00  0.00    +0.047 C 
ATOM      9  C   LIG A   1       0.291  -1.295   1.394  0.00  0.00    +0.002 A 
ATOM     10  C   LIG A   1      -0.419  -2.527   1.349  0.00  0.00    -0.026 A 
ATOM     11  C   LIG A   1       0.261  -3.794   0.882  0.00  0.00    +0.045 C 
ATOM     12  C   LIG A   1      -1.778  -2.559   1.758  0.00  0.00    +0.104 A 
ENDROOT
BRANCH   1  13
ATOM     13  O   LIG A   1      -3.726  -1.331   2.565  0.00  0.00    -0.505 OA
ATOM     14  H   LIG A   1      -4.150  -2.162   2.267  0.00  0.00    +0.292 HD
ENDBRANCH   1  13
BRANCH   5  15
ATOM     15  C   LIG A   1      -0.995   2.647   0.333  0.00  0.00    +0.020 C 
ATOM     16  C   LIG A   1      -0.447   2.318  -0.851  0.00  0.00    -0.000 C 
BRANCH  16  17
ATOM     17  C   LIG A   1      -1.009   2.721  -2.124  0.00  0.00    -0.002 C 
ATOM     18  C   LIG A   1      -0.543   2.420  -3.353  0.00  0.00    -0.076 C 
ATOM     19  C   LIG A   1       0.634   1.540  -3.664  0.00  0.00    +0.038 C 
ATOM     20  C   LIG A   1      -1.203   2.983  -4.585  0.00  0.00    +0.038 C 
ENDBRANCH  16  17
ENDBRANCH   5  15
BRANCH  12  21
ATOM     21  C   LIG A   1      -2.529  -3.843   1.797  0.00  0.00    +0.341 C 
ATOM     22  O   LIG A   1      -2.079  -4.966   1.968  0.00  0.00    -0.245 OA
BRANCH  21  23
ATOM     23  O   LIG A   1      -3.849  -3.673   1.581  0.00  0.00    -0.477 OA
ATOM     24  H   LIG A   1      -4.196  -4.590   1.548  0.00  0.00    +0.295 HD
ENDBRANCH  21  23
ENDBRANCH  12  21
BRANCH   9  25
ATOM     25  C   LIG A   1       1.776  -1.214   1.046  0.00  0.00    +0.066 C 
BRANCH  25  26
ATOM     26  C   LIG A   1       2.031  -1.015  -0.427  0.00  0.00    -0.023 C 
ATOM     27  C   LIG A   1       3.095  -1.432  -1.143  0.00  0.00    -0.079 C 
ATOM     28  C   LIG A   1       4.250  -2.216  -0.584  0.00  0.00    +0.038 C 
ATOM     29  C   LIG A   1       3.221  -1.106  -2.608  0.00  0.00    +0.038 C 
ENDBRANCH  25  26
ENDBRANCH   9  25
TORSDOF 7
