@<TRIPOS>MOLECULE
NuBBE_859
 74 75 0 0 0
SMALL
GASTEIGER

@<TRIPOS>ATOM
      1 C           1.1896   -4.3436   -4.8166 C.3     1  LIG1       -0.0361
      2 C           1.4957   -4.2417   -3.3518 C.ar    1  LIG1       -0.0050
      3 C           0.8717   -5.0864   -2.4422 C.ar    1  LIG1       -0.0128
      4 C           1.1161   -4.9647   -1.0772 C.ar    1  LIG1        0.1324
      5 O           0.4688   -5.7784   -0.1283 O.3     1  LIG1       -0.4260
      6 C          -0.8266   -6.2618   -0.4233 C.2     1  LIG1        0.3092
      7 C          -1.2376   -7.1870    0.6797 C.3     1  LIG1        0.0336
      8 O          -1.5121   -6.0263   -1.3686 O.2     1  LIG1       -0.2507
      9 C           2.0699   -4.0554   -0.5998 C.ar    1  LIG1       -0.0126
     10 C           2.7229   -3.2103   -1.5052 C.ar    1  LIG1       -0.0018
     11 C           2.3774   -3.2764   -2.8651 C.ar    1  LIG1        0.1276
     12 O           2.8660   -2.4116   -3.8041 O.3     1  LIG1       -0.4854
     13 C           3.4526   -1.1966   -3.2959 C.3     1  LIG1        0.1085
     14 C           2.2951   -0.2687   -2.8524 C.3     1  LIG1       -0.0097
     15 C           2.6117    1.0895   -2.2270 C.3     1  LIG1       -0.0309
     16 C           1.4513    1.9285   -1.6917 C.2     1  LIG1       -0.0849
     17 C           0.1145    1.7174   -1.6540 C.2     1  LIG1       -0.0762
     18 C          -0.5998    0.5235   -2.2330 C.3     1  LIG1       -0.0438
     19 C          -0.8441    2.7400   -1.0371 C.3     1  LIG1       -0.0286
     20 C          -0.6595    3.0362    0.4553 C.3     1  LIG1       -0.0308
     21 C          -1.6436    4.0908    0.9266 C.2     1  LIG1       -0.0847
     22 C          -2.0520    4.2442    2.1971 C.2     1  LIG1       -0.0762
     23 C          -1.5259    3.3450    3.2474 C.3     1  LIG1       -0.0438
     24 C          -3.1251    5.2622    2.6175 C.3     1  LIG1       -0.0286
     25 C          -4.1890    4.8743    3.7058 C.3     1  LIG1       -0.0308
     26 C          -3.6506    4.5183    5.0890 C.2     1  LIG1       -0.0850
     27 C          -3.4407    3.2654    5.5702 C.2     1  LIG1       -0.0796
     28 C          -3.7588    1.9661    4.8370 C.3     1  LIG1       -0.0440
     29 C          -2.6728    2.9729    6.8338 C.3     1  LIG1       -0.0440
     30 C           4.2050   -0.6485   -4.5108 C.3     1  LIG1       -0.0249
     31 C           4.4565   -1.5620   -2.2032 C.3     1  LIG1       -0.0091
     32 C           3.7500   -2.2201   -1.0241 C.3     1  LIG1       -0.0205
     33 H           0.6864   -5.2858   -5.0562 H       1  LIG1        0.0279
     34 H           2.1193   -4.3211   -5.3942 H       1  LIG1        0.0279
     35 H           0.5472   -3.5154   -5.1318 H       1  LIG1        0.0279
     36 H           0.1833   -5.8325   -2.8238 H       1  LIG1        0.0658
     37 H          -1.0922   -6.7175    1.6517 H       1  LIG1        0.0342
     38 H          -0.6849   -8.1292    0.6046 H       1  LIG1        0.0342
     39 H          -2.3092   -7.3983    0.5574 H       1  LIG1        0.0342
     40 H           2.3020   -3.9971    0.4600 H       1  LIG1        0.0658
     41 H           1.6627   -0.8192   -2.1446 H       1  LIG1        0.0306
     42 H           1.6916   -0.1014   -3.7515 H       1  LIG1        0.0306
     43 H           3.1360    1.6947   -2.9738 H       1  LIG1        0.0309
     44 H           3.3037    0.9459   -1.3889 H       1  LIG1        0.0309
     45 H           1.8033    2.8671   -1.2529 H       1  LIG1        0.0572
     46 H          -1.5092    0.8203   -2.7623 H       1  LIG1        0.0274
     47 H          -0.8431   -0.1886   -1.4404 H       1  LIG1        0.0274
     48 H          -0.0467   -0.0075   -2.9952 H       1  LIG1        0.0274
     49 H          -1.8767    2.3877   -1.1734 H       1  LIG1        0.0313
     50 H          -0.7745    3.6776   -1.6008 H       1  LIG1        0.0313
     51 H           0.3497    3.4054    0.6637 H       1  LIG1        0.0310
     52 H          -0.7870    2.0927    1.0017 H       1  LIG1        0.0310
     53 H          -2.0326    4.7834    0.1867 H       1  LIG1        0.0572
     54 H          -1.0279    2.4121    2.9831 H       1  LIG1        0.0274
     55 H          -2.4499    2.9525    3.5579 H       1  LIG1        0.0274
     56 H          -1.0313    3.8378    4.0854 H       1  LIG1        0.0274
     57 H          -3.6981    5.5340    1.7174 H       1  LIG1        0.0313
     58 H          -2.6128    6.1755    2.9401 H       1  LIG1        0.0313
     59 H          -4.8299    4.0722    3.3257 H       1  LIG1        0.0310
     60 H          -4.8657    5.7350    3.8268 H       1  LIG1        0.0310
     61 H          -3.3670    5.3830    5.6930 H       1  LIG1        0.0572
     62 H          -4.1199    2.1031    3.8104 H       1  LIG1        0.0274
     63 H          -4.5053    1.3883    5.3689 H       1  LIG1        0.0274
     64 H          -2.8380    1.3604    4.7619 H       1  LIG1        0.0274
     65 H          -2.2871    3.8577    7.3455 H       1  LIG1        0.0274
     66 H          -1.8040    2.3366    6.6038 H       1  LIG1        0.0274
     67 H          -3.3234    2.4111    7.5067 H       1  LIG1        0.0274
     68 H           3.5147   -0.3564   -5.3114 H       1  LIG1        0.0268
     69 H           4.8345   -1.4393   -4.9412 H       1  LIG1        0.0268
     70 H           4.8407    0.2005   -4.2544 H       1  LIG1        0.0268
     71 H           5.0329   -0.6908   -1.8780 H       1  LIG1        0.0307
     72 H           5.1711   -2.2890   -2.6161 H       1  LIG1        0.0307
     73 H           3.2634   -1.4554   -0.4074 H       1  LIG1        0.0316
     74 H           4.4971   -2.7253   -0.4018 H       1  LIG1        0.0316
@<TRIPOS>BOND
     1     1     2    1
     2     2     3   ar
     3     3     4   ar
     4     4     5    1
     5     5     6    1
     6     6     7    1
     7     6     8    2
     8     4     9   ar
     9     9    10   ar
    10    10    11   ar
    11     2    11   ar
    12    11    12    1
    13    12    13    1
    14    13    14    1
    15    14    15    1
    16    15    16    1
    17    16    17    2
    18    17    18    1
    19    17    19    1
    20    19    20    1
    21    20    21    1
    22    21    22    2
    23    22    23    1
    24    22    24    1
    25    24    25    1
    26    25    26    1
    27    26    27    2
    28    27    28    1
    29    27    29    1
    30    13    30    1
    31    13    31    1
    32    31    32    1
    33    10    32    1
    34     1    33    1
    35     1    34    1
    36     1    35    1
    37     3    36    1
    38     7    37    1
    39     7    38    1
    40     7    39    1
    41     9    40    1
    42    14    41    1
    43    14    42    1
    44    15    43    1
    45    15    44    1
    46    16    45    1
    47    18    46    1
    48    18    47    1
    49    18    48    1
    50    19    49    1
    51    19    50    1
    52    20    51    1
    53    20    52    1
    54    21    53    1
    55    23    54    1
    56    23    55    1
    57    23    56    1
    58    24    57    1
    59    24    58    1
    60    25    59    1
    61    25    60    1
    62    26    61    1
    63    28    62    1
    64    28    63    1
    65    28    64    1
    66    29    65    1
    67    29    66    1
    68    29    67    1
    69    30    68    1
    70    30    69    1
    71    30    70    1
    72    31    71    1
    73    31    72    1
    74    32    73    1
    75    32    74    1
