@<TRIPOS>MOLECULE
NuBBE_956
 43 47 0 0 0
SMALL
GASTEIGER

@<TRIPOS>ATOM
      1 O          -6.5588   -0.3576    0.9212 O.2     1  LIG1       -0.2452
      2 C          -5.3058   -0.4834    0.7460 C.ar    1  LIG1        0.3372
      3 O          -4.3601    0.0173    1.6212 O.2     1  LIG1       -0.4219
      4 C          -2.9858    0.0092    1.2001 C.ar    1  LIG1        0.1460
      5 C          -1.9749    0.0890    2.1709 C.ar    1  LIG1        0.0236
      6 C          -0.6606    0.1403    1.7135 C.ar    1  LIG1        0.1317
      7 C          -0.5034    0.4530    0.3377 C.ar    1  LIG1        0.0403
      8 C          -1.4219    0.1128   -0.6295 C.ar    1  LIG1        0.1388
      9 O          -1.0013    0.0750   -1.9271 O.3     1  LIG1       -0.4848
     10 C           0.4386   -0.2130   -2.1770 C.3     1  LIG1        0.1085
     11 C           1.4851    0.4339   -1.1715 C.3     1  LIG1        0.0057
     12 H           2.0404    1.2090   -1.7223 H       1  LIG1        0.0345
     13 C           0.7117    1.2332   -0.1248 C.3     1  LIG1        0.0011
     14 C           1.5643    1.3691    1.1019 C.3     1  LIG1       -0.0057
     15 C           1.8977    0.3326    2.1304 C.3     1  LIG1        0.1085
     16 C           3.0698   -0.3487    1.0991 C.3     1  LIG1       -0.0128
     17 C           2.6903   -0.4768   -0.5199 C.3     1  LIG1       -0.0424
     18 O           0.4823   -0.1888    2.5162 O.3     1  LIG1       -0.4854
     19 C           2.5467    0.9407    3.3723 C.3     1  LIG1       -0.0249
     20 C           0.7099    0.4188   -3.5614 C.3     1  LIG1       -0.0249
     21 C           0.5829   -1.7313   -2.3180 C.3     1  LIG1       -0.0249
     22 C          -2.7136   -0.1459   -0.1827 C.ar    1  LIG1        0.0597
     23 C          -3.8376   -0.5672   -1.0327 C.ar    1  LIG1       -0.0408
     24 C          -4.7506   -1.3033   -0.3523 C.ar    1  LIG1        0.0237
     25 H          -2.2297    0.1318    3.2274 H       1  LIG1        0.0691
     26 H           0.4363    2.2269   -0.4771 H       1  LIG1        0.0356
     27 H           1.3453    0.3400    0.8604 H       1  LIG1        0.0310
     28 H           0.9856    2.0665    1.6966 H       1  LIG1        0.0310
     29 H           3.5716   -1.2449    1.4766 H       1  LIG1        0.0304
     30 H           3.8602    0.4293    1.0902 H       1  LIG1        0.0304
     31 H           2.5659   -1.5370   -0.7411 H       1  LIG1        0.0271
     32 H           3.6030   -0.1766   -1.0678 H       1  LIG1        0.0271
     33 H           3.6209    0.7382    3.4151 H       1  LIG1        0.0268
     34 H           2.0938    0.5864    4.3037 H       1  LIG1        0.0268
     35 H           2.4268    2.0288    3.3548 H       1  LIG1        0.0268
     36 H           0.4967    1.4948   -3.5395 H       1  LIG1        0.0268
     37 H           0.0648   -0.0087   -4.3361 H       1  LIG1        0.0268
     38 H           1.7538    0.2823   -3.8671 H       1  LIG1        0.0268
     39 H           0.3704   -2.2346   -1.3693 H       1  LIG1        0.0268
     40 H           1.5863   -2.0132   -2.6545 H       1  LIG1        0.0268
     41 H          -0.1331   -2.1264   -3.0476 H       1  LIG1        0.0268
     42 H          -4.1755    0.1949   -1.7203 H       1  LIG1        0.0628
     43 H          -4.3886   -2.1961    0.1844 H       1  LIG1        0.0689
@<TRIPOS>BOND
     1     1     2    2
     2     2     3   ar
     3     3     4   ar
     4     4     5   ar
     5     5     6   ar
     6     6     7   ar
     7     7     8   ar
     8     8     9    1
     9     9    10    1
    10    10    11    1
    11    11    12    1
    12    11    13    1
    13     7    13    1
    14    13    14    1
    15    14    15    1
    16    15    16    1
    17    16    17    1
    18    11    17    1
    19    15    18    1
    20     6    18    1
    21    15    19    1
    22    10    20    1
    23    10    21    1
    24     8    22   ar
    25     4    22   ar
    26    22    23   ar
    27    23    24   ar
    28     2    24   ar
    29     5    25    1
    30    13    26    1
    31    14    27    1
    32    14    28    1
    33    16    29    1
    34    16    30    1
    35    17    31    1
    36    17    32    1
    37    19    33    1
    38    19    34    1
    39    19    35    1
    40    20    36    1
    41    20    37    1
    42    20    38    1
    43    21    39    1
    44    21    40    1
    45    21    41    1
    46    23    42    1
    47    24    43    1
