@<TRIPOS>MOLECULE
NuBBE_2456
 56 58 0 0 0
SMALL
GASTEIGER

@<TRIPOS>ATOM
      1 C          -4.6065    0.1467    2.6190 C.3     1  LIG1        0.0790
      2 O          -4.5896   -1.2393    2.9480 O.3     1  LIG1       -0.4914
      3 C          -3.4048   -1.9150    2.7970 C.ar    1  LIG1        0.1617
      4 C          -2.2201   -1.3167    2.3680 C.ar    1  LIG1       -0.0131
      5 C          -1.0366   -2.0537    2.2476 C.ar    1  LIG1       -0.0433
      6 C           0.2051   -1.3849    1.7261 C.3     1  LIG1       -0.0222
      7 C           0.3214   -1.5073    0.2014 C.3     1  LIG1       -0.0060
      8 H           0.2769   -2.5664   -0.0808 H       1  LIG1        0.0330
      9 C           1.5784   -0.8471   -0.3570 C.3     1  LIG1        0.0178
     10 H           1.7228   -1.3496   -1.3210 H       1  LIG1        0.0355
     11 C           2.8689   -0.9931    0.4366 C.3     1  LIG1        0.0500
     12 O           3.1741   -2.3743    0.5659 O.3     1  LIG1       -0.3946
     13 C           1.1703    0.6145   -0.5437 C.3     1  LIG1        0.0890
     14 H           1.4424    1.2058    0.3436 H       1  LIG1        0.0650
     15 C           1.7007    1.3322   -1.7629 C.ar    1  LIG1       -0.0149
     16 C           2.5045    0.7235   -2.7218 C.ar    1  LIG1       -0.0524
     17 C           2.9176    1.4028   -3.8656 C.ar    1  LIG1       -0.0160
     18 C           2.5717    2.7393   -4.0611 C.ar    1  LIG1        0.1615
     19 O           3.0183    3.2373   -5.2537 O.3     1  LIG1       -0.4915
     20 C           3.3151    4.6250   -5.3047 C.3     1  LIG1        0.0790
     21 C           1.7980    3.3911   -3.0950 C.ar    1  LIG1        0.1618
     22 O           1.3940    4.6836   -3.3153 O.3     1  LIG1       -0.4914
     23 C           1.2246    5.4936   -2.1547 C.3     1  LIG1        0.0790
     24 C           1.3569    2.6789   -1.9608 C.ar    1  LIG1       -0.0107
     25 O          -0.2763    0.6339   -0.6018 O.3     1  LIG1       -0.3713
     26 C          -0.7396   -0.7204   -0.5613 C.3     1  LIG1        0.0520
     27 C          -1.0382   -3.4132    2.5570 C.ar    1  LIG1       -0.0549
     28 C          -2.2132   -4.0257    2.9863 C.ar    1  LIG1       -0.0160
     29 C          -3.3960   -3.2860    3.1178 C.ar    1  LIG1        0.1615
     30 O          -4.5909   -3.8525    3.4897 O.3     1  LIG1       -0.4915
     31 C          -4.4959   -4.9345    4.4093 C.3     1  LIG1        0.0790
     32 H          -4.6537    0.2803    1.5329 H       1  LIG1        0.0660
     33 H          -3.7593    0.6960    3.0434 H       1  LIG1        0.0660
     34 H          -5.5072    0.5857    3.0574 H       1  LIG1        0.0660
     35 H          -2.1863   -0.2686    2.0878 H       1  LIG1        0.0658
     36 H           1.0647   -1.8599    2.2140 H       1  LIG1        0.0317
     37 H           0.2230   -0.3354    2.0453 H       1  LIG1        0.0317
     38 H           3.7002   -0.5007   -0.0782 H       1  LIG1        0.0561
     39 H           2.7891   -0.5547    1.4369 H       1  LIG1        0.0561
     40 H           3.9886   -2.4428    1.0936 H       1  LIG1        0.2094
     41 H           2.8146   -0.3244   -2.6420 H       1  LIG1        0.0622
     42 H           3.5160    0.8796   -4.6104 H       1  LIG1        0.0655
     43 H           3.7522    4.8318   -6.2850 H       1  LIG1        0.0660
     44 H           4.0520    4.8965   -4.5410 H       1  LIG1        0.0660
     45 H           2.4165    5.2396   -5.2396 H       1  LIG1        0.0660
     46 H           1.0743    6.5246   -2.4872 H       1  LIG1        0.0660
     47 H           2.1192    5.4682   -1.5233 H       1  LIG1        0.0660
     48 H           0.3336    5.2036   -1.5909 H       1  LIG1        0.0660
     49 H           0.6948    3.1399   -1.2372 H       1  LIG1        0.0659
     50 H          -0.8257   -1.0740   -1.5953 H       1  LIG1        0.0563
     51 H          -1.7422   -0.7456   -0.1340 H       1  LIG1        0.0563
     52 H          -0.1324   -4.0058    2.4492 H       1  LIG1        0.0621
     53 H          -2.1797   -5.0912    3.1845 H       1  LIG1        0.0655
     54 H          -3.9897   -5.8023    3.9757 H       1  LIG1        0.0660
     55 H          -5.5126   -5.2533    4.6565 H       1  LIG1        0.0660
     56 H          -4.0039   -4.6158    5.3344 H       1  LIG1        0.0660
@<TRIPOS>BOND
     1     1     2    1
     2     2     3    1
     3     3     4   ar
     4     4     5   ar
     5     5     6    1
     6     7     9    1
     7    11    12    1
     8     9    13    1
     9    15    16   ar
    10    16    17   ar
    11    17    18   ar
    12    18    19    1
    13    19    20    1
    14    18    21   ar
    15    21    22    1
    16    22    23    1
    17    21    24   ar
    18    15    24   ar
    19    13    25    1
    20    25    26    1
    21     7    26    1
    22     5    27   ar
    23    27    28   ar
    24    28    29   ar
    25     3    29   ar
    26    29    30    1
    27    30    31    1
    28     9    11    1
    29     9    10    1
    30     7     8    1
    31     7     6    1
    32    13    15    1
    33    13    14    1
    34     1    32    1
    35     1    33    1
    36     1    34    1
    37     4    35    1
    38     6    36    1
    39     6    37    1
    40    11    38    1
    41    11    39    1
    42    12    40    1
    43    16    41    1
    44    17    42    1
    45    20    43    1
    46    20    44    1
    47    20    45    1
    48    23    46    1
    49    23    47    1
    50    23    48    1
    51    24    49    1
    52    26    50    1
    53    26    51    1
    54    27    52    1
    55    28    53    1
    56    31    54    1
    57    31    55    1
    58    31    56    1
