@<TRIPOS>MOLECULE
NuBBE_1248
 35 36 0 0 0
SMALL
GASTEIGER

@<TRIPOS>ATOM
      1 O          -3.8981    1.4164    0.3672 O.2     1  LIG1       -0.2871
      2 C          -2.6762    1.3210    0.4475 C.ar    1  LIG1        0.1898
      3 C          -2.0286   -0.0129    0.4406 C.ar    1  LIG1        0.0049
      4 C          -0.6877   -0.1035    0.4868 C.ar    1  LIG1        0.0201
      5 N           0.1190    1.0139    0.5567 N.ar    1  LIG1       -0.3577
      6 C          -0.4118    2.3072    0.6521 C.ar    1  LIG1        0.0505
      7 C           0.4230    3.4202    0.7872 C.ar    1  LIG1       -0.0342
      8 C          -0.1201    4.7080    0.8535 C.ar    1  LIG1       -0.0182
      9 C          -1.4998    4.8813    0.7663 C.ar    1  LIG1        0.1177
     10 C          -2.3488    3.7921    0.6218 C.ar    1  LIG1       -0.0074
     11 C          -1.8002    2.5084    0.5699 C.ar    1  LIG1        0.0484
     12 O          -2.0623    6.1218    0.8221 O.3     1  LIG1       -0.5067
     13 H           1.1108    0.8776    0.7158 H       1  LIG1        0.1656
     14 C          -0.0095   -1.4593    0.5123 C.3     1  LIG1       -0.0098
     15 C           0.8683   -1.7216   -0.7247 C.3     1  LIG1       -0.0192
     16 C           1.5532   -3.1054   -0.7178 C.3     1  LIG1        0.0609
     17 O           2.3805   -3.1870    0.4452 O.3     1  LIG1       -0.3891
     18 C           0.5406   -4.2525   -0.6758 C.3     1  LIG1       -0.0363
     19 C           2.4550   -3.2608   -1.9477 C.3     1  LIG1       -0.0363
     20 H          -2.6901   -0.8687    0.4091 H       1  LIG1        0.0673
     21 H           1.5005    3.2945    0.8479 H       1  LIG1        0.0639
     22 H           0.5455    5.5579    0.9704 H       1  LIG1        0.0655
     23 H          -3.4234    3.9384    0.5548 H       1  LIG1        0.0662
     24 H          -1.3612    6.7834    0.9387 H       1  LIG1        0.2921
     25 H          -0.7764   -2.2384    0.5868 H       1  LIG1        0.0328
     26 H           0.5935   -1.5317    1.4258 H       1  LIG1        0.0328
     27 H           1.6468   -0.9476   -0.7660 H       1  LIG1        0.0296
     28 H           0.2630   -1.6135   -1.6339 H       1  LIG1        0.0296
     29 H           2.8385   -4.0458    0.4281 H       1  LIG1        0.2101
     30 H          -0.0213   -4.2599    0.2635 H       1  LIG1        0.0257
     31 H           1.0480   -5.2228   -0.7221 H       1  LIG1        0.0257
     32 H          -0.1653   -4.1921   -1.5104 H       1  LIG1        0.0257
     33 H           3.2508   -2.5077   -1.9508 H       1  LIG1        0.0257
     34 H           1.8865   -3.1751   -2.8794 H       1  LIG1        0.0257
     35 H           2.9571   -4.2359   -1.9416 H       1  LIG1        0.0257
@<TRIPOS>BOND
     1     1     2    2
     2     2     3   ar
     3     3     4   ar
     4     4     5   ar
     5     5     6   ar
     6     6     7   ar
     7     7     8   ar
     8     8     9   ar
     9     9    10   ar
    10    10    11   ar
    11     6    11   ar
    12     2    11   ar
    13     9    12    1
    14     5    13    1
    15     4    14    1
    16    14    15    1
    17    15    16    1
    18    16    17    1
    19    16    18    1
    20    16    19    1
    21     3    20    1
    22     7    21    1
    23     8    22    1
    24    10    23    1
    25    12    24    1
    26    14    25    1
    27    14    26    1
    28    15    27    1
    29    15    28    1
    30    17    29    1
    31    18    30    1
    32    18    31    1
    33    18    32    1
    34    19    33    1
    35    19    34    1
    36    19    35    1
