REMARK  Name = NuBBE_1968
REMARK  8 active torsions:
REMARK  status: ('A' for Active; 'I' for Inactive)
REMARK    1  A    between atoms: C_1  and  C_10
REMARK    2  A    between atoms: C_2  and  C_3
REMARK    3  A    between atoms: C_6  and  O_9
REMARK    4  A    between atoms: C_16  and  C_32
REMARK    5  A    between atoms: C_18  and  C_24
REMARK    6  A    between atoms: C_26  and  O_27
REMARK    7  A    between atoms: C_29  and  O_31
REMARK    8  A    between atoms: C_35  and  O_38
REMARK                            x       y       z     vdW  Elec       q    Type
REMARK                         _______ _______ _______ _____ _____    ______ ____
ROOT
ATOM      1  C   LIG A   1      -0.126   1.601  -0.980  0.00  0.00    -0.033 C 
ATOM      2  C   LIG A   1       0.485   2.739  -0.573  0.00  0.00    +0.051 C 
ATOM      3  C   LIG A   1       1.975   2.770  -0.426  0.00  0.00    +0.167 C 
ATOM      4  O   LIG A   1       2.550   3.809  -0.121  0.00  0.00    -0.292 OA
ATOM      5  C   LIG A   1       2.693   1.454  -0.651  0.00  0.00    +0.134 C 
ATOM      6  C   LIG A   1       2.344   0.374   0.426  0.00  0.00    +0.045 C 
ATOM      7  C   LIG A   1       1.165  -0.476  -0.196  0.00  0.00    +0.042 C 
ATOM      8  C   LIG A   1       0.672   0.358  -1.400  0.00  0.00    +0.094 C 
ATOM      9  C   LIG A   1       2.007   0.885  -1.851  0.00  0.00    +0.152 C 
ATOM     10  O   LIG A   1       2.400   0.947  -3.005  0.00  0.00    -0.296 OA
ENDROOT
BRANCH   7  11
ATOM     11  C   LIG A   1       1.620  -1.897  -0.555  0.00  0.00    -0.036 A 
ATOM     12  C   LIG A   1       2.100  -2.257  -1.828  0.00  0.00    +0.049 A 
ATOM     13  C   LIG A   1       2.500  -3.568  -2.097  0.00  0.00    +0.121 A 
ATOM     14  C   LIG A   1       2.430  -4.551  -1.123  0.00  0.00    +0.090 A 
ATOM     15  C   LIG A   1       1.961  -4.206   0.138  0.00  0.00    +0.121 A 
ATOM     16  C   LIG A   1       1.566  -2.900   0.429  0.00  0.00    +0.049 A 
BRANCH  13  17
ATOM     17  O   LIG A   1       2.967  -3.918  -3.328  0.00  0.00    -0.507 OA
ATOM     18  H   LIG A   1       2.998  -3.127  -3.894  0.00  0.00    +0.292 HD
ENDBRANCH  13  17
BRANCH  15  19
ATOM     19  O   LIG A   1       1.867  -5.137   1.131  0.00  0.00    -0.507 OA
ATOM     20  H   LIG A   1       2.168  -5.993   0.781  0.00  0.00    +0.292 HD
ENDBRANCH  15  19
ENDBRANCH   7  11
BRANCH   6  21
ATOM     21  C   LIG A   1       2.151   0.966   1.823  0.00  0.00    -0.042 A 
ATOM     22  C   LIG A   1       3.232   1.652   2.413  0.00  0.00    +0.007 A 
ATOM     23  C   LIG A   1       3.111   2.265   3.666  0.00  0.00    +0.045 A 
ATOM     24  C   LIG A   1       1.908   2.186   4.351  0.00  0.00    +0.117 A 
ATOM     25  C   LIG A   1       0.832   1.507   3.803  0.00  0.00    +0.045 A 
ATOM     26  C   LIG A   1       0.950   0.903   2.546  0.00  0.00    +0.007 A 
BRANCH  24  27
ATOM     27  O   LIG A   1       1.739   2.767   5.572  0.00  0.00    -0.507 OA
ATOM     28  H   LIG A   1       2.561   3.222   5.815  0.00  0.00    +0.292 HD
ENDBRANCH  24  27
ENDBRANCH   6  21
BRANCH   1  29
ATOM     29  C   LIG A   1      -1.582   1.560  -0.995  0.00  0.00    +0.005 C 
ATOM     30  C   LIG A   1      -2.345   0.480  -1.231  0.00  0.00    +0.008 C 
BRANCH  30  31
ATOM     31  C   LIG A   1      -3.822   0.445  -1.199  0.00  0.00    -0.025 A 
ATOM     32  C   LIG A   1      -4.465  -0.759  -1.535  0.00  0.00    +0.011 A 
ATOM     33  C   LIG A   1      -5.859  -0.867  -1.502  0.00  0.00    +0.046 A 
ATOM     34  C   LIG A   1      -6.620   0.233  -1.130  0.00  0.00    +0.117 A 
ATOM     35  C   LIG A   1      -6.011   1.433  -0.794  0.00  0.00    +0.046 A 
ATOM     36  C   LIG A   1      -4.618   1.538  -0.827  0.00  0.00    +0.011 A 
BRANCH  34  37
ATOM     37  O   LIG A   1      -7.980   0.175  -1.079  0.00  0.00    -0.507 OA
ATOM     38  H   LIG A   1      -8.263  -0.719  -1.330  0.00  0.00    +0.292 HD
ENDBRANCH  34  37
ENDBRANCH  30  31
ENDBRANCH   1  29
TORSDOF 8
