REMARK  Name = NuBBE_1340
REMARK  5 active torsions:
REMARK  status: ('A' for Active; 'I' for Inactive)
REMARK    1  A    between atoms: C_1  and  C_2
REMARK    2  A    between atoms: C_6  and  C_7
REMARK    3  A    between atoms: C_10  and  C_11
REMARK    4  A    between atoms: C_11  and  C_12
REMARK    5  A    between atoms: C_11  and  C_13
REMARK                            x       y       z     vdW  Elec       q    Type
REMARK                         _______ _______ _______ _____ _____    ______ ____
ROOT
ATOM      1  C   LIG A   1      -2.752   1.242  -1.153  0.00  0.00    +0.013 C 
ATOM      2  C   LIG A   1      -1.435   0.884  -1.853  0.00  0.00    +0.020 C 
ATOM      3  C   LIG A   1      -0.878  -0.409  -1.290  0.00  0.00    -0.037 A 
ATOM      4  C   LIG A   1      -1.311  -1.634  -1.824  0.00  0.00    +0.005 A 
ATOM      5  C   LIG A   1      -0.831  -2.838  -1.314  0.00  0.00    +0.003 A 
ATOM      6  C   LIG A   1       0.095  -2.837  -0.271  0.00  0.00    -0.050 A 
ATOM      7  C   LIG A   1       0.599  -4.129   0.301  0.00  0.00    +0.044 C 
ATOM      8  C   LIG A   1       0.510  -1.611   0.276  0.00  0.00    +0.012 A 
ATOM      9  C   LIG A   1       0.037  -0.383  -0.215  0.00  0.00    -0.018 A 
ATOM     10  C   LIG A   1       0.474   0.928   0.354  0.00  0.00    -0.041 C 
ATOM     11  C   LIG A   1       0.278   2.034  -0.394  0.00  0.00    -0.022 C 
ATOM     12  C   LIG A   1      -0.402   2.014  -1.731  0.00  0.00    +0.035 C 
ENDROOT
BRANCH  10  13
ATOM     13  C   LIG A   1       1.130   0.982   1.731  0.00  0.00    +0.013 C 
ATOM     14  C   LIG A   1       2.657   0.947   1.612  0.00  0.00    +0.012 C 
ATOM     15  C   LIG A   1       0.701   2.193   2.573  0.00  0.00    +0.012 C 
ENDBRANCH  10  13
TORSDOF 1
