REMARK  Name = NuBBE_37
REMARK  17 active torsions:
REMARK  status: ('A' for Active; 'I' for Inactive)
REMARK    1  A    between atoms: C_1  and  O_2
REMARK    2  A    between atoms: O_2  and  C_3
REMARK    3  A    between atoms: C_5  and  O_6
REMARK    4  A    between atoms: C_10  and  C_11
REMARK    5  A    between atoms: C_14  and  O_15
REMARK    6  A    between atoms: O_15  and  C_16
REMARK    7  A    between atoms: C_21  and  C_22
REMARK    8  A    between atoms: C_24  and  O_26
REMARK    9  A    between atoms: O_26  and  C_27
REMARK   10  A    between atoms: C_29  and  O_31
REMARK   11  A    between atoms: C_33  and  C_35
REMARK   12  A    between atoms: C_36  and  O_38
REMARK   13  A    between atoms: C_39  and  O_41
REMARK   14  A    between atoms: C_43  and  C_45
REMARK   15  A    between atoms: C_45  and  O_46
REMARK   16  A    between atoms: C_47  and  O_49
REMARK   17  A    between atoms: C_50  and  O_52
REMARK                            x       y       z     vdW  Elec       q    Type
REMARK                         _______ _______ _______ _____ _____    ______ ____
ROOT
ATOM      1  C   LIG A   1      -0.440  -0.281  -0.370  0.00  0.00    +0.187 C 
ATOM      2  C   LIG A   1      -1.521   0.842   0.088  0.00  0.00    +0.186 C 
ATOM      3  O   LIG A   1       0.891   0.039   0.114  0.00  0.00    -0.361 OA
ATOM      4  C   LIG A   1       0.950   1.257   0.890  0.00  0.00    +0.175 C 
ATOM      5  C   LIG A   1       0.000   1.026   2.072  0.00  0.00    +0.176 C 
ATOM      6  C   LIG A   1      -1.381   1.301   1.543  0.00  0.00    +0.177 C 
ENDROOT
BRANCH   1  16
ATOM      7  C   LIG A   1      -2.063  -2.300  -0.623  0.00  0.00    +0.133 A 
ATOM      8  C   LIG A   1      -2.385  -3.679  -0.612  0.00  0.00    +0.092 A 
ATOM      9  C   LIG A   1      -1.405  -4.619  -0.427  0.00  0.00    +0.135 A 
ATOM     10  C   LIG A   1      -0.087  -4.233  -0.224  0.00  0.00    +0.106 A 
ATOM     11  C   LIG A   1       0.978  -5.222  -0.143  0.00  0.00    +0.197 A 
ATOM     12  C   LIG A   1       2.282  -4.792   0.347  0.00  0.00    +0.098 A 
ATOM     13  C   LIG A   1       2.489  -3.473   0.500  0.00  0.00    +0.139 A 
ATOM     14  O   LIG A   1       1.548  -2.490   0.221  0.00  0.00    -0.454 OA
ATOM     15  C   LIG A   1       0.239  -2.838  -0.106  0.00  0.00    +0.152 A 
ATOM     16  C   LIG A   1      -0.763  -1.816  -0.313  0.00  0.00    +0.068 A 
ATOM     17  O   LIG A   1       0.858  -6.439  -0.487  0.00  0.00    -0.287 OA
BRANCH  13  18
ATOM     18  C   LIG A   1       3.795  -3.076   1.048  0.00  0.00    +0.018 A 
ATOM     19  C   LIG A   1       3.831  -2.059   1.989  0.00  0.00    +0.015 A 
ATOM     20  C   LIG A   1       5.018  -1.477   2.441  0.00  0.00    +0.046 A 
ATOM     21  C   LIG A   1       6.223  -2.088   2.159  0.00  0.00    +0.120 A 
ATOM     22  C   LIG A   1       6.213  -3.221   1.343  0.00  0.00    +0.046 A 
ATOM     23  C   LIG A   1       5.018  -3.690   0.768  0.00  0.00    +0.015 A 
BRANCH  21  24
ATOM     24  O   LIG A   1       7.433  -1.688   2.652  0.00  0.00    -0.495 OA
ATOM     25  C   LIG A   1       7.381  -0.954   3.877  0.00  0.00    +0.277 C 
ENDBRANCH  21  24
ENDBRANCH  13  18
BRANCH   7  27
ATOM     26  C   LIG A   1      -3.118  -0.659  -1.964  0.00  0.00    +0.277 C 
ATOM     27  O   LIG A   1      -3.174  -1.538  -0.850  0.00  0.00    -0.494 OA
ENDBRANCH   7  27
BRANCH   9  28
ATOM     28  O   LIG A   1      -1.745  -5.957  -0.411  0.00  0.00    -0.506 OA
ATOM     29  H   LIG A   1      -2.674  -6.091  -0.654  0.00  0.00    +0.292 HD
ENDBRANCH   9  28
ENDBRANCH   1  16
BRANCH   5  30
ATOM     30  O   LIG A   1       0.230   1.893   3.180  0.00  0.00    -0.387 OA
ATOM     31  H   LIG A   1       0.050   1.361   3.977  0.00  0.00    +0.210 HD
ENDBRANCH   5  30
BRANCH   6  32
ATOM     32  O   LIG A   1      -2.367   0.684   2.376  0.00  0.00    -0.387 OA
ATOM     33  H   LIG A   1      -2.618   1.352   3.040  0.00  0.00    +0.210 HD
ENDBRANCH   6  32
BRANCH   2  34
ATOM     34  O   LIG A   1      -1.341   1.978  -0.842  0.00  0.00    -0.340 OA
BRANCH  34  35
ATOM     35  C   LIG A   1      -2.277   3.059  -0.709  0.00  0.00    +0.282 C 
ATOM     36  C   LIG A   1      -1.929   4.226  -1.658  0.00  0.00    +0.201 C 
ATOM     37  O   LIG A   1      -3.607   2.570  -0.813  0.00  0.00    -0.343 OA
ATOM     38  C   LIG A   1      -4.304   2.777  -2.035  0.00  0.00    +0.149 C 
ATOM     39  C   LIG A   1      -5.367   3.848  -1.823  0.00  0.00    +0.040 C 
ATOM     40  C   LIG A   1      -3.438   2.974  -3.295  0.00  0.00    +0.174 C 
ATOM     41  C   LIG A   1      -2.224   3.889  -3.115  0.00  0.00    +0.179 C 
BRANCH  36  42
ATOM     42  O   LIG A   1      -2.647   5.418  -1.287  0.00  0.00    -0.384 OA
ATOM     43  H   LIG A   1      -2.682   5.955  -2.107  0.00  0.00    +0.210 HD
ENDBRANCH  36  42
BRANCH  40  44
ATOM     44  O   LIG A   1      -2.917   1.704  -3.732  0.00  0.00    -0.387 OA
ATOM     45  H   LIG A   1      -3.666   1.090  -3.811  0.00  0.00    +0.210 HD
ENDBRANCH  40  44
BRANCH  41  46
ATOM     46  O   LIG A   1      -2.411   5.123  -3.839  0.00  0.00    -0.386 OA
ATOM     47  H   LIG A   1      -2.289   4.910  -4.784  0.00  0.00    +0.210 HD
ENDBRANCH  41  46
ENDBRANCH  34  35
ENDBRANCH   2  34
BRANCH   4  48
ATOM     48  C   LIG A   1       2.377   1.475   1.341  0.00  0.00    +0.190 C 
BRANCH  48  49
ATOM     49  O   LIG A   1       2.661   0.368   2.154  0.00  0.00    -0.392 OA
ATOM     50  H   LIG A   1       2.305  -0.346   1.578  0.00  0.00    +0.209 HD
ENDBRANCH  48  49
ENDBRANCH   4  48
TORSDOF 14
