REMARK  Name = NuBBE_1865
REMARK  9 active torsions:
REMARK  status: ('A' for Active; 'I' for Inactive)
REMARK    1  A    between atoms: O_1  and  C_2
REMARK    2  A    between atoms: O_1  and  C_3
REMARK    3  A    between atoms: C_4  and  C_17
REMARK    4  A    between atoms: C_10  and  O_11
REMARK    5  A    between atoms: C_13  and  O_15
REMARK    6  A    between atoms: O_15  and  C_16
REMARK    7  A    between atoms: C_19  and  O_20
REMARK    8  A    between atoms: C_21  and  O_24
REMARK    9  A    between atoms: O_24  and  C_25
REMARK                            x       y       z     vdW  Elec       q    Type
REMARK                         _______ _______ _______ _____ _____    ______ ____
ROOT
ATOM      1  C   LIG A   1      -1.203   1.177  -0.139  0.00  0.00    +0.211 A 
ATOM      2  C   LIG A   1      -0.499   0.028  -0.261  0.00  0.00    +0.181 A 
ATOM      3  O   LIG A   1       0.881  -0.073  -0.248  0.00  0.00    -0.451 OA
ATOM      4  C   LIG A   1       1.622   1.071  -0.112  0.00  0.00    +0.146 A 
ATOM      5  C   LIG A   1       1.046   2.328   0.019  0.00  0.00    +0.109 A 
ATOM      6  C   LIG A   1      -0.415   2.432   0.026  0.00  0.00    +0.238 A 
ATOM      7  O   LIG A   1      -0.924   3.549   0.179  0.00  0.00    -0.283 OA
ATOM      8  C   LIG A   1       1.867   3.456   0.140  0.00  0.00    +0.135 A 
ATOM      9  C   LIG A   1       3.254   3.327   0.140  0.00  0.00    +0.092 A 
ATOM     10  C   LIG A   1       3.832   2.063   0.030  0.00  0.00    +0.127 A 
ATOM     11  C   LIG A   1       3.012   0.937  -0.110  0.00  0.00    +0.092 A 
ENDROOT
BRANCH   2  12
ATOM     12  C   LIG A   1      -1.165  -1.283  -0.373  0.00  0.00    +0.025 A 
ATOM     13  C   LIG A   1      -1.446  -2.013   0.787  0.00  0.00    +0.060 A 
ATOM     14  C   LIG A   1      -2.105  -3.244   0.713  0.00  0.00    +0.159 A 
ATOM     15  C   LIG A   1      -2.493  -3.776  -0.522  0.00  0.00    +0.161 A 
ATOM     16  C   LIG A   1      -2.200  -3.050  -1.684  0.00  0.00    +0.050 A 
ATOM     17  C   LIG A   1      -1.533  -1.818  -1.614  0.00  0.00    +0.015 A 
BRANCH  14  18
ATOM     18  O   LIG A   1      -2.379  -3.893   1.884  0.00  0.00    -0.503 OA
ATOM     19  H   LIG A   1      -1.865  -3.493   2.602  0.00  0.00    +0.292 HD
ENDBRANCH  14  18
BRANCH  15  20
ATOM     20  O   LIG A   1      -3.180  -4.945  -0.730  0.00  0.00    -0.491 OA
ATOM     21  C   LIG A   1      -2.985  -5.965   0.245  0.00  0.00    +0.277 C 
ENDBRANCH  15  20
ENDBRANCH   2  12
BRANCH   1  22
ATOM     22  O   LIG A   1      -2.590   1.155  -0.109  0.00  0.00    -0.488 OA
ATOM     23  C   LIG A   1      -3.254   2.311  -0.614  0.00  0.00    +0.277 C 
ENDBRANCH   1  22
BRANCH   8  24
ATOM     24  O   LIG A   1       1.375   4.730   0.258  0.00  0.00    -0.506 OA
ATOM     25  H   LIG A   1       0.393   4.679   0.269  0.00  0.00    +0.292 HD
ENDBRANCH   8  24
BRANCH  10  26
ATOM     26  O   LIG A   1       5.177   1.818  -0.006  0.00  0.00    -0.495 OA
ATOM     27  C   LIG A   1       5.989   2.737   0.720  0.00  0.00    +0.277 C 
ENDBRANCH  10  26
TORSDOF 6
