@<TRIPOS>MOLECULE
NuBBE_226
 76 78 0 0 0
SMALL
GASTEIGER

@<TRIPOS>ATOM
      1 C           1.1352    1.3202    2.7738 C.3     1  LIG1       -0.0585
      2 C          -0.1650    0.8833    2.0846 C.3     1  LIG1       -0.0007
      3 H          -0.8858    1.4980    2.6268 H       1  LIG1        0.0339
      4 C          -0.4533   -0.5900    2.4120 C.3     1  LIG1        0.1071
      5 H          -0.2052   -0.7763    3.4660 H       1  LIG1        0.0737
      6 O          -1.8373   -1.0089    2.3171 O.3     1  LIG1       -0.4610
      7 C          -2.6991   -0.4277    3.2080 C.2     1  LIG1        0.3073
      8 C          -3.6868   -1.4158    3.7646 C.3     1  LIG1        0.0447
      9 C          -4.9896   -1.3700    2.9850 C.3     1  LIG1       -0.0458
     10 C          -6.0579   -2.2607    3.5952 C.3     1  LIG1       -0.0648
     11 O          -2.6753    0.7366    3.5766 O.2     1  LIG1       -0.2508
     12 C           0.4238   -1.5608    1.5995 C.3     1  LIG1        0.0002
     13 C           0.8854   -1.1242    0.1680 C.3     1  LIG1        0.0668
     14 C           0.8825   -2.3644   -0.7104 C.2     1  LIG1        0.0090
     15 C           2.1206   -3.1795   -0.4392 C.3     1  LIG1        0.2314
     16 H           1.9352   -3.9755    0.2938 H       1  LIG1        0.1111
     17 O           2.6981   -3.7032   -1.6417 O.3     1  LIG1       -0.4311
     18 C           2.1640   -4.8613   -2.1163 C.2     1  LIG1        0.3063
     19 C           2.7885   -5.2418   -3.4169 C.3     1  LIG1        0.0333
     20 O           1.2527   -5.4957   -1.5900 O.2     1  LIG1       -0.2511
     21 O           3.0320   -2.2602    0.1761 O.3     1  LIG1       -0.2972
     22 C           2.4508   -0.9409    0.1603 C.3     1  LIG1        0.2182
     23 H           2.7799   -0.4401    1.0730 H       1  LIG1        0.1067
     24 O           2.9144   -0.1963   -0.9750 O.3     1  LIG1       -0.4342
     25 C           4.1007    0.4395   -0.8087 C.2     1  LIG1        0.3061
     26 C           4.3787    1.3163   -1.9983 C.3     1  LIG1        0.0333
     27 O           4.8266    0.3839    0.1747 O.2     1  LIG1       -0.2511
     28 C          -0.0223   -2.6385   -1.6441 C.2     1  LIG1       -0.0501
     29 C          -1.1515   -1.7601   -1.9871 C.3     1  LIG1        0.0741
     30 H          -2.0761   -2.1882   -1.5727 H       1  LIG1        0.0638
     31 O          -1.2825   -1.7540   -3.4052 O.3     1  LIG1       -0.3877
     32 C          -1.0153   -0.3154   -1.5105 C.3     1  LIG1       -0.0189
     33 C           0.0756    0.0771   -0.4443 C.3     1  LIG1       -0.0170
     34 H           0.8069    0.5811   -1.0879 H       1  LIG1        0.0318
     35 C          -0.3912    1.2425    0.5694 C.3     1  LIG1       -0.0188
     36 C          -1.9270    1.5316    0.4548 C.3     1  LIG1       -0.0586
     37 C           0.3206    2.6176    0.2235 C.3     1  LIG1       -0.0282
     38 C          -0.0208    3.1842   -1.1388 C.2     1  LIG1       -0.0806
     39 C           0.3633    4.3405   -1.7148 C.2     1  LIG1       -0.0549
     40 C           1.2325    5.3044   -1.0636 C.2     1  LIG1       -0.0662
     41 C           1.9924    6.2058   -1.7036 C.2     1  LIG1       -0.0985
     42 C          -0.1390    4.6597   -3.1061 C.3     1  LIG1       -0.0400
     43 H           2.0361    0.9348    2.3078 H       1  LIG1        0.0234
     44 H           1.1313    0.9808    3.8188 H       1  LIG1        0.0234
     45 H           1.2072    2.4112    2.8199 H       1  LIG1        0.0234
     46 H          -3.8457   -1.1512    4.8163 H       1  LIG1        0.0377
     47 H          -3.2393   -2.4149    3.7649 H       1  LIG1        0.0377
     48 H          -4.8036   -1.6856    1.9532 H       1  LIG1        0.0268
     49 H          -5.3644   -0.3397    2.9355 H       1  LIG1        0.0268
     50 H          -5.6914   -3.2764    3.7440 H       1  LIG1        0.0230
     51 H          -6.9257   -2.3057    2.9288 H       1  LIG1        0.0230
     52 H          -6.3979   -1.8687    4.5619 H       1  LIG1        0.0230
     53 H          -0.0750   -2.5391    1.5660 H       1  LIG1        0.0311
     54 H           1.3251   -1.7266    2.2087 H       1  LIG1        0.0311
     55 H           3.8524   -5.4352   -3.2722 H       1  LIG1        0.0342
     56 H           2.6346   -4.4478   -4.1529 H       1  LIG1        0.0342
     57 H           2.3153   -6.1535   -3.7947 H       1  LIG1        0.0342
     58 H           3.5425    2.0047   -2.1527 H       1  LIG1        0.0342
     59 H           4.5392    0.6968   -2.8832 H       1  LIG1        0.0342
     60 H           5.2801    1.9100   -1.8132 H       1  LIG1        0.0342
     61 H           0.0180   -3.5573   -2.2159 H       1  LIG1        0.0599
     62 H          -1.4263   -2.6731   -3.6886 H       1  LIG1        0.2102
     63 H          -2.0225   -0.0716   -1.1887 H       1  LIG1        0.0296
     64 H          -0.8535    0.3265   -2.3874 H       1  LIG1        0.0296
     65 H          -2.5241    0.6408    0.6615 H       1  LIG1        0.0235
     66 H          -2.2277    1.8932   -0.5323 H       1  LIG1        0.0235
     67 H          -2.2399    2.3051    1.1627 H       1  LIG1        0.0235
     68 H           0.0231    3.3551    0.9818 H       1  LIG1        0.0313
     69 H           1.4083    2.4933    0.2905 H       1  LIG1        0.0313
     70 H          -0.6622    2.5537   -1.7483 H       1  LIG1        0.0575
     71 H           1.2655    5.2880    0.0256 H       1  LIG1        0.0614
     72 H           2.0370    6.2750   -2.7837 H       1  LIG1        0.0535
     73 H           2.6291    6.8854   -1.1457 H       1  LIG1        0.0535
     74 H          -0.8029    3.8784   -3.4949 H       1  LIG1        0.0277
     75 H           0.6903    4.7469   -3.8132 H       1  LIG1        0.0277
     76 H          -0.7128    5.5939   -3.1081 H       1  LIG1        0.0277
@<TRIPOS>BOND
     1     2     4    1
     2     6     7    1
     3     7     8    1
     4     8     9    1
     5     9    10    1
     6     7    11    2
     7     4    12    1
     8    12    13    1
     9    13    14    1
    10    14    15    1
    11    17    18    1
    12    18    19    1
    13    18    20    2
    14    15    21    1
    15    21    22    1
    16    13    22    1
    17    24    25    1
    18    25    26    1
    19    25    27    2
    20    14    28    2
    21    28    29    1
    22    29    32    1
    23    32    33    1
    24    13    33    1
    25    33    35    1
    26     2    35    1
    27    37    38    1
    28    38    39    2
    29    39    40    1
    30    40    41    2
    31    39    42    1
    32    15    16    1
    33    15    17    1
    34    22    23    1
    35    22    24    1
    36    33    34    1
    37    35    36    1
    38    35    37    1
    39     4     6    1
    40     4     5    1
    41     2     3    1
    42     2     1    1
    43    29    31    1
    44    29    30    1
    45     1    43    1
    46     1    44    1
    47     1    45    1
    48     8    46    1
    49     8    47    1
    50     9    48    1
    51     9    49    1
    52    10    50    1
    53    10    51    1
    54    10    52    1
    55    12    53    1
    56    12    54    1
    57    19    55    1
    58    19    56    1
    59    19    57    1
    60    26    58    1
    61    26    59    1
    62    26    60    1
    63    28    61    1
    64    31    62    1
    65    32    63    1
    66    32    64    1
    67    36    65    1
    68    36    66    1
    69    36    67    1
    70    37    68    1
    71    37    69    1
    72    38    70    1
    73    40    71    1
    74    41    72    1
    75    41    73    1
    76    42    74    1
    77    42    75    1
    78    42    76    1
