@<TRIPOS>MOLECULE
NuBBE_1180
 25 26 0 0 0
SMALL
GASTEIGER

@<TRIPOS>ATOM
      1 C          -1.9614   -1.4529   -2.6099 C.3     1  LIG1        0.0790
      2 O          -1.3497   -1.9408   -1.4170 O.3     1  LIG1       -0.4914
      3 C          -0.6347   -1.0414   -0.6617 C.ar    1  LIG1        0.1623
      4 C          -0.8408    0.3511   -0.6054 C.ar    1  LIG1        0.1650
      5 O          -1.8487    0.8902   -1.3574 O.3     1  LIG1       -0.4913
      6 C          -2.0661    2.2915   -1.2677 C.3     1  LIG1        0.0790
      7 C          -0.0293    1.1201    0.2302 C.ar    1  LIG1        0.0267
      8 C           0.9394    0.5093    1.0163 C.ar    1  LIG1        0.1428
      9 O           1.6943    1.3687    1.8565 O.2     1  LIG1       -0.4220
     10 C           2.6506    0.8646    2.7115 C.ar    1  LIG1        0.3372
     11 C           2.8763   -0.5865    2.6678 C.ar    1  LIG1        0.0236
     12 C           2.1868   -1.4090    1.8601 C.ar    1  LIG1       -0.0442
     13 O           3.2904    1.5827    3.4635 O.2     1  LIG1       -0.2452
     14 C           1.1552   -0.8603    0.9926 C.ar    1  LIG1        0.0213
     15 C           0.3612   -1.6382    0.1421 C.ar    1  LIG1       -0.0056
     16 H          -2.0858   -2.3007   -3.2902 H       1  LIG1        0.0660
     17 H          -1.3376   -0.7183   -3.1310 H       1  LIG1        0.0660
     18 H          -2.9607   -1.0530   -2.4029 H       1  LIG1        0.0660
     19 H          -2.9958    2.5153   -1.7964 H       1  LIG1        0.0660
     20 H          -1.2534    2.8406   -1.7555 H       1  LIG1        0.0660
     21 H          -2.1970    2.6128   -0.2295 H       1  LIG1        0.0660
     22 H          -0.1273    2.1963    0.3087 H       1  LIG1        0.0692
     23 H           3.6436   -0.9519    3.3400 H       1  LIG1        0.0689
     24 H           2.3856   -2.4747    1.8499 H       1  LIG1        0.0627
     25 H           0.5049   -2.7155    0.0853 H       1  LIG1        0.0662
@<TRIPOS>BOND
     1     1     2    1
     2     2     3    1
     3     3     4   ar
     4     4     5    1
     5     5     6    1
     6     4     7   ar
     7     7     8   ar
     8     8     9   ar
     9     9    10   ar
    10    10    11   ar
    11    11    12   ar
    12    10    13    2
    13     8    14   ar
    14    12    14   ar
    15    14    15   ar
    16     3    15   ar
    17     1    16    1
    18     1    17    1
    19     1    18    1
    20     6    19    1
    21     6    20    1
    22     6    21    1
    23     7    22    1
    24    11    23    1
    25    12    24    1
    26    15    25    1
