REMARK  Name = NuBBE_235
REMARK  16 active torsions:
REMARK  status: ('A' for Active; 'I' for Inactive)
REMARK    1  A    between atoms: C_1  and  C_2
REMARK    2  A    between atoms: C_4  and  O_6
REMARK    3  A    between atoms: O_6  and  C_7
REMARK    4  A    between atoms: C_7  and  C_8
REMARK    5  A    between atoms: C_8  and  C_9
REMARK    6  A    between atoms: C_9  and  C_10
REMARK    7  A    between atoms: C_17  and  O_19
REMARK    8  A    between atoms: O_19  and  C_20
REMARK    9  A    between atoms: C_20  and  C_21
REMARK   10  A    between atoms: C_25  and  O_27
REMARK   11  A    between atoms: O_27  and  C_28
REMARK   12  A    between atoms: C_32  and  C_33
REMARK   13  A    between atoms: C_32  and  C_34
REMARK   14  A    between atoms: C_34  and  C_35
REMARK   15  A    between atoms: C_36  and  C_37
REMARK   16  A    between atoms: C_36  and  C_39
REMARK                            x       y       z     vdW  Elec       q    Type
REMARK                         _______ _______ _______ _____ _____    ______ ____
ROOT
ATOM      1  C   LIG A   1      -2.206   0.896   2.486  0.00  0.00    +0.012 C 
ATOM      2  C   LIG A   1      -2.030   0.927   0.960  0.00  0.00    +0.033 C 
ATOM      3  C   LIG A   1      -2.574  -0.416   0.473  0.00  0.00    +0.181 C 
ATOM      4  C   LIG A   1      -1.547  -1.542   0.586  0.00  0.00    +0.064 C 
ATOM      5  C   LIG A   1      -0.075  -1.278   0.143  0.00  0.00    +0.083 C 
ATOM      6  C   LIG A   1       0.306  -2.376  -0.823  0.00  0.00    +0.049 C 
ATOM      7  C   LIG A   1       0.492  -3.568  -0.043  0.00  0.00    +0.339 C 
ATOM      8  O   LIG A   1       0.755  -3.220   1.244  0.00  0.00    -0.420 OA
ATOM      9  C   LIG A   1       0.921  -1.809   1.233  0.00  0.00    +0.381 C 
ATOM     10  O   LIG A   1       0.401  -4.745  -0.462  0.00  0.00    -0.245 OA
ATOM     11  C   LIG A   1       0.706  -2.259  -2.076  0.00  0.00    +0.015 C 
ATOM     12  C   LIG A   1       0.856  -0.940  -2.765  0.00  0.00    +0.142 C 
ATOM     13  C   LIG A   1       0.544   0.300  -1.883  0.00  0.00    +0.041 C 
ATOM     14  C   LIG A   1       0.238   0.157  -0.351  0.00  0.00    +0.016 C 
ATOM     15  C   LIG A   1      -0.610   1.349   0.338  0.00  0.00    -0.019 C 
ATOM     16  C   LIG A   1      -0.905   2.513  -0.683  0.00  0.00    +0.012 C 
ENDROOT
BRANCH  12  17
ATOM     17  O   LIG A   1       2.191  -0.900  -3.291  0.00  0.00    -0.376 OA
ATOM     18  C   LIG A   1       2.441   0.200  -4.164  0.00  0.00    +0.194 C 
ENDBRANCH  12  17
BRANCH   3  19
ATOM     19  O   LIG A   1      -3.058  -0.290  -0.860  0.00  0.00    -0.461 OA
BRANCH  19  20
ATOM     20  C   LIG A   1      -4.352   0.102  -1.052  0.00  0.00    +0.307 C 
ATOM     21  O   LIG A   1      -5.147   0.364  -0.168  0.00  0.00    -0.251 OA
BRANCH  20  22
ATOM     22  C   LIG A   1      -4.636   0.287  -2.529  0.00  0.00    +0.120 C 
BRANCH  22  23
ATOM     23  C   LIG A   1      -3.832  -0.630  -3.450  0.00  0.00    +0.008 C 
ATOM     24  C   LIG A   1      -2.345  -0.340  -3.453  0.00  0.00    +0.004 C 
ENDBRANCH  22  23
ENDBRANCH  20  22
ENDBRANCH  19  20
ENDBRANCH   3  19
BRANCH   9  25
ATOM     25  O   LIG A   1       2.281  -1.479   0.884  0.00  0.00    -0.424 OA
BRANCH  25  26
ATOM     26  C   LIG A   1       3.199  -1.810   1.832  0.00  0.00    +0.307 C 
ATOM     27  C   LIG A   1       4.538  -2.030   1.189  0.00  0.00    +0.136 C 
ATOM     28  O   LIG A   1       2.974  -1.983   3.001  0.00  0.00    -0.251 OA
ENDBRANCH  25  26
ENDBRANCH   9  25
BRANCH  15  29
ATOM     29  C   LIG A   1       0.320   2.056   1.404  0.00  0.00    +0.034 C 
BRANCH  29  30
ATOM     30  C   LIG A   1       0.800   1.215   2.554  0.00  0.00    -0.023 C 
ATOM     31  C   LIG A   1       1.893   1.289   3.332  0.00  0.00    -0.055 C 
ATOM     32  C   LIG A   1       2.044   0.312   4.480  0.00  0.00    +0.043 C 
BRANCH  31  33
ATOM     33  C   LIG A   1       2.974   2.230   3.163  0.00  0.00    -0.005 C 
ATOM     34  C   LIG A   1       2.819   3.504   2.787  0.00  0.00    +0.008 C 
ENDBRANCH  31  33
ENDBRANCH  29  30
ENDBRANCH  15  29
TORSDOF 10
