REMARK  Name = NuBBE_2418
REMARK  12 active torsions:
REMARK  status: ('A' for Active; 'I' for Inactive)
REMARK    1  A    between atoms: O_1  and  C_2
REMARK    2  A    between atoms: O_1  and  C_3
REMARK    3  A    between atoms: C_4  and  C_32
REMARK    4  A    between atoms: C_7  and  O_10
REMARK    5  A    between atoms: C_8  and  O_9
REMARK    6  A    between atoms: O_10  and  C_11
REMARK    7  A    between atoms: C_12  and  O_13
REMARK    8  A    between atoms: C_14  and  O_15
REMARK    9  A    between atoms: O_15  and  C_16
REMARK   10  A    between atoms: C_17  and  C_20
REMARK   11  A    between atoms: C_28  and  O_31
REMARK   12  A    between atoms: C_40  and  O_43
REMARK                            x       y       z     vdW  Elec       q    Type
REMARK                         _______ _______ _______ _____ _____    ______ ____
ROOT
ATOM      1  O   LIG A   1       2.126  -0.161  -0.695  0.00  0.00    -0.448 OA
ENDROOT
BRANCH   1   6
ATOM      2  C   LIG A   1      -0.091   2.733  -1.709  0.00  0.00    +0.169 A 
ATOM      3  C   LIG A   1       0.706   3.446  -2.654  0.00  0.00    +0.005 A 
ATOM      4  C   LIG A   1       2.001   2.910  -2.819  0.00  0.00    +0.011 A 
ATOM      5  C   LIG A   1       2.473   1.715  -2.170  0.00  0.00    +0.050 A 
ATOM      6  C   LIG A   1       1.654   1.048  -1.224  0.00  0.00    +0.173 A 
ATOM      7  C   LIG A   1       0.494   1.650  -0.940  0.00  0.00    +0.202 A 
BRANCH   3   8
ATOM      8  C   LIG A   1       0.287   4.700  -3.510  0.00  0.00    +0.065 C 
ATOM      9  C   LIG A   1      -0.845   4.537  -4.543  0.00  0.00    +0.050 C 
ATOM     10  C   LIG A   1      -2.182   4.781  -3.908  0.00  0.00    -0.005 A 
ATOM     11  C   LIG A   1      -2.295   5.642  -2.813  0.00  0.00    +0.127 A 
ATOM     12  O   LIG A   1      -1.253   6.365  -2.308  0.00  0.00    -0.491 OA
ATOM     13  C   LIG A   1       0.048   6.085  -2.840  0.00  0.00    +0.237 C 
ATOM     14  C   LIG A   1      -3.459   5.644  -2.041  0.00  0.00    +0.091 A 
ATOM     15  C   LIG A   1      -4.468   4.733  -2.338  0.00  0.00    +0.120 A 
ATOM     16  C   LIG A   1      -4.413   3.951  -3.483  0.00  0.00    +0.046 A 
ATOM     17  C   LIG A   1      -3.280   3.998  -4.290  0.00  0.00    +0.011 A 
BRANCH  15  18
ATOM     18  O   LIG A   1      -5.466   4.474  -1.443  0.00  0.00    -0.507 OA
ATOM     19  H   LIG A   1      -5.109   4.667  -0.558  0.00  0.00    +0.292 HD
ENDBRANCH  15  18
ENDBRANCH   3   8
BRANCH   2  20
ATOM     20  O   LIG A   1      -1.429   3.043  -1.631  0.00  0.00    -0.491 OA
ATOM     21  C   LIG A   1      -2.144   2.305  -0.646  0.00  0.00    +0.277 C 
ENDBRANCH   2  20
BRANCH   7  22
ATOM     22  O   LIG A   1      -0.168   1.188   0.185  0.00  0.00    -0.501 OA
ATOM     23  H   LIG A   1       0.229   1.623   0.955  0.00  0.00    +0.292 HD
ENDBRANCH   7  22
ENDBRANCH   1   6
BRANCH   1  24
ATOM     24  C   LIG A   1       1.433  -0.911   0.255  0.00  0.00    +0.173 A 
ATOM     25  C   LIG A   1       0.150  -1.491   0.181  0.00  0.00    +0.202 A 
ATOM     26  C   LIG A   1      -0.432  -2.290   1.231  0.00  0.00    +0.169 A 
ATOM     27  C   LIG A   1       0.348  -2.612   2.358  0.00  0.00    +0.005 A 
ATOM     28  C   LIG A   1       1.623  -2.002   2.420  0.00  0.00    +0.011 A 
ATOM     29  C   LIG A   1       2.157  -1.184   1.409  0.00  0.00    +0.050 A 
BRANCH  27  30
ATOM     30  C   LIG A   1      -0.064  -3.625   3.445  0.00  0.00    +0.065 C 
ATOM     31  C   LIG A   1       0.188  -5.089   2.994  0.00  0.00    +0.050 C 
ATOM     32  C   LIG A   1       1.660  -5.361   3.006  0.00  0.00    -0.005 A 
ATOM     33  C   LIG A   1       2.467  -4.686   3.923  0.00  0.00    +0.127 A 
ATOM     34  O   LIG A   1       1.988  -3.840   4.888  0.00  0.00    -0.491 OA
ATOM     35  C   LIG A   1       0.594  -3.521   4.832  0.00  0.00    +0.237 C 
ATOM     36  C   LIG A   1       3.851  -4.738   3.800  0.00  0.00    +0.091 A 
ATOM     37  C   LIG A   1       4.417  -5.495   2.779  0.00  0.00    +0.120 A 
ATOM     38  C   LIG A   1       3.627  -6.257   1.927  0.00  0.00    +0.046 A 
ATOM     39  C   LIG A   1       2.241  -6.196   2.042  0.00  0.00    +0.011 A 
BRANCH  37  40
ATOM     40  O   LIG A   1       5.763  -5.481   2.562  0.00  0.00    -0.507 OA
ATOM     41  H   LIG A   1       6.138  -4.741   3.067  0.00  0.00    +0.292 HD
ENDBRANCH  37  40
ENDBRANCH  27  30
BRANCH  25  42
ATOM     42  O   LIG A   1      -0.637  -1.237  -0.917  0.00  0.00    -0.501 OA
ATOM     43  H   LIG A   1      -1.291  -0.610  -0.557  0.00  0.00    +0.292 HD
ENDBRANCH  25  42
BRANCH  26  44
ATOM     44  O   LIG A   1      -1.784  -2.505   1.095  0.00  0.00    -0.491 OA
ATOM     45  C   LIG A   1      -2.411  -3.736   1.425  0.00  0.00    +0.277 C 
ENDBRANCH  26  44
ENDBRANCH   1  24
TORSDOF 10
