@<TRIPOS>MOLECULE
NuBBE_683
 55 57 0 0 0
SMALL
GASTEIGER

@<TRIPOS>ATOM
      1 O           2.7550    4.3972    0.3664 O.2     1  LIG1       -0.2864
      2 C           2.3311    3.2419    0.3095 C.2     1  LIG1        0.2224
      3 C           2.8625    2.2421   -0.7481 C.3     1  LIG1        0.2000
      4 O           3.1517    2.8751   -1.9865 O.3     1  LIG1       -0.4418
      5 C           4.1395    1.5654   -0.2484 C.3     1  LIG1       -0.0130
      6 C           1.7813    1.2887   -1.0963 C.2     1  LIG1        0.0312
      7 C           1.1532    0.6615    0.0382 C.2     1  LIG1        0.0269
      8 C           0.9205   -0.6582    0.1507 C.2     1  LIG1        0.1006
      9 O           0.2301   -1.2304    1.2097 O.2     1  LIG1       -0.4629
     10 C          -0.4171   -0.3761    2.1024 C.2     1  LIG1        0.1279
     11 C          -1.3942   -1.0245    2.9405 C.2     1  LIG1       -0.0230
     12 C          -1.3948   -0.9530    4.2816 C.2     1  LIG1       -0.0777
     13 C          -2.3903   -1.6326    5.1927 C.3     1  LIG1       -0.0256
     14 H          -2.1390   -1.3298    6.2184 H       1  LIG1        0.0340
     15 C          -3.8220   -1.1534    4.9323 C.3     1  LIG1       -0.0590
     16 C          -2.3021   -3.1679    5.1184 C.3     1  LIG1       -0.0499
     17 C          -0.9329   -3.7069    5.5177 C.3     1  LIG1       -0.0648
     18 C          -0.1929    0.9500    2.1245 C.2     1  LIG1       -0.0100
     19 C           0.7747    1.5043    1.1877 C.2     1  LIG1        0.0108
     20 C           1.2950    2.7471    1.2944 C.2     1  LIG1        0.0956
     21 CL          0.8532    3.8607    2.5458 Cl      1  LIG1       -0.0791
     22 C           1.4000    1.3991   -2.3740 C.2     1  LIG1        0.1097
     23 C           0.2372    0.7868   -3.0774 C.2     1  LIG1        0.1756
     24 C           0.2070    0.7608   -4.6153 C.3     1  LIG1        0.0452
     25 H           0.2814    1.7999   -4.9557 H       1  LIG1        0.0403
     26 C           1.3867   -0.0503   -5.1561 C.3     1  LIG1       -0.0530
     27 C          -1.1429    0.2283   -5.1554 C.3     1  LIG1        0.0620
     28 H          -1.9706    0.8348   -4.7680 H       1  LIG1        0.0597
     29 O          -1.3641   -1.1191   -4.7381 O.3     1  LIG1       -0.3914
     30 C          -1.2091    0.2431   -6.6832 C.3     1  LIG1       -0.0383
     31 O          -0.6907    0.3173   -2.4132 O.2     1  LIG1       -0.2914
     32 C           2.2907    2.4263   -2.9418 C.2     1  LIG1        0.3443
     33 O           2.2559    2.8435   -4.0766 O.2     1  LIG1       -0.2448
     34 H           4.9454    2.2995   -0.1336 H       1  LIG1        0.0276
     35 H           4.4979    0.8184   -0.9671 H       1  LIG1        0.0276
     36 H           3.9995    1.0715    0.7195 H       1  LIG1        0.0276
     37 H           1.2044   -1.4196   -0.5635 H       1  LIG1        0.1036
     38 H          -2.1503   -1.6011    2.4121 H       1  LIG1        0.0651
     39 H          -0.6008   -0.4057    4.7875 H       1  LIG1        0.0576
     40 H          -3.8847   -0.0598    4.9699 H       1  LIG1        0.0235
     41 H          -4.5024   -1.5485    5.6949 H       1  LIG1        0.0235
     42 H          -4.1923   -1.4807    3.9547 H       1  LIG1        0.0235
     43 H          -2.5415   -3.5163    4.1061 H       1  LIG1        0.0268
     44 H          -3.0540   -3.6060    5.7861 H       1  LIG1        0.0268
     45 H          -0.1460   -3.3560    4.8428 H       1  LIG1        0.0230
     46 H          -0.9353   -4.8007    5.4820 H       1  LIG1        0.0230
     47 H          -0.6740   -3.4004    6.5362 H       1  LIG1        0.0230
     48 H          -0.7498    1.5991    2.7913 H       1  LIG1        0.0661
     49 H           2.3419    0.2659   -4.7302 H       1  LIG1        0.0237
     50 H           1.4728    0.0664   -6.2409 H       1  LIG1        0.0237
     51 H           1.2707   -1.1157   -4.9332 H       1  LIG1        0.0237
     52 H          -1.5362   -1.0804   -3.7752 H       1  LIG1        0.2098
     53 H          -2.2114   -0.0371   -7.0251 H       1  LIG1        0.0255
     54 H          -0.5298   -0.4956   -7.1236 H       1  LIG1        0.0255
     55 H          -0.9683    1.2310   -7.0874 H       1  LIG1        0.0255
@<TRIPOS>BOND
     1     2     3    1
     2     3     4    1
     3     3     6    1
     4     6     7    1
     5     7     8    2
     6     8     9    1
     7     9    10    1
     8    11    12    2
     9    12    13    1
    10    13    14    1
    11    13    15    1
    12    13    16    1
    13    16    17    1
    14    10    18    2
    15    18    19    1
    16     7    19    1
    17    19    20    2
    18     2    20    1
    19     6    22    2
    20    23    24    1
    21    24    25    1
    22    24    26    1
    23    27    29    1
    24    27    30    1
    25    23    31    2
    26    22    32    1
    27     4    32    1
    28     1     2    2
    29     3     5    1
    30    10    11    1
    31    20    21    1
    32    22    23    1
    33    32    33    2
    34    27    28    1
    35    27    24    1
    36     5    34    1
    37     5    35    1
    38     5    36    1
    39     8    37    1
    40    11    38    1
    41    12    39    1
    42    15    40    1
    43    15    41    1
    44    15    42    1
    45    16    43    1
    46    16    44    1
    47    17    45    1
    48    17    46    1
    49    17    47    1
    50    18    48    1
    51    26    49    1
    52    26    50    1
    53    26    51    1
    54    29    52    1
    55    30    53    1
    56    30    54    1
    57    30    55    1
