REMARK  Name = NuBBE_2444
REMARK  4 active torsions:
REMARK  status: ('A' for Active; 'I' for Inactive)
REMARK    1  A    between atoms: O_1  and  C_2
REMARK    2  A    between atoms: O_1  and  C_3
REMARK    3  A    between atoms: C_11  and  O_15
REMARK    4  A    between atoms: C_13  and  C_14
REMARK                            x       y       z     vdW  Elec       q    Type
REMARK                         _______ _______ _______ _____ _____    ______ ____
ROOT
ATOM      1  C   LIG A   1      -0.426   1.244  -0.100  0.00  0.00    +0.138 A 
ATOM      2  C   LIG A   1       0.225  -0.081   0.026  0.00  0.00    +0.062 A 
ATOM      3  C   LIG A   1       1.625  -0.093   0.145  0.00  0.00    +0.146 A 
ATOM      4  O   LIG A   1       2.385   1.095   0.150  0.00  0.00    -0.422 OA
ATOM      5  C   LIG A   1       1.787   2.331   0.040  0.00  0.00    +0.341 A 
ATOM      6  O   LIG A   1       2.429   3.375   0.045  0.00  0.00    -0.245 OA
ATOM      7  C   LIG A   1       0.328   2.352  -0.090  0.00  0.00    +0.138 A 
ATOM      8  C   LIG A   1       2.375  -1.266   0.268  0.00  0.00    +0.092 A 
ATOM      9  C   LIG A   1       1.710  -2.477   0.274  0.00  0.00    +0.121 A 
ATOM     10  C   LIG A   1       0.327  -2.519   0.161  0.00  0.00    +0.049 A 
ATOM     11  C   LIG A   1      -0.433  -1.335   0.037  0.00  0.00    -0.033 A 
ATOM     12  C   LIG A   1      -1.927  -1.495  -0.078  0.00  0.00    +0.045 C 
ENDROOT
BRANCH   1  13
ATOM     13  O   LIG A   1      -1.797   1.227  -0.222  0.00  0.00    -0.494 OA
ATOM     14  C   LIG A   1      -2.492   2.461  -0.356  0.00  0.00    +0.277 C 
ENDBRANCH   1  13
BRANCH   9  15
ATOM     15  O   LIG A   1       2.377  -3.659   0.390  0.00  0.00    -0.507 OA
ATOM     16  H   LIG A   1       3.330  -3.477   0.458  0.00  0.00    +0.292 HD
ENDBRANCH   9  15
TORSDOF 2
