@<TRIPOS>MOLECULE
NuBBE_2022
 32 34 0 0 0
SMALL
GASTEIGER

@<TRIPOS>ATOM
      1 O          -3.3931   -0.8122    0.5888 O.2     1  LIG1       -0.2917
      2 C          -2.1763   -0.7019    0.4614 C.2     1  LIG1        0.1740
      3 C          -1.3454   -1.9054    0.2693 C.ar    1  LIG1        0.1007
      4 C          -1.9040   -3.1885    0.2577 C.ar    1  LIG1        0.1343
      5 O          -3.2473   -3.4182    0.3873 O.3     1  LIG1       -0.5058
      6 C          -1.0882   -4.3089    0.1181 C.ar    1  LIG1        0.0222
      7 C           0.2884   -4.1357    0.0017 C.ar    1  LIG1        0.1238
      8 O           1.1273   -5.2027   -0.1299 O.3     1  LIG1       -0.5065
      9 C           0.8566   -2.8645    0.0137 C.ar    1  LIG1        0.0225
     10 C           0.0350   -1.7449    0.1308 C.ar    1  LIG1        0.1389
     11 O           0.6557   -0.5231    0.1280 O.3     1  LIG1       -0.4828
     12 C          -0.2100    0.5382   -0.3065 C.3     1  LIG1        0.1322
     13 H          -0.4879    0.3329   -1.3510 H       1  LIG1        0.0789
     14 C           0.5749    1.8355   -0.2611 C.ar    1  LIG1       -0.0067
     15 C           0.6526    2.6548   -1.3994 C.ar    1  LIG1       -0.0516
     16 C           1.3670    3.8556   -1.3671 C.ar    1  LIG1       -0.0198
     17 C           2.0037    4.2423   -0.1931 C.ar    1  LIG1        0.1169
     18 O           2.7113    5.4050   -0.1178 O.3     1  LIG1       -0.5068
     19 C           1.9395    3.4488    0.9446 C.ar    1  LIG1       -0.0198
     20 C           1.2298    2.2474    0.9115 C.ar    1  LIG1       -0.0516
     21 C          -1.4572    0.6126    0.5649 C.3     1  LIG1        0.0520
     22 H          -3.6973   -2.5502    0.5036 H       1  LIG1        0.2922
     23 H          -1.5386   -5.2964    0.1109 H       1  LIG1        0.0691
     24 H           0.6013   -6.0202   -0.1159 H       1  LIG1        0.2921
     25 H           1.9331   -2.7490   -0.0795 H       1  LIG1        0.0691
     26 H           0.1610    2.3623   -2.3250 H       1  LIG1        0.0623
     27 H           1.4156    4.4689   -2.2614 H       1  LIG1        0.0654
     28 H           2.6902    5.8381   -0.9866 H       1  LIG1        0.2921
     29 H           2.4451    3.7610    1.8540 H       1  LIG1        0.0654
     30 H           1.1992    1.6292    1.8064 H       1  LIG1        0.0623
     31 H          -2.1216    1.4120    0.2191 H       1  LIG1        0.0385
     32 H          -1.2203    0.7770    1.6222 H       1  LIG1        0.0385
@<TRIPOS>BOND
     1     1     2    2
     2     2     3    1
     3     3     4   ar
     4     4     5    1
     5     4     6   ar
     6     6     7   ar
     7     7     8    1
     8     7     9   ar
     9     9    10   ar
    10     3    10   ar
    11    10    11    1
    12    11    12    1
    13    12    13    1
    14    12    14    1
    15    14    15   ar
    16    15    16   ar
    17    16    17   ar
    18    17    18    1
    19    17    19   ar
    20    19    20   ar
    21    14    20   ar
    22    12    21    1
    23     2    21    1
    24     5    22    1
    25     6    23    1
    26     8    24    1
    27     9    25    1
    28    15    26    1
    29    16    27    1
    30    18    28    1
    31    19    29    1
    32    20    30    1
    33    21    31    1
    34    21    32    1
