REMARK  Name = NuBBE_1246
REMARK  16 active torsions:
REMARK  status: ('A' for Active; 'I' for Inactive)
REMARK    1  A    between atoms: C_3  and  O_4
REMARK    2  A    between atoms: O_4  and  C_5
REMARK    3  A    between atoms: C_6  and  C_7
REMARK    4  A    between atoms: C_7  and  C_8
REMARK    5  A    between atoms: C_8  and  C_9
REMARK    6  A    between atoms: C_9  and  C_10
REMARK    7  A    between atoms: C_10  and  C_11
REMARK    8  A    between atoms: C_11  and  C_12
REMARK    9  A    between atoms: C_12  and  C_13
REMARK   10  A    between atoms: C_13  and  C_14
REMARK   11  A    between atoms: C_14  and  C_15
REMARK   12  A    between atoms: C_15  and  C_16
REMARK   13  A    between atoms: C_16  and  C_17
REMARK   14  A    between atoms: C_17  and  C_18
REMARK   15  A    between atoms: C_17  and  O_19
REMARK   16  A    between atoms: C_17  and  C_20
REMARK                            x       y       z     vdW  Elec       q    Type
REMARK                         _______ _______ _______ _____ _____    ______ ____
ROOT
ATOM      1  C   LIG A   1      -0.605   2.916   0.152  0.00  0.00    +0.057 C 
ENDROOT
BRANCH   1   5
ATOM      2  O   LIG A   1      -3.760   6.640  -0.405  0.00  0.00    -0.283 OA
ATOM      3  C   LIG A   1      -2.665   6.197  -0.094  0.00  0.00    +0.231 A 
ATOM      4  C   LIG A   1      -2.277   4.743  -0.270  0.00  0.00    +0.186 A 
ATOM      5  C   LIG A   1      -1.073   4.359   0.215  0.00  0.00    +0.062 A 
ATOM      6  N   LIG A   1      -0.190   5.227   0.830  0.00  0.00    -0.355 N 
ATOM      7  H   LIG A   1       0.735   4.884   1.060  0.00  0.00    +0.166 HD
ATOM      8  C   LIG A   1      -0.439   6.596   0.927  0.00  0.00    +0.051 A 
ATOM      9  C   LIG A   1       0.495   7.459   1.504  0.00  0.00    +0.026 A 
ATOM     10  C   LIG A   1       0.215   8.822   1.630  0.00  0.00    +0.002 A 
ATOM     11  C   LIG A   1      -1.003   9.335   1.186  0.00  0.00    +0.001 A 
ATOM     12  C   LIG A   1      -1.946   8.482   0.614  0.00  0.00    +0.014 A 
ATOM     13  C   LIG A   1      -1.662   7.117   0.493  0.00  0.00    +0.049 A 
BRANCH   4  14
ATOM     14  O   LIG A   1      -3.123   3.822  -0.879  0.00  0.00    -0.490 OA
ATOM     15  C   LIG A   1      -3.978   4.337  -1.897  0.00  0.00    +0.277 C 
ENDBRANCH   4  14
ENDBRANCH   1   5
BRANCH   1  16
ATOM     16  C   LIG A   1       0.237   2.624  -1.096  0.00  0.00    +0.006 C 
BRANCH  16  17
ATOM     17  C   LIG A   1       0.764   1.184  -1.135  0.00  0.00    +0.000 C 
BRANCH  17  18
ATOM     18  C   LIG A   1      -0.352   0.135  -1.121  0.00  0.00    +0.000 C 
BRANCH  18  19
ATOM     19  C   LIG A   1       0.215  -1.283  -1.157  0.00  0.00    -0.000 C 
BRANCH  19  20
ATOM     20  C   LIG A   1      -0.896  -2.336  -1.120  0.00  0.00    -0.000 C 
BRANCH  20  21
ATOM     21  C   LIG A   1      -0.367  -3.772  -1.180  0.00  0.00    -0.000 C 
BRANCH  21  22
ATOM     22  C   LIG A   1       0.556  -4.137  -0.012  0.00  0.00    +0.000 C 
BRANCH  22  23
ATOM     23  C   LIG A   1       1.025  -5.591  -0.114  0.00  0.00    +0.003 C 
BRANCH  23  24
ATOM     24  C   LIG A   1       1.973  -5.971   1.034  0.00  0.00    +0.034 C 
BRANCH  24  25
ATOM     25  C   LIG A   1       2.481  -7.430   0.977  0.00  0.00    +0.060 C 
ATOM     26  C   LIG A   1       1.334  -8.443   1.057  0.00  0.00    +0.041 C 
ATOM     27  C   LIG A   1       3.473  -7.689   2.114  0.00  0.00    +0.041 C 
BRANCH  25  28
ATOM     28  O   LIG A   1       3.204  -7.633  -0.239  0.00  0.00    -0.389 OA
ATOM     29  H   LIG A   1       2.573  -7.869  -0.940  0.00  0.00    +0.210 HD
ENDBRANCH  25  28
ENDBRANCH  24  25
ENDBRANCH  23  24
ENDBRANCH  22  23
ENDBRANCH  21  22
ENDBRANCH  20  21
ENDBRANCH  19  20
ENDBRANCH  18  19
ENDBRANCH  17  18
ENDBRANCH  16  17
ENDBRANCH   1  16
TORSDOF 13
