@<TRIPOS>MOLECULE
NuBBE_994
 59 62 0 0 0
SMALL
GASTEIGER

@<TRIPOS>ATOM
      1 C          -2.3710    2.7687   -0.8279 C.3     1  LIG1       -0.0586
      2 C          -0.9276    2.2518   -1.0325 C.3     1  LIG1       -0.0191
      3 C          -0.3349    1.8631    0.3613 C.3     1  LIG1       -0.0252
      4 C           0.1475    3.1959    0.9542 C.3     1  LIG1        0.0097
      5 C           0.5019    4.0078   -0.2590 C.2     1  LIG1        0.1372
      6 C           0.0410    3.3598   -1.5506 C.3     1  LIG1        0.0229
      7 H           0.9419    2.8987   -1.9775 H       1  LIG1        0.0383
      8 C          -0.4993    4.4029   -2.5334 C.3     1  LIG1       -0.0459
      9 C          -0.8439    3.8363   -3.9011 C.3     1  LIG1       -0.0646
     10 O           1.1058    5.0726   -0.1952 O.2     1  LIG1       -0.2971
     11 C           0.7532    0.7516    0.2713 C.3     1  LIG1       -0.0340
     12 C           1.4244    0.5092    1.6357 C.3     1  LIG1       -0.0493
     13 C           2.1478   -0.8188    1.8083 C.3     1  LIG1       -0.0470
     14 C           1.5151   -2.0335    1.1137 C.3     1  LIG1       -0.0067
     15 C           1.6835   -3.3378    1.9195 C.3     1  LIG1        0.0868
     16 H           2.7424   -3.4762    2.1716 H       1  LIG1        0.0623
     17 O           0.9931   -3.3496    3.1722 O.3     1  LIG1       -0.3889
     18 C           1.2251   -4.5625    1.1055 C.3     1  LIG1        0.1071
     19 H           1.9704   -4.7609    0.3259 H       1  LIG1        0.0645
     20 O           1.1795   -5.7081    1.9726 O.3     1  LIG1       -0.3867
     21 C          -0.1453   -4.3985    0.4286 C.3     1  LIG1        0.0840
     22 H          -0.2733   -5.2110   -0.2969 H       1  LIG1        0.0620
     23 O          -1.2118   -4.5640    1.3633 O.3     1  LIG1       -0.3891
     24 C          -0.2938   -3.0598   -0.3014 C.3     1  LIG1       -0.0183
     25 C           0.0856   -1.7957    0.5411 C.3     1  LIG1       -0.0213
     26 C          -1.0059   -1.5753    1.6136 C.3     1  LIG1       -0.0589
     27 C           0.1961   -0.5433   -0.4070 C.3     1  LIG1       -0.0321
     28 C          -1.0718   -0.2745   -1.2441 C.3     1  LIG1       -0.0489
     29 C          -0.9558    1.0459   -1.9963 C.3     1  LIG1       -0.0464
     30 H          -2.4031    3.6577   -0.1897 H       1  LIG1        0.0235
     31 H          -2.9968    2.0030   -0.3552 H       1  LIG1        0.0235
     32 H          -2.8482    3.0284   -1.7780 H       1  LIG1        0.0235
     33 H          -1.1287    1.4764    1.0149 H       1  LIG1        0.0313
     34 H           1.0066    3.1131    1.6193 H       1  LIG1        0.0345
     35 H          -0.6674    3.7052    1.4786 H       1  LIG1        0.0345
     36 H           0.2632    5.1794   -2.6786 H       1  LIG1        0.0269
     37 H          -1.3681    4.9252   -2.1167 H       1  LIG1        0.0269
     38 H           0.0061    3.2952   -4.3283 H       1  LIG1        0.0230
     39 H          -1.1049    4.6490   -4.5869 H       1  LIG1        0.0230
     40 H          -1.7001    3.1596   -3.8564 H       1  LIG1        0.0230
     41 H           1.5465    1.1263   -0.3924 H       1  LIG1        0.0307
     42 H           2.1570    1.3046    1.8234 H       1  LIG1        0.0268
     43 H           0.6914    0.6147    2.4430 H       1  LIG1        0.0268
     44 H           2.2891   -0.9925    2.8805 H       1  LIG1        0.0269
     45 H           3.1666   -0.7045    1.4118 H       1  LIG1        0.0269
     46 H           2.1529   -2.1923    0.2273 H       1  LIG1        0.0332
     47 H           1.1849   -2.5214    3.6427 H       1  LIG1        0.2099
     48 H           0.9878   -5.3295    2.8584 H       1  LIG1        0.2100
     49 H          -0.9850   -5.3649    1.8732 H       1  LIG1        0.2099
     50 H          -1.3285   -2.9700   -0.6548 H       1  LIG1        0.0296
     51 H           0.3451   -3.0940   -1.1941 H       1  LIG1        0.0296
     52 H          -1.0129   -2.3496    2.3809 H       1  LIG1        0.0235
     53 H          -2.0049   -1.5834    1.1639 H       1  LIG1        0.0235
     54 H          -0.9139   -0.6265    2.1400 H       1  LIG1        0.0235
     55 H           0.9648   -0.8090   -1.1518 H       1  LIG1        0.0309
     56 H          -1.9709   -0.2611   -0.6202 H       1  LIG1        0.0268
     57 H          -1.2078   -1.0778   -1.9773 H       1  LIG1        0.0268
     58 H          -1.7918    1.1301   -2.7005 H       1  LIG1        0.0271
     59 H          -0.0486    1.0140   -2.6129 H       1  LIG1        0.0271
@<TRIPOS>BOND
     1     1     2    1
     2     2     3    1
     3     3     4    1
     4     4     5    1
     5     5     6    1
     6     6     7    1
     7     2     6    1
     8     6     8    1
     9     8     9    1
    10     5    10    2
    11     3    11    1
    12    11    12    1
    13    12    13    1
    14    13    14    1
    15    14    15    1
    16    15    18    1
    17    18    21    1
    18    21    24    1
    19    24    25    1
    20    25    26    1
    21    14    25    1
    22    25    27    1
    23    11    27    1
    24    27    28    1
    25    28    29    1
    26     2    29    1
    27    15    17    1
    28    15    16    1
    29    18    20    1
    30    18    19    1
    31    21    23    1
    32    21    22    1
    33     1    30    1
    34     1    31    1
    35     1    32    1
    36     3    33    1
    37     4    34    1
    38     4    35    1
    39     8    36    1
    40     8    37    1
    41     9    38    1
    42     9    39    1
    43     9    40    1
    44    11    41    1
    45    12    42    1
    46    12    43    1
    47    13    44    1
    48    13    45    1
    49    14    46    1
    50    17    47    1
    51    20    48    1
    52    23    49    1
    53    24    50    1
    54    24    51    1
    55    26    52    1
    56    26    53    1
    57    26    54    1
    58    27    55    1
    59    28    56    1
    60    28    57    1
    61    29    58    1
    62    29    59    1
