@<TRIPOS>MOLECULE
NuBBE_2231
 53 56 0 0 0
SMALL
GASTEIGER

@<TRIPOS>ATOM
      1 C          -1.6220    1.7577    0.7251 C.3     1  LIG1       -0.0567
      2 C          -0.1724    1.2274    0.4749 C.3     1  LIG1        0.0006
      3 C           0.2607    0.3585    1.7709 C.3     1  LIG1       -0.0278
      4 C          -0.5434   -0.9490    1.8586 C.3     1  LIG1       -0.0485
      5 C          -0.5449   -1.7965    0.6000 C.3     1  LIG1       -0.0441
      6 C          -0.8516   -1.0352   -0.7019 C.3     1  LIG1        0.0043
      7 C          -2.3975   -0.8851   -0.8866 C.3     1  LIG1       -0.0234
      8 C          -0.1359    0.3614   -0.8782 C.3     1  LIG1        0.0776
      9 O           1.2324    0.1309   -1.2442 O.3     1  LIG1       -0.3875
     10 C          -0.6579    1.0235   -2.1950 C.3     1  LIG1       -0.0224
     11 C          -0.7184   -0.0025   -3.3665 C.3     1  LIG1       -0.0439
     12 C          -1.3020   -1.3943   -3.0169 C.3     1  LIG1       -0.0194
     13 H          -1.3103   -2.0339   -3.9064 H       1  LIG1        0.0346
     14 C          -0.4489   -1.9652   -1.8959 C.3     1  LIG1       -0.0379
     15 C          -2.6056   -1.5063   -2.2402 C.2     1  LIG1       -0.0729
     16 C          -3.5583   -2.3864   -2.4719 C.2     1  LIG1       -0.0992
     17 H          -0.0928    0.9378    2.6405 H       1  LIG1        0.0312
     18 C           1.8241    0.2172    2.0211 C.3     1  LIG1       -0.0315
     19 C           2.2891   -0.3557    3.3924 C.3     1  LIG1       -0.0595
     20 C           2.5336   -0.7417    1.0416 C.3     1  LIG1       -0.0595
     21 C           2.3411    1.6773    2.0648 C.3     1  LIG1       -0.0476
     22 C           2.1431    2.4685    0.7943 C.3     1  LIG1       -0.0520
     23 C           0.6798    2.5384    0.3777 C.3     1  LIG1       -0.0447
     24 H          -2.3459    0.9688    0.9276 H       1  LIG1        0.0236
     25 H          -1.9842    2.3500   -0.1222 H       1  LIG1        0.0236
     26 H          -1.6600    2.4168    1.6011 H       1  LIG1        0.0236
     27 H          -1.5862   -0.7058    2.1022 H       1  LIG1        0.0268
     28 H          -0.2022   -1.5578    2.7025 H       1  LIG1        0.0268
     29 H          -1.2930   -2.5921    0.7350 H       1  LIG1        0.0272
     30 H           0.3977   -2.3440    0.5193 H       1  LIG1        0.0272
     31 H          -2.7557    0.1465   -0.9366 H       1  LIG1        0.0316
     32 H          -2.9737   -1.3815   -0.1009 H       1  LIG1        0.0316
     33 H           1.7340    0.9530   -1.1587 H       1  LIG1        0.2102
     34 H           0.0236    1.8271   -2.5089 H       1  LIG1        0.0293
     35 H          -1.6402    1.4859   -2.0865 H       1  LIG1        0.0293
     36 H           0.3188   -0.1736   -3.6996 H       1  LIG1        0.0272
     37 H          -1.2279    0.4422   -4.2272 H       1  LIG1        0.0272
     38 H           0.6185   -1.9598   -2.1344 H       1  LIG1        0.0277
     39 H          -0.7109   -3.0153   -1.6976 H       1  LIG1        0.0277
     40 H          -3.5418   -3.0418   -3.3475 H       1  LIG1        0.0534
     41 H          -4.3231   -2.6103   -1.7198 H       1  LIG1        0.0534
     42 H           2.1439    0.3335    4.2273 H       1  LIG1        0.0235
     43 H           3.3807   -0.5271    3.3428 H       1  LIG1        0.0235
     44 H           1.8413   -1.3225    3.6318 H       1  LIG1        0.0235
     45 H           1.9398   -1.0451    0.1990 H       1  LIG1        0.0235
     46 H           2.7250   -1.7205    1.5032 H       1  LIG1        0.0235
     47 H           3.4843   -0.3510    0.6748 H       1  LIG1        0.0235
     48 H           3.3918    1.7254    2.3701 H       1  LIG1        0.0271
     49 H           1.7869    2.2049    2.8604 H       1  LIG1        0.0271
     50 H           2.7870    2.0788    0.0047 H       1  LIG1        0.0266
     51 H           2.4885    3.4962    0.9752 H       1  LIG1        0.0266
     52 H           0.6129    2.9725   -0.6265 H       1  LIG1        0.0272
     53 H           0.2281    3.3001    1.0312 H       1  LIG1        0.0272
@<TRIPOS>BOND
     1     2     3    1
     2     3     4    1
     3     4     5    1
     4     5     6    1
     5     6     7    1
     6     6     8    1
     7     2     8    1
     8     8    10    1
     9    10    11    1
    10    11    12    1
    11    12    14    1
    12     6    14    1
    13    12    15    1
    14     7    15    1
    15     3    18    1
    16    18    21    1
    17    21    22    1
    18    22    23    1
    19     2    23    1
    20     1     2    1
    21     3    17    1
    22     8     9    1
    23    12    13    1
    24    15    16    2
    25    18    19    1
    26    18    20    1
    27     1    24    1
    28     1    25    1
    29     1    26    1
    30     4    27    1
    31     4    28    1
    32     5    29    1
    33     5    30    1
    34     7    31    1
    35     7    32    1
    36     9    33    1
    37    10    34    1
    38    10    35    1
    39    11    36    1
    40    11    37    1
    41    14    38    1
    42    14    39    1
    43    16    40    1
    44    16    41    1
    45    19    42    1
    46    19    43    1
    47    19    44    1
    48    20    45    1
    49    20    46    1
    50    20    47    1
    51    21    48    1
    52    21    49    1
    53    22    50    1
    54    22    51    1
    55    23    52    1
    56    23    53    1
