REMARK  Name = NuBBE_549
REMARK  4 active torsions:
REMARK  status: ('A' for Active; 'I' for Inactive)
REMARK    1  A    between atoms: C_2  and  C_3
REMARK    2  A    between atoms: C_2  and  C_11
REMARK    3  A    between atoms: C_6  and  O_7
REMARK    4  A    between atoms: O_7  and  C_8
REMARK                            x       y       z     vdW  Elec       q    Type
REMARK                         _______ _______ _______ _____ _____    ______ ____
ROOT
ATOM      1  C   LIG A   1      -0.053   0.613   1.454  0.00  0.00    +0.173 C 
ATOM      2  C   LIG A   1       0.190   1.896   0.668  0.00  0.00    -0.009 A 
ATOM      3  C   LIG A   1       0.834   1.835  -0.583  0.00  0.00    +0.056 A 
ATOM      4  C   LIG A   1       1.009   3.011  -1.279  0.00  0.00    +0.167 A 
ATOM      5  C   LIG A   1       0.583   4.219  -0.782  0.00  0.00    +0.167 A 
ATOM      6  O   LIG A   1       0.848   5.250  -1.630  0.00  0.00    -0.453 OA
ATOM      7  C   LIG A   1       1.456   4.545  -2.732  0.00  0.00    +0.466 C 
ATOM      8  O   LIG A   1       1.598   3.128  -2.499  0.00  0.00    -0.453 OA
ATOM      9  C   LIG A   1      -0.040   4.325   0.443  0.00  0.00    +0.058 A 
ATOM     10  C   LIG A   1      -0.239   3.150   1.181  0.00  0.00    -0.015 A 
ATOM     11  C   LIG A   1      -0.898   3.210   2.488  0.00  0.00    +0.023 C 
ATOM     12  C   LIG A   1      -0.998   2.096   3.218  0.00  0.00    +0.068 C 
ATOM     13  N   LIG A   1      -0.505   0.870   2.836  0.00  0.00    -0.336 N 
ATOM     14  H   LIG A   1      -1.003   0.093   3.265  0.00  0.00    +0.146 HD
ENDROOT
BRANCH   1  16
ATOM     15  O   LIG A   1      -2.213   0.061   0.441  0.00  0.00    -0.290 OA
ATOM     16  C   LIG A   1      -1.071  -0.296   0.741  0.00  0.00    +0.188 C 
BRANCH  16  17
ATOM     17  C   LIG A   1      -0.662  -1.685   0.386  0.00  0.00    +0.020 A 
ATOM     18  C   LIG A   1       0.272  -2.405   1.137  0.00  0.00    +0.015 A 
ATOM     19  C   LIG A   1       0.597  -3.714   0.771  0.00  0.00    +0.046 A 
ATOM     20  C   LIG A   1       0.006  -4.312  -0.344  0.00  0.00    +0.120 A 
ATOM     21  C   LIG A   1      -0.939  -3.603  -1.083  0.00  0.00    +0.046 A 
ATOM     22  C   LIG A   1      -1.273  -2.295  -0.718  0.00  0.00    +0.015 A 
BRANCH  20  23
ATOM     23  O   LIG A   1       0.380  -5.606  -0.576  0.00  0.00    -0.495 OA
ATOM     24  C   LIG A   1       0.331  -6.030  -1.934  0.00  0.00    +0.277 C 
ENDBRANCH  20  23
ENDBRANCH  16  17
ENDBRANCH   1  16
TORSDOF 3
