REMARK  Name = NuBBE_148
REMARK  12 active torsions:
REMARK  status: ('A' for Active; 'I' for Inactive)
REMARK    1  A    between atoms: O_1  and  C_2
REMARK    2  A    between atoms: C_2  and  C_3
REMARK    3  A    between atoms: C_5  and  C_6
REMARK    4  A    between atoms: C_6  and  C_7
REMARK    5  A    between atoms: C_8  and  C_9
REMARK    6  A    between atoms: C_8  and  C_10
REMARK    7  A    between atoms: C_13  and  C_14
REMARK    8  A    between atoms: C_13  and  C_20
REMARK    9  A    between atoms: C_14  and  C_15
REMARK   10  A    between atoms: C_15  and  C_16
REMARK   11  A    between atoms: C_17  and  C_18
REMARK   12  A    between atoms: C_17  and  C_19
REMARK                            x       y       z     vdW  Elec       q    Type
REMARK                         _______ _______ _______ _____ _____    ______ ____
ROOT
ATOM      1  C   LIG A   1      -0.652  -2.070  -2.786  0.00  0.00    +0.060 A 
ATOM      2  C   LIG A   1      -0.980  -0.792  -2.334  0.00  0.00    +0.022 A 
ATOM      3  C   LIG A   1      -0.130  -0.044  -1.504  0.00  0.00    -0.001 A 
ATOM      4  C   LIG A   1       1.111  -0.609  -1.159  0.00  0.00    +0.132 A 
ATOM      5  O   LIG A   1       1.876   0.087  -0.261  0.00  0.00    -0.481 OA
ATOM      6  C   LIG A   1       3.027  -0.548   0.332  0.00  0.00    +0.127 C 
ATOM      7  C   LIG A   1       4.148   0.488   0.131  0.00  0.00    +0.060 C 
ATOM      8  C   LIG A   1       3.486  -1.819  -0.347  0.00  0.00    +0.021 C 
ATOM      9  C   LIG A   1       2.799  -2.411  -1.326  0.00  0.00    +0.011 C 
ATOM     10  C   LIG A   1       1.503  -1.851  -1.679  0.00  0.00    +0.018 A 
ATOM     11  C   LIG A   1       0.623  -2.575  -2.499  0.00  0.00    +0.026 A 
ENDROOT
BRANCH   1  12
ATOM     12  C   LIG A   1      -1.624  -2.932  -3.526  0.00  0.00    +0.337 C 
ATOM     13  O   LIG A   1      -1.342  -4.043  -3.910  0.00  0.00    -0.245 OA
BRANCH  12  14
ATOM     14  O   LIG A   1      -2.869  -2.419  -3.703  0.00  0.00    -0.477 OA
ATOM     15  H   LIG A   1      -3.067  -1.539  -3.380  0.00  0.00    +0.295 HD
ENDBRANCH  12  14
ENDBRANCH   1  12
BRANCH   3  16
ATOM     16  C   LIG A   1      -0.525   1.358  -1.049  0.00  0.00    +0.066 C 
BRANCH  16  17
ATOM     17  C   LIG A   1      -2.016   1.616  -0.916  0.00  0.00    -0.023 C 
ATOM     18  C   LIG A   1      -2.618   2.750  -0.508  0.00  0.00    -0.079 C 
ATOM     19  C   LIG A   1      -1.900   4.004  -0.101  0.00  0.00    +0.038 C 
ATOM     20  C   LIG A   1      -4.120   2.822  -0.411  0.00  0.00    +0.038 C 
ENDBRANCH  16  17
ENDBRANCH   3  16
BRANCH   6  21
ATOM     21  C   LIG A   1       2.792  -0.760   1.855  0.00  0.00    +0.056 C 
BRANCH  21  22
ATOM     22  C   LIG A   1       1.636  -1.695   2.271  0.00  0.00    +0.031 C 
BRANCH  22  23
ATOM     23  C   LIG A   1       0.252  -1.257   1.865  0.00  0.00    -0.028 C 
ATOM     24  C   LIG A   1      -0.526  -0.330   2.455  0.00  0.00    -0.080 C 
ATOM     25  C   LIG A   1      -0.150   0.448   3.679  0.00  0.00    +0.038 C 
ATOM     26  C   LIG A   1      -1.874   0.054   1.911  0.00  0.00    +0.038 C 
ENDBRANCH  22  23
ENDBRANCH  21  22
ENDBRANCH   6  21
TORSDOF 7
