REMARK  Name = NuBBE_608
REMARK  10 active torsions:
REMARK  status: ('A' for Active; 'I' for Inactive)
REMARK    1  A    between atoms: C_1  and  C_2
REMARK    2  A    between atoms: C_6  and  C_48
REMARK    3  A    between atoms: C_9  and  C_13
REMARK    4  A    between atoms: C_13  and  C_14
REMARK    5  A    between atoms: C_28  and  C_32
REMARK    6  A    between atoms: C_33  and  O_35
REMARK    7  A    between atoms: O_35  and  C_36
REMARK    8  A    between atoms: C_36  and  C_37
REMARK    9  A    between atoms: C_43  and  C_44
REMARK   10  A    between atoms: C_43  and  O_45
REMARK                            x       y       z     vdW  Elec       q    Type
REMARK                         _______ _______ _______ _____ _____    ______ ____
ROOT
ATOM      1  C   LIG A   1       0.979  -3.505   3.157  0.00  0.00    +0.015 C 
ATOM      2  C   LIG A   1       0.953  -2.157   2.432  0.00  0.00    +0.056 C 
ATOM      3  C   LIG A   1       1.119  -2.348   0.949  0.00  0.00    +0.144 C 
ATOM      4  O   LIG A   1       1.048  -3.446   0.405  0.00  0.00    -0.296 OA
ATOM      5  C   LIG A   1      -0.358  -1.380   2.650  0.00  0.00    +0.002 C 
ATOM      6  C   LIG A   1      -0.670  -0.190   1.652  0.00  0.00    +0.033 C 
ATOM      7  C   LIG A   1      -2.200  -0.132   1.308  0.00  0.00    +0.082 C 
ATOM      8  N   LIG A   1      -2.256  -1.012   0.172  0.00  0.00    -0.311 N 
ATOM      9  H   LIG A   1      -3.117  -1.265  -0.305  0.00  0.00    +0.149 HD
ATOM     10  C   LIG A   1       0.003  -0.251   0.191  0.00  0.00    +0.104 C 
ATOM     11  C   LIG A   1      -1.096  -0.992  -0.571  0.00  0.00    +0.224 C 
ATOM     12  O   LIG A   1      -1.017  -1.456  -1.702  0.00  0.00    -0.275 OA
ATOM     13  C   LIG A   1       1.336  -1.040   0.208  0.00  0.00    +0.097 C 
ATOM     14  C   LIG A   1       2.068  -1.353  -1.072  0.00  0.00    -0.019 C 
ATOM     15  C   LIG A   1       3.408  -1.314  -1.189  0.00  0.00    -0.030 C 
ATOM     16  C   LIG A   1       4.128  -1.757  -2.431  0.00  0.00    +0.037 C 
ATOM     17  C   LIG A   1       4.522  -0.609  -3.366  0.00  0.00    +0.059 C 
ATOM     18  C   LIG A   1       3.264   0.131  -3.824  0.00  0.00    +0.170 C 
ATOM     19  O   LIG A   1       2.602  -0.366  -4.747  0.00  0.00    -0.294 OA
ATOM     20  C   LIG A   1       5.675   0.236  -2.842  0.00  0.00    +0.016 C 
ATOM     21  C   LIG A   1       0.269   1.188  -0.442  0.00  0.00    +0.224 C 
ATOM     22  C   LIG A   1       0.232   1.255  -1.967  0.00  0.00    +0.192 C 
ATOM     23  C   LIG A   1       1.268   1.481  -3.104  0.00  0.00    +0.190 C 
ATOM     24  C   LIG A   1       2.789   1.458  -3.139  0.00  0.00    +0.149 C 
ATOM     25  C   LIG A   1       3.272   2.575  -4.086  0.00  0.00    +0.052 C 
ATOM     26  O   LIG A   1       0.667   2.568  -2.408  0.00  0.00    -0.361 OA
ATOM     27  C   LIG A   1      -0.378  -0.854   4.098  0.00  0.00    +0.009 C 
ENDROOT
BRANCH  24  28
ATOM     28  O   LIG A   1       3.327   1.761  -1.867  0.00  0.00    -0.379 OA
ATOM     29  H   LIG A   1       2.973   1.117  -1.239  0.00  0.00    +0.211 HD
ENDBRANCH  24  28
BRANCH   7  30
ATOM     30  C   LIG A   1      -3.244  -0.436   2.411  0.00  0.00    +0.057 C 
BRANCH  30  31
ATOM     31  C   LIG A   1      -4.693  -0.325   1.962  0.00  0.00    -0.046 A 
ATOM     32  C   LIG A   1      -5.389  -1.463   1.524  0.00  0.00    +0.003 A 
ATOM     33  C   LIG A   1      -6.733  -1.379   1.150  0.00  0.00    +0.000 A 
ATOM     34  C   LIG A   1      -7.401  -0.159   1.208  0.00  0.00    +0.000 A 
ATOM     35  C   LIG A   1      -6.723   0.980   1.635  0.00  0.00    +0.000 A 
ATOM     36  C   LIG A   1      -5.376   0.900   2.009  0.00  0.00    +0.003 A 
ENDBRANCH  30  31
ENDBRANCH   7  30
BRANCH  21  37
ATOM     37  O   LIG A   1      -0.736   2.149  -0.001  0.00  0.00    -0.458 OA
BRANCH  37  38
ATOM     38  C   LIG A   1      -0.304   3.267   0.652  0.00  0.00    +0.304 C 
ATOM     39  C   LIG A   1      -1.373   4.330   0.669  0.00  0.00    +0.136 C 
ATOM     40  O   LIG A   1       0.789   3.401   1.169  0.00  0.00    -0.251 OA
ENDBRANCH  37  38
ENDBRANCH  21  37
TORSDOF 5
