REMARK  Name = NuBBE_1509
REMARK  3 active torsions:
REMARK  status: ('A' for Active; 'I' for Inactive)
REMARK    1  A    between atoms: O_1  and  C_2
REMARK    2  A    between atoms: C_13  and  C_16
REMARK    3  A    between atoms: C_26  and  O_28
REMARK                            x       y       z     vdW  Elec       q    Type
REMARK                         _______ _______ _______ _____ _____    ______ ____
ROOT
ATOM      1  C   LIG A   1      -2.402   0.691   2.866  0.00  0.00    +0.194 C 
ATOM      2  C   LIG A   1      -2.158   0.122   1.481  0.00  0.00    +0.077 C 
ATOM      3  C   LIG A   1      -0.638   0.269   1.419  0.00  0.00    +0.005 C 
ATOM      4  C   LIG A   1      -0.246  -0.093   2.875  0.00  0.00    +0.171 C 
ATOM      5  O   LIG A   1      -1.430   0.017   3.679  0.00  0.00    -0.346 OA
ATOM      6  C   LIG A   1       0.072  -0.681   0.433  0.00  0.00    +0.001 C 
ATOM      7  C   LIG A   1      -0.460  -0.530  -1.000  0.00  0.00    -0.003 C 
ATOM      8  C   LIG A   1       0.280  -1.493  -1.993  0.00  0.00    +0.006 C 
ATOM      9  C   LIG A   1       1.820  -1.612  -1.814  0.00  0.00    -0.022 C 
ATOM     10  C   LIG A   1       2.279  -1.588  -0.352  0.00  0.00    +0.007 C 
ATOM     11  C   LIG A   1       1.602  -0.519   0.480  0.00  0.00    +0.005 C 
ATOM     12  C   LIG A   1       2.357  -2.934  -2.421  0.00  0.00    +0.012 C 
ATOM     13  C   LIG A   1       2.350  -0.427  -2.640  0.00  0.00    +0.081 C 
ATOM     14  C   LIG A   1       1.397  -0.436  -3.812  0.00  0.00    +0.134 C 
ATOM     15  O   LIG A   1       1.642   0.070  -4.893  0.00  0.00    -0.297 OA
ATOM     16  C   LIG A   1       0.103  -1.151  -3.485  0.00  0.00    +0.078 C 
ATOM     17  C   LIG A   1      -0.678   0.945  -1.404  0.00  0.00    +0.004 C 
ATOM     18  C   LIG A   1      -0.249   2.046  -0.422  0.00  0.00    +0.004 C 
ATOM     19  C   LIG A   1      -0.316   1.748   1.101  0.00  0.00    +0.001 C 
ATOM     20  C   LIG A   1      -1.232   2.767   1.833  0.00  0.00    +0.041 C 
ATOM     21  C   LIG A   1      -2.104   2.215   2.970  0.00  0.00    +0.174 C 
ENDROOT
BRANCH   1  22
ATOM     22  O   LIG A   1      -3.694   0.404   3.354  0.00  0.00    -0.363 OA
ATOM     23  H   LIG A   1      -3.899  -0.508   3.091  0.00  0.00    +0.213 HD
ENDBRANCH   1  22
BRANCH  21  24
ATOM     24  O   LIG A   1      -1.458   2.522   4.221  0.00  0.00    -0.387 OA
ATOM     25  H   LIG A   1      -1.458   1.681   4.726  0.00  0.00    +0.210 HD
ENDBRANCH  21  24
TORSDOF 2
