@<TRIPOS>MOLECULE
NuBBE_1582
 39 42 0 0 0
SMALL
GASTEIGER

@<TRIPOS>ATOM
      1 O          -2.5726   -3.1638   -0.2888 O.3     1  LIG1       -0.5027
      2 C          -1.2913   -2.7081   -0.1221 C.ar    1  LIG1        0.1768
      3 C          -0.2430   -3.6445   -0.0262 C.ar    1  LIG1        0.2043
      4 O          -0.4464   -4.9930   -0.1574 O.3     1  LIG1       -0.4885
      5 C          -1.3897   -5.4271   -1.1289 C.3     1  LIG1        0.0791
      6 C           1.0592   -3.1921    0.2791 C.ar    1  LIG1        0.1687
      7 O           2.1746   -3.9594    0.5274 O.3     1  LIG1       -0.4912
      8 C           2.0028   -5.3726    0.5051 C.3     1  LIG1        0.0790
      9 C           1.3137   -1.8134    0.3594 C.ar    1  LIG1        0.0270
     10 C           0.2759   -0.8962    0.2117 C.ar    1  LIG1        0.1465
     11 O           0.6091    0.4286    0.3065 O.2     1  LIG1       -0.4543
     12 C          -0.3998    1.3809    0.1716 C.ar    1  LIG1        0.1393
     13 C           0.1012    2.7751    0.2726 C.ar    1  LIG1        0.0211
     14 C          -0.5120    3.8270   -0.4282 C.ar    1  LIG1       -0.0055
     15 C           0.0246    5.0944   -0.3131 C.ar    1  LIG1        0.1669
     16 O          -0.4534    6.2117   -0.9240 O.3     1  LIG1       -0.4526
     17 C           0.4817    7.2021   -0.4478 C.3     1  LIG1        0.2332
     18 O           1.4968    6.6606    0.4228 O.3     1  LIG1       -0.4526
     19 C           1.1357    5.3510    0.4523 C.ar    1  LIG1        0.1663
     20 C           1.7769    4.3529    1.1472 C.ar    1  LIG1       -0.0155
     21 C           1.2522    3.0579    1.0520 C.ar    1  LIG1       -0.0474
     22 C          -1.7006    1.0689   -0.0169 C.ar    1  LIG1        0.0288
     23 C          -1.0170   -1.3416   -0.0050 C.ar    1  LIG1        0.1091
     24 C          -2.0926   -0.3376   -0.1152 C.ar    1  LIG1        0.1967
     25 O          -3.2546   -0.6625   -0.2826 O.2     1  LIG1       -0.2869
     26 H          -3.1860   -2.3942   -0.3147 H       1  LIG1        0.2923
     27 H          -2.3796   -5.5022   -0.6728 H       1  LIG1        0.0660
     28 H          -1.1046   -6.4374   -1.4400 H       1  LIG1        0.0660
     29 H          -1.3968   -4.7964   -2.0247 H       1  LIG1        0.0660
     30 H           2.9412   -5.8546    0.7897 H       1  LIG1        0.0660
     31 H           1.7686   -5.7031   -0.5125 H       1  LIG1        0.0660
     32 H           1.2519   -5.6961    1.2357 H       1  LIG1        0.0660
     33 H           2.3240   -1.4508    0.5397 H       1  LIG1        0.0692
     34 H          -1.3753    3.6738   -1.0656 H       1  LIG1        0.0662
     35 H          -0.0735    7.9735    0.0981 H       1  LIG1        0.1166
     36 H           0.9712    7.6648   -1.3123 H       1  LIG1        0.1166
     37 H           2.6576    4.5619    1.7442 H       1  LIG1        0.0655
     38 H           1.7565    2.2604    1.5971 H       1  LIG1        0.0626
     39 H          -2.4868    1.8014   -0.1132 H       1  LIG1        0.0693
@<TRIPOS>BOND
     1     1     2    1
     2     2     3   ar
     3     3     4    1
     4     4     5    1
     5     3     6   ar
     6     6     7    1
     7     7     8    1
     8     6     9   ar
     9     9    10   ar
    10    10    11   ar
    11    11    12   ar
    12    12    13    1
    13    13    14   ar
    14    14    15   ar
    15    15    16    1
    16    16    17    1
    17    17    18    1
    18    15    19   ar
    19    18    19    1
    20    19    20   ar
    21    20    21   ar
    22    13    21   ar
    23    12    22   ar
    24    10    23   ar
    25     2    23   ar
    26    23    24   ar
    27    22    24   ar
    28    24    25    2
    29     1    26    1
    30     5    27    1
    31     5    28    1
    32     5    29    1
    33     8    30    1
    34     8    31    1
    35     8    32    1
    36     9    33    1
    37    14    34    1
    38    17    35    1
    39    17    36    1
    40    20    37    1
    41    21    38    1
    42    22    39    1
