REMARK  Name = NuBBE_332
REMARK  20 active torsions:
REMARK  status: ('A' for Active; 'I' for Inactive)
REMARK    1  A    between atoms: C_2  and  C_3
REMARK    2  A    between atoms: C_2  and  O_42
REMARK    3  A    between atoms: C_6  and  O_25
REMARK    4  A    between atoms: C_7  and  C_15
REMARK    5  A    between atoms: C_9  and  C_10
REMARK    6  A    between atoms: C_10  and  C_11
REMARK    7  A    between atoms: C_11  and  O_12
REMARK    8  A    between atoms: C_15  and  C_17
REMARK    9  A    between atoms: C_15  and  O_18
REMARK   10  A    between atoms: O_18  and  C_19
REMARK   11  A    between atoms: C_19  and  C_20
REMARK   12  A    between atoms: C_20  and  C_21
REMARK   13  A    between atoms: C_22  and  C_23
REMARK   14  A    between atoms: O_25  and  C_26
REMARK   15  A    between atoms: C_29  and  C_37
REMARK   16  A    between atoms: C_31  and  O_36
REMARK   17  A    between atoms: C_33  and  O_35
REMARK   18  A    between atoms: C_37  and  O_38
REMARK   19  A    between atoms: C_39  and  O_41
REMARK   20  A    between atoms: O_42  and  C_43
REMARK                            x       y       z     vdW  Elec       q    Type
REMARK                         _______ _______ _______ _____ _____    ______ ____
ROOT
ATOM      1  C   LIG A   1       2.426   1.547   0.930  0.00  0.00    +0.075 C 
ATOM      2  C   LIG A   1       2.533   0.524   0.078  0.00  0.00    +0.201 C 
ATOM      3  O   LIG A   1       1.553  -0.354  -0.271  0.00  0.00    -0.470 OA
ATOM      4  C   LIG A   1       0.283  -0.321   0.406  0.00  0.00    +0.316 C 
ATOM      5  C   LIG A   1       0.368   0.462   1.769  0.00  0.00    +0.106 C 
ATOM      6  C   LIG A   1       1.138   1.815   1.671  0.00  0.00    +0.052 C 
ENDROOT
BRANCH   5   7
ATOM      7  C   LIG A   1      -0.941   0.416   2.592  0.00  0.00    +0.183 C 
ATOM      8  C   LIG A   1      -0.949   1.291   3.855  0.00  0.00    +0.052 C 
BRANCH   7   9
ATOM      9  O   LIG A   1      -1.090  -0.955   3.064  0.00  0.00    -0.458 OA
BRANCH   9  10
ATOM     10  C   LIG A   1      -1.891  -1.797   2.358  0.00  0.00    +0.335 C 
ATOM     11  O   LIG A   1      -2.628  -1.472   1.458  0.00  0.00    -0.245 OA
BRANCH  10  12
ATOM     12  C   LIG A   1      -1.613  -3.222   2.744  0.00  0.00    +0.029 C 
ATOM     13  C   LIG A   1      -0.517  -3.515   3.724  0.00  0.00    +0.051 C 
ATOM     14  C   LIG A   1      -2.337  -4.179   2.134  0.00  0.00    -0.020 C 
ATOM     15  C   LIG A   1      -2.130  -5.656   2.271  0.00  0.00    +0.035 C 
ENDBRANCH  10  12
ENDBRANCH   9  10
ENDBRANCH   7   9
ENDBRANCH   5   7
BRANCH   1  17
ATOM     16  O   LIG A   1       3.697   3.138   2.192  0.00  0.00    -0.245 OA
ATOM     17  C   LIG A   1       3.638   2.368   1.259  0.00  0.00    +0.338 C 
BRANCH  17  18
ATOM     18  O   LIG A   1       4.583   2.180   0.301  0.00  0.00    -0.465 OA
ATOM     19  C   LIG A   1       5.564   3.206   0.165  0.00  0.00    +0.280 C 
ENDBRANCH  17  18
ENDBRANCH   1  17
BRANCH   4  20
ATOM     20  O   LIG A   1      -0.801   0.085  -0.457  0.00  0.00    -0.309 OA
BRANCH  20  21
ATOM     21  C   LIG A   1      -1.092  -0.864  -1.517  0.00  0.00    +0.286 C 
ATOM     22  O   LIG A   1       0.055  -1.033  -2.334  0.00  0.00    -0.340 OA
ATOM     23  C   LIG A   1      -0.017  -0.793  -3.739  0.00  0.00    +0.178 C 
ATOM     24  C   LIG A   1      -0.829   0.444  -4.149  0.00  0.00    +0.177 C 
ATOM     25  C   LIG A   1      -2.159   0.578  -3.393  0.00  0.00    +0.179 C 
ATOM     26  C   LIG A   1      -2.377  -0.500  -2.322  0.00  0.00    +0.201 C 
BRANCH  25  27
ATOM     27  O   LIG A   1      -2.251   1.886  -2.815  0.00  0.00    -0.386 OA
ATOM     28  H   LIG A   1      -1.413   2.029  -2.318  0.00  0.00    +0.210 HD
ENDBRANCH  25  27
BRANCH  24  29
ATOM     29  O   LIG A   1      -1.036   0.467  -5.576  0.00  0.00    -0.387 OA
ATOM     30  H   LIG A   1      -1.642  -0.250  -5.826  0.00  0.00    +0.210 HD
ENDBRANCH  24  29
BRANCH  26  31
ATOM     31  O   LIG A   1      -2.873  -1.674  -3.012  0.00  0.00    -0.384 OA
ATOM     32  H   LIG A   1      -3.748  -1.438  -3.374  0.00  0.00    +0.210 HD
ENDBRANCH  26  31
BRANCH  23  33
ATOM     33  C   LIG A   1       1.457  -0.572  -4.121  0.00  0.00    +0.190 C 
BRANCH  33  34
ATOM     34  O   LIG A   1       1.970   0.554  -3.393  0.00  0.00    -0.392 OA
ATOM     35  H   LIG A   1       1.574   0.479  -2.497  0.00  0.00    +0.209 HD
ENDBRANCH  33  34
ENDBRANCH  23  33
ENDBRANCH  20  21
ENDBRANCH   4  20
BRANCH   6  36
ATOM     36  C   LIG A   1       0.433   3.120   1.229  0.00  0.00    +0.129 C 
BRANCH  36  37
ATOM     37  C   LIG A   1      -0.183   3.262  -0.144  0.00  0.00    +0.305 C 
ATOM     38  O   LIG A   1      -0.213   2.486  -1.064  0.00  0.00    -0.251 OA
BRANCH  37  39
ATOM     39  O   LIG A   1      -0.721   4.498  -0.301  0.00  0.00    -0.481 OA
ATOM     40  H   LIG A   1      -1.028   4.512  -1.233  0.00  0.00    +0.295 HD
ENDBRANCH  37  39
ENDBRANCH  36  37
ENDBRANCH   6  36
TORSDOF 16
