REMARK  Name = NuBBE_1195
REMARK  17 active torsions:
REMARK  status: ('A' for Active; 'I' for Inactive)
REMARK    1  A    between atoms: C_1  and  C_2
REMARK    2  A    between atoms: C_2  and  C_12
REMARK    3  A    between atoms: C_4  and  C_5
REMARK    4  A    between atoms: C_5  and  C_6
REMARK    5  A    between atoms: C_5  and  O_7
REMARK    6  A    between atoms: C_5  and  C_8
REMARK    7  A    between atoms: C_15  and  O_17
REMARK    8  A    between atoms: C_18  and  C_19
REMARK    9  A    between atoms: C_20  and  C_25
REMARK   10  A    between atoms: C_26  and  O_28
REMARK   11  A    between atoms: C_30  and  C_38
REMARK   12  A    between atoms: C_31  and  C_32
REMARK   13  A    between atoms: C_31  and  C_33
REMARK   14  A    between atoms: C_33  and  C_34
REMARK   15  A    between atoms: C_34  and  C_35
REMARK   16  A    between atoms: C_35  and  O_36
REMARK   17  A    between atoms: C_38  and  C_39
REMARK                            x       y       z     vdW  Elec       q    Type
REMARK                         _______ _______ _______ _____ _____    ______ ____
ROOT
ATOM      1  C   LIG A   1      -1.846  -0.607   2.634  0.00  0.00    +0.027 C 
ATOM      2  C   LIG A   1      -1.179   0.493   3.504  0.00  0.00    +0.038 C 
ATOM      3  C   LIG A   1      -1.266   1.857   2.776  0.00  0.00    +0.122 C 
ATOM      4  C   LIG A   1      -1.711   1.607   1.299  0.00  0.00    +0.005 C 
ATOM      5  C   LIG A   1      -2.782   2.656   0.868  0.00  0.00    +0.014 C 
ATOM      6  C   LIG A   1      -0.491   1.596   0.187  0.00  0.00    +0.005 C 
ATOM      7  C   LIG A   1      -0.921   0.754  -1.084  0.00  0.00    +0.004 C 
ATOM      8  C   LIG A   1      -1.485  -0.603  -0.671  0.00  0.00    +0.005 C 
ATOM      9  C   LIG A   1      -2.744  -0.459   0.152  0.00  0.00    +0.005 C 
ATOM     10  C   LIG A   1      -2.458   0.227   1.464  0.00  0.00    +0.004 C 
ATOM     11  C   LIG A   1       0.816   1.137   0.874  0.00  0.00    +0.014 C 
ATOM     12  C   LIG A   1      -0.175   2.999  -0.432  0.00  0.00    +0.122 C 
ATOM     13  C   LIG A   1       1.047   2.949  -1.360  0.00  0.00    +0.040 C 
ATOM     14  C   LIG A   1       0.988   1.925  -2.523  0.00  0.00    +0.023 C 
ATOM     15  C   LIG A   1       0.089   0.625  -2.309  0.00  0.00    -0.022 C 
ATOM     16  C   LIG A   1       0.972  -0.646  -2.162  0.00  0.00    +0.012 C 
ENDROOT
BRANCH   1  18
ATOM     17  C   LIG A   1      -1.614  -3.040   1.585  0.00  0.00    +0.042 C 
ATOM     18  C   LIG A   1      -0.996  -1.942   2.485  0.00  0.00    +0.070 C 
ATOM     19  O   LIG A   1       0.308  -1.681   1.937  0.00  0.00    -0.367 OA
ATOM     20  C   LIG A   1       1.327  -2.380   2.683  0.00  0.00    +0.150 C 
ATOM     21  C   LIG A   1       0.599  -3.311   3.637  0.00  0.00    +0.037 C 
ATOM     22  C   LIG A   1      -0.698  -2.568   3.866  0.00  0.00    +0.037 C 
BRANCH  20  23
ATOM     23  C   LIG A   1       2.351  -3.071   1.746  0.00  0.00    +0.086 C 
ATOM     24  C   LIG A   1       3.430  -3.792   2.550  0.00  0.00    +0.043 C 
ATOM     25  C   LIG A   1       3.004  -2.050   0.817  0.00  0.00    +0.043 C 
BRANCH  23  26
ATOM     26  O   LIG A   1       1.689  -4.055   0.937  0.00  0.00    -0.387 OA
ATOM     27  H   LIG A   1       2.303  -4.335   0.237  0.00  0.00    +0.210 HD
ENDBRANCH  23  26
ENDBRANCH  20  23
ENDBRANCH   1  18
BRANCH  14  28
ATOM     28  C   LIG A   1       2.410   1.684  -3.094  0.00  0.00    -0.076 C 
ATOM     29  C   LIG A   1       3.515   1.174  -2.190  0.00  0.00    +0.038 C 
ATOM     30  C   LIG A   1       2.714   1.920  -4.383  0.00  0.00    +0.007 C 
ENDBRANCH  14  28
BRANCH   3  31
ATOM     31  O   LIG A   1      -2.222   2.649   3.491  0.00  0.00    -0.391 OA
ATOM     32  H   LIG A   1      -1.773   2.975   4.290  0.00  0.00    +0.210 HD
ENDBRANCH   3  31
BRANCH  12  33
ATOM     33  O   LIG A   1       0.087   3.953   0.598  0.00  0.00    -0.391 OA
ATOM     34  H   LIG A   1       0.132   4.829   0.176  0.00  0.00    +0.210 HD
ENDBRANCH  12  33
BRANCH  15  35
ATOM     35  C   LIG A   1      -0.761   0.314  -3.634  0.00  0.00    +0.018 C 
BRANCH  35  36
ATOM     36  C   LIG A   1      -1.776   1.379  -4.106  0.00  0.00    +0.121 C 
BRANCH  36  37
ATOM     37  C   LIG A   1      -2.482   0.942  -5.386  0.00  0.00    +0.305 C 
ATOM     38  O   LIG A   1      -3.177  -0.036  -5.534  0.00  0.00    -0.251 OA
BRANCH  37  39
ATOM     39  O   LIG A   1      -2.299   1.833  -6.398  0.00  0.00    -0.481 OA
ATOM     40  H   LIG A   1      -2.843   1.470  -7.127  0.00  0.00    +0.295 HD
ENDBRANCH  37  39
ENDBRANCH  36  37
ENDBRANCH  35  36
ENDBRANCH  15  35
TORSDOF 10
