REMARK  Name = NuBBE_1379
REMARK  5 active torsions:
REMARK  status: ('A' for Active; 'I' for Inactive)
REMARK    1  A    between atoms: C_1  and  C_2
REMARK    2  A    between atoms: C_2  and  C_3
REMARK    3  A    between atoms: C_3  and  C_4
REMARK    4  A    between atoms: C_4  and  C_5
REMARK    5  A    between atoms: C_5  and  C_6
REMARK                            x       y       z     vdW  Elec       q    Type
REMARK                         _______ _______ _______ _____ _____    ______ ____
ROOT
ATOM      1  C   LIG A   1       0.894  -0.013  -0.186  0.00  0.00    +0.007 C 
ENDROOT
BRANCH   1   2
ATOM      2  C   LIG A   1      -0.582  -0.088   0.201  0.00  0.00    +0.000 C 
BRANCH   2   4
ATOM      3  C   LIG A   1      -2.872   0.899  -0.144  0.00  0.00    +0.004 C 
ATOM      4  C   LIG A   1      -1.402   0.978  -0.525  0.00  0.00    -0.003 C 
ENDBRANCH   2   4
ENDBRANCH   1   2
BRANCH   1   5
ATOM      5  C   LIG A   1       1.722  -1.065   0.546  0.00  0.00    +0.071 C 
BRANCH   5   6
ATOM      6  C   LIG A   1       3.181  -1.011   0.160  0.00  0.00    +0.223 C 
ATOM      7  O   LIG A   1       3.662  -0.214  -0.637  0.00  0.00    -0.301 OA
ENDBRANCH   5   6
ENDBRANCH   1   5
TORSDOF 4
