REMARK  Name = NuBBE_2161
REMARK  12 active torsions:
REMARK  status: ('A' for Active; 'I' for Inactive)
REMARK    1  A    between atoms: C_1  and  C_2
REMARK    2  A    between atoms: C_2  and  C_3
REMARK    3  A    between atoms: C_3  and  C_5
REMARK    4  A    between atoms: C_3  and  C_6
REMARK    5  A    between atoms: C_6  and  C_7
REMARK    6  A    between atoms: C_6  and  C_8
REMARK    7  A    between atoms: C_9  and  C_12
REMARK    8  A    between atoms: C_12  and  C_14
REMARK    9  A    between atoms: C_12  and  C_15
REMARK   10  A    between atoms: C_27  and  O_29
REMARK   11  A    between atoms: C_32  and  C_33
REMARK   12  A    between atoms: C_38  and  C_39
REMARK                            x       y       z     vdW  Elec       q    Type
REMARK                         _______ _______ _______ _____ _____    ______ ____
ROOT
ATOM      1  C   LIG A   1       0.671  -0.658  -2.758  0.00  0.00    -0.002 C 
ATOM      2  C   LIG A   1       0.131   0.765  -2.951  0.00  0.00    +0.004 C 
ATOM      3  C   LIG A   1      -0.087   1.323  -1.546  0.00  0.00    +0.004 C 
ATOM      4  C   LIG A   1       0.622   0.371  -0.554  0.00  0.00    -0.001 C 
ATOM      5  C   LIG A   1       1.237   1.089   0.640  0.00  0.00    +0.000 C 
ATOM      6  C   LIG A   1       1.581   0.103   1.778  0.00  0.00    +0.031 C 
ATOM      7  C   LIG A   1       2.323   0.752   2.901  0.00  0.00    -0.027 C 
ATOM      8  C   LIG A   1       2.894   1.956   2.806  0.00  0.00    -0.065 C 
ATOM      9  C   LIG A   1       3.317   2.693   4.057  0.00  0.00    +0.062 C 
ATOM     10  C   LIG A   1       2.360   3.878   4.286  0.00  0.00    +0.119 C 
ATOM     11  C   LIG A   1       2.218   4.763   3.042  0.00  0.00    +0.032 C 
ATOM     12  C   LIG A   1       1.944   3.963   1.753  0.00  0.00    +0.013 C 
ATOM     13  C   LIG A   1       2.930   2.770   1.506  0.00  0.00    -0.008 C 
ATOM     14  C   LIG A   1       4.336   3.336   1.221  0.00  0.00    +0.016 C 
ATOM     15  C   LIG A   1       2.449   1.935   0.249  0.00  0.00    +0.003 C 
ATOM     16  C   LIG A   1       3.475   1.006  -0.452  0.00  0.00    +0.005 C 
ATOM     17  C   LIG A   1       2.879   0.268  -1.683  0.00  0.00    +0.007 C 
ATOM     18  C   LIG A   1       1.534  -0.506  -1.437  0.00  0.00    -0.026 C 
ATOM     19  C   LIG A   1       1.873  -1.895  -0.875  0.00  0.00    +0.012 C 
ENDROOT
BRANCH   1  20
ATOM     20  C   LIG A   1      -0.488  -1.764  -2.847  0.00  0.00    -0.007 C 
ATOM     21  C   LIG A   1      -0.988  -1.819  -4.302  0.00  0.00    +0.008 C 
BRANCH  20  24
ATOM     22  C   LIG A   1      -3.047  -3.716  -2.275  0.00  0.00    +0.012 C 
ATOM     23  C   LIG A   1      -2.842  -2.443  -1.500  0.00  0.00    -0.026 C 
ATOM     24  C   LIG A   1      -1.602  -1.588  -1.823  0.00  0.00    -0.001 C 
ATOM     25  C   LIG A   1      -2.971  -1.093  -2.187  0.00  0.00    +0.011 C 
BRANCH  23  26
ATOM     26  C   LIG A   1      -3.245  -2.496   0.006  0.00  0.00    -0.005 C 
ATOM     27  C   LIG A   1      -2.412  -3.564   0.734  0.00  0.00    +0.008 C 
BRANCH  26  28
ATOM     28  C   LIG A   1      -4.773  -2.677   0.264  0.00  0.00    -0.014 C 
ATOM     29  C   LIG A   1      -5.113  -2.574   1.761  0.00  0.00    +0.007 C 
ATOM     30  C   LIG A   1      -5.627  -1.649  -0.488  0.00  0.00    +0.007 C 
ENDBRANCH  26  28
ENDBRANCH  23  26
ENDBRANCH  20  24
ENDBRANCH   1  20
BRANCH  10  31
ATOM     31  O   LIG A   1       1.054   3.431   4.670  0.00  0.00    -0.392 OA
ATOM     32  H   LIG A   1       1.102   2.484   4.885  0.00  0.00    +0.210 HD
ENDBRANCH  10  31
TORSDOF 5
