REMARK  Name = NuBBE_2004
REMARK  14 active torsions:
REMARK  status: ('A' for Active; 'I' for Inactive)
REMARK    1  A    between atoms: C_1  and  C_2
REMARK    2  A    between atoms: C_7  and  C_9
REMARK    3  A    between atoms: C_12  and  O_13
REMARK    4  A    between atoms: O_13  and  C_14
REMARK    5  A    between atoms: C_14  and  C_15
REMARK    6  A    between atoms: C_17  and  O_18
REMARK    7  A    between atoms: O_18  and  C_19
REMARK    8  A    between atoms: C_23  and  O_24
REMARK    9  A    between atoms: O_24  and  C_25
REMARK   10  A    between atoms: C_25  and  C_26
REMARK   11  A    between atoms: C_28  and  C_29
REMARK   12  A    between atoms: C_30  and  O_31
REMARK   13  A    between atoms: O_31  and  C_32
REMARK   14  A    between atoms: C_32  and  C_33
REMARK                            x       y       z     vdW  Elec       q    Type
REMARK                         _______ _______ _______ _____ _____    ______ ____
ROOT
ATOM      1  C   LIG A   1      -2.868  -0.410  -1.752  0.00  0.00    +0.051 C 
ATOM      2  C   LIG A   1      -1.422  -0.824  -1.873  0.00  0.00    +0.035 A 
ATOM      3  C   LIG A   1      -0.426   0.154  -1.714  0.00  0.00    +0.142 A 
ATOM      4  C   LIG A   1       0.937  -0.160  -1.805  0.00  0.00    +0.102 A 
ATOM      5  C   LIG A   1       1.868   0.969  -1.539  0.00  0.00    +0.174 C 
ATOM      6  C   LIG A   1       1.308   2.327  -1.784  0.00  0.00    +0.129 C 
ATOM      7  C   LIG A   1       0.031   2.390  -0.975  0.00  0.00    +0.211 C 
ATOM      8  O   LIG A   1      -0.895   1.429  -1.496  0.00  0.00    -0.483 OA
ATOM      9  O   LIG A   1       2.996   0.824  -1.085  0.00  0.00    -0.292 OA
ATOM     10  C   LIG A   1       1.327  -1.480  -2.090  0.00  0.00    +0.152 A 
ATOM     11  C   LIG A   1       0.355  -2.502  -2.248  0.00  0.00    +0.035 A 
ATOM     12  C   LIG A   1       0.775  -3.925  -2.523  0.00  0.00    +0.051 C 
ATOM     13  C   LIG A   1      -1.015  -2.151  -2.122  0.00  0.00    +0.144 A 
ENDROOT
BRANCH   7  14
ATOM     14  C   LIG A   1       0.156   2.280   0.541  0.00  0.00    -0.003 A 
ATOM     15  C   LIG A   1       1.265   2.786   1.231  0.00  0.00    +0.011 A 
ATOM     16  C   LIG A   1       1.332   2.723   2.623  0.00  0.00    +0.050 A 
ATOM     17  C   LIG A   1       0.279   2.167   3.349  0.00  0.00    +0.173 A 
ATOM     18  C   LIG A   1      -0.829   1.621   2.686  0.00  0.00    +0.163 A 
ATOM     19  C   LIG A   1      -0.889   1.713   1.293  0.00  0.00    +0.056 A 
BRANCH  18  20
ATOM     20  O   LIG A   1      -1.822   1.049   3.443  0.00  0.00    -0.491 OA
ATOM     21  C   LIG A   1      -2.612   0.068   2.770  0.00  0.00    +0.277 C 
ENDBRANCH  18  20
BRANCH  17  22
ATOM     22  O   LIG A   1       0.316   2.052   4.761  0.00  0.00    -0.422 OA
BRANCH  22  23
ATOM     23  C   LIG A   1       1.046   2.910   5.586  0.00  0.00    +0.309 C 
ATOM     24  C   LIG A   1       0.898   2.462   7.010  0.00  0.00    +0.136 C 
ATOM     25  O   LIG A   1       1.677   3.902   5.250  0.00  0.00    -0.251 OA
ENDBRANCH  22  23
ENDBRANCH  17  22
ENDBRANCH   7  14
BRANCH  10  26
ATOM     26  O   LIG A   1       2.696  -1.858  -2.104  0.00  0.00    -0.425 OA
BRANCH  26  27
ATOM     27  C   LIG A   1       3.625  -1.066  -2.802  0.00  0.00    +0.309 C 
ATOM     28  C   LIG A   1       4.912  -1.037  -2.032  0.00  0.00    +0.136 C 
ATOM     29  O   LIG A   1       3.386  -0.460  -3.847  0.00  0.00    -0.251 OA
ENDBRANCH  26  27
ENDBRANCH  10  26
BRANCH  13  30
ATOM     30  O   LIG A   1      -1.977  -3.130  -2.509  0.00  0.00    -0.425 OA
BRANCH  30  31
ATOM     31  C   LIG A   1      -3.197  -3.307  -1.850  0.00  0.00    +0.309 C 
ATOM     32  C   LIG A   1      -4.255  -3.610  -2.875  0.00  0.00    +0.136 C 
ATOM     33  O   LIG A   1      -3.415  -3.112  -0.662  0.00  0.00    -0.251 OA
ENDBRANCH  30  31
ENDBRANCH  13  30
TORSDOF 8
