@<TRIPOS>MOLECULE
NuBBE_179
 36 38 0 0 0
SMALL
GASTEIGER

@<TRIPOS>ATOM
      1 O          -4.0471   -0.7812   -0.1525 O.2     1  LIG1       -0.2870
      2 C          -2.8192   -0.7566   -0.1271 C.ar    1  LIG1        0.1931
      3 C          -2.0870    0.5141   -0.1379 C.ar    1  LIG1        0.0287
      4 C          -0.7446    0.5058   -0.1014 C.ar    1  LIG1        0.1393
      5 C           0.0378    1.7637   -0.0872 C.ar    1  LIG1        0.0211
      6 C           1.2862    1.8150    0.5550 C.ar    1  LIG1       -0.0474
      7 C           2.0379    2.9988    0.6001 C.ar    1  LIG1       -0.0156
      8 C           1.5502    4.1622    0.0099 C.ar    1  LIG1        0.1613
      9 O           2.1816    5.3783   -0.0152 O.3     1  LIG1       -0.4915
     10 C           3.4731    5.4309    0.5845 C.3     1  LIG1        0.0790
     11 C           0.3035    4.1143   -0.6192 C.ar    1  LIG1        0.1591
     12 O          -0.2554    5.2436   -1.1551 O.3     1  LIG1       -0.5033
     13 C          -0.4333    2.9353   -0.6966 C.ar    1  LIG1       -0.0059
     14 O           0.0192   -0.6548   -0.0368 O.2     1  LIG1       -0.4545
     15 C          -2.0126   -1.9787   -0.0857 C.ar    1  LIG1        0.0642
     16 C          -0.6272   -1.8666   -0.0424 C.ar    1  LIG1        0.1427
     17 C           0.1560   -3.0217   -0.0080 C.ar    1  LIG1        0.0231
     18 C          -0.4480   -4.2856   -0.0236 C.ar    1  LIG1        0.1236
     19 O           0.4185   -5.3451   -0.0003 O.3     1  LIG1       -0.4950
     20 C          -0.1671   -6.6424   -0.0544 C.3     1  LIG1        0.0788
     21 C          -1.8420   -4.3841   -0.0631 C.ar    1  LIG1       -0.0190
     22 C          -2.6264   -3.2310   -0.0933 C.ar    1  LIG1       -0.0439
     23 H          -2.6952    1.4084   -0.1631 H       1  LIG1        0.0693
     24 H           1.6889    0.9305    1.0458 H       1  LIG1        0.0626
     25 H           2.9916    2.9721    1.1162 H       1  LIG1        0.0655
     26 H           3.9015    6.4167    0.3802 H       1  LIG1        0.0660
     27 H           4.1518    4.6851    0.1559 H       1  LIG1        0.0660
     28 H           3.3949    5.3150    1.6704 H       1  LIG1        0.0660
     29 H           0.3064    5.9803   -0.8475 H       1  LIG1        0.2923
     30 H          -1.3803    2.9599   -1.2284 H       1  LIG1        0.0662
     31 H           1.2400   -2.9429    0.0250 H       1  LIG1        0.0691
     32 H           0.6404   -7.3800   -0.0600 H       1  LIG1        0.0660
     33 H          -0.7460   -6.7767   -0.9748 H       1  LIG1        0.0660
     34 H          -0.7847   -6.8298    0.8307 H       1  LIG1        0.0660
     35 H          -2.3522   -5.3415   -0.0734 H       1  LIG1        0.0654
     36 H          -3.7110   -3.3113   -0.1268 H       1  LIG1        0.0627
@<TRIPOS>BOND
     1     1     2    2
     2     2     3   ar
     3     3     4   ar
     4     4     5    1
     5     5     6   ar
     6     6     7   ar
     7     7     8   ar
     8     8     9    1
     9     9    10    1
    10     8    11   ar
    11    11    12    1
    12    11    13   ar
    13     5    13   ar
    14     4    14   ar
    15     2    15   ar
    16    15    16   ar
    17    14    16   ar
    18    16    17   ar
    19    17    18   ar
    20    18    19    1
    21    19    20    1
    22    18    21   ar
    23    21    22   ar
    24    15    22   ar
    25     3    23    1
    26     6    24    1
    27     7    25    1
    28    10    26    1
    29    10    27    1
    30    10    28    1
    31    12    29    1
    32    13    30    1
    33    17    31    1
    34    20    32    1
    35    20    33    1
    36    20    34    1
    37    21    35    1
    38    22    36    1
