REMARK  Name = NuBBE_1280
REMARK  4 active torsions:
REMARK  status: ('A' for Active; 'I' for Inactive)
REMARK    1  A    between atoms: O_1  and  C_2
REMARK    2  A    between atoms: O_1  and  C_3
REMARK    3  A    between atoms: C_6  and  O_12
REMARK    4  A    between atoms: O_12  and  C_13
REMARK                            x       y       z     vdW  Elec       q    Type
REMARK                         _______ _______ _______ _____ _____    ______ ____
ROOT
ATOM      1  C   LIG A   1      -1.556  -0.056   0.004  0.00  0.00    +0.206 A 
ATOM      2  C   LIG A   1      -0.789  -1.231  -0.022  0.00  0.00    +0.188 A 
ATOM      3  C   LIG A   1       0.607  -1.234  -0.093  0.00  0.00    +0.064 A 
ATOM      4  C   LIG A   1       1.310  -0.006  -0.131  0.00  0.00    +0.142 A 
ATOM      5  C   LIG A   1       0.573   1.208  -0.117  0.00  0.00    +0.066 A 
ATOM      6  C   LIG A   1      -0.824   1.139  -0.041  0.00  0.00    +0.183 A 
ATOM      7  O   LIG A   1      -1.348   2.401  -0.026  0.00  0.00    -0.459 OA
ATOM      8  C   LIG A   1      -0.322   3.276  -0.115  0.00  0.00    +0.196 A 
ATOM      9  C   LIG A   1       0.872   2.603  -0.186  0.00  0.00    +0.053 A 
ATOM     10  C   LIG A   1       1.292  -2.527  -0.114  0.00  0.00    +0.022 A 
ATOM     11  C   LIG A   1       0.597  -3.667  -0.074  0.00  0.00    +0.093 A 
ATOM     12  C   LIG A   1      -0.871  -3.691  -0.009  0.00  0.00    +0.337 A 
ATOM     13  O   LIG A   1      -1.480  -4.753   0.022  0.00  0.00    -0.245 OA
ATOM     14  O   LIG A   1      -1.503  -2.460   0.017  0.00  0.00    -0.418 OA
ENDROOT
BRANCH   1  15
ATOM     15  O   LIG A   1      -2.929  -0.215   0.065  0.00  0.00    -0.488 OA
ATOM     16  C   LIG A   1      -3.716   0.965  -0.017  0.00  0.00    +0.277 C 
ENDBRANCH   1  15
BRANCH   4  17
ATOM     17  O   LIG A   1       2.687  -0.108  -0.277  0.00  0.00    -0.494 OA
ATOM     18  C   LIG A   1       3.463   0.905   0.349  0.00  0.00    +0.277 C 
ENDBRANCH   4  17
TORSDOF 2
