REMARK  Name = NuBBE_1691
REMARK  16 active torsions:
REMARK  status: ('A' for Active; 'I' for Inactive)
REMARK    1  A    between atoms: C_1  and  C_2
REMARK    2  A    between atoms: C_2  and  C_3
REMARK    3  A    between atoms: C_3  and  C_4
REMARK    4  A    between atoms: C_5  and  C_6
REMARK    5  A    between atoms: C_6  and  C_7
REMARK    6  A    between atoms: C_8  and  C_9
REMARK    7  A    between atoms: C_9  and  C_10
REMARK    8  A    between atoms: C_10  and  C_11
REMARK    9  A    between atoms: C_11  and  C_12
REMARK   10  A    between atoms: C_12  and  C_13
REMARK   11  A    between atoms: C_13  and  C_14
REMARK   12  A    between atoms: C_14  and  C_15
REMARK   13  A    between atoms: C_15  and  C_16
REMARK   14  A    between atoms: C_20  and  O_21
REMARK   15  A    between atoms: C_22  and  C_23
REMARK   16  A    between atoms: C_23  and  O_24
REMARK                            x       y       z     vdW  Elec       q    Type
REMARK                         _______ _______ _______ _____ _____    ______ ____
ROOT
ATOM      1  C   LIG A   1       2.082  -0.394   3.583  0.00  0.00    +0.005 C 
ENDROOT
BRANCH   1   2
ATOM      2  C   LIG A   1       0.754  -0.049   2.915  0.00  0.00    +0.000 C 
BRANCH   2   3
ATOM      3  C   LIG A   1       0.042   1.156   3.525  0.00  0.00    +0.000 C 
BRANCH   3   4
ATOM      4  C   LIG A   1      -1.306   1.431   2.842  0.00  0.00    +0.000 C 
BRANCH   4   5
ATOM      5  C   LIG A   1      -1.202   1.807   1.352  0.00  0.00    +0.004 C 
BRANCH   5   6
ATOM      6  C   LIG A   1      -2.590   2.044   0.762  0.00  0.00    +0.027 C 
BRANCH   6   8
ATOM      7  C   LIG A   1      -1.894   2.635  -1.703  0.00  0.00    -0.027 C 
ATOM      8  C   LIG A   1      -2.754   2.405  -0.690  0.00  0.00    -0.031 C 
BRANCH   7   9
ATOM      9  C   LIG A   1      -0.403   2.603  -1.721  0.00  0.00    +0.054 C 
BRANCH   9  11
ATOM     10  C   LIG A   1       0.016   3.106  -4.292  0.00  0.00    -0.031 C 
ATOM     11  C   LIG A   1       0.301   3.078  -2.976  0.00  0.00    -0.027 C 
BRANCH  10  12
ATOM     12  C   LIG A   1      -1.190   2.675  -5.077  0.00  0.00    +0.026 C 
BRANCH  12  14
ATOM     13  C   LIG A   1      -2.334   0.814  -6.327  0.00  0.00    +0.004 C 
ATOM     14  C   LIG A   1      -1.073   1.239  -5.585  0.00  0.00    +0.001 C 
ENDBRANCH  12  14
ENDBRANCH  10  12
ENDBRANCH   9  11
ENDBRANCH   7   9
ENDBRANCH   6   8
ENDBRANCH   5   6
ENDBRANCH   4   5
ENDBRANCH   3   4
ENDBRANCH   2   3
ENDBRANCH   1   2
BRANCH   1  15
ATOM     15  C   LIG A   1       2.884  -1.429   2.783  0.00  0.00    +0.036 C 
BRANCH  15  16
ATOM     16  C   LIG A   1       2.335  -2.838   2.702  0.00  0.00    -0.030 A 
ATOM     17  C   LIG A   1       2.617  -3.737   3.747  0.00  0.00    +0.005 A 
ATOM     18  C   LIG A   1       2.300  -5.095   3.633  0.00  0.00    +0.004 A 
ATOM     19  C   LIG A   1       1.697  -5.584   2.475  0.00  0.00    +0.046 A 
ATOM     20  C   LIG A   1       1.357  -4.700   1.451  0.00  0.00    +0.131 A 
ATOM     21  C   LIG A   1       1.642  -3.333   1.575  0.00  0.00    +0.103 A 
BRANCH  20  22
ATOM     22  O   LIG A   1       0.771  -5.179   0.313  0.00  0.00    -0.506 OA
ATOM     23  H   LIG A   1       0.783  -6.151   0.329  0.00  0.00    +0.292 HD
ENDBRANCH  20  22
BRANCH  21  24
ATOM     24  C   LIG A   1       1.215  -2.431   0.494  0.00  0.00    +0.341 C 
ATOM     25  O   LIG A   1       1.897  -1.998  -0.414  0.00  0.00    -0.245 OA
BRANCH  24  26
ATOM     26  O   LIG A   1      -0.054  -2.035   0.707  0.00  0.00    -0.477 OA
ATOM     27  H   LIG A   1      -0.228  -1.376   0.005  0.00  0.00    +0.295 HD
ENDBRANCH  24  26
ENDBRANCH  21  24
ENDBRANCH  15  16
ENDBRANCH   1  15
TORSDOF 15
