REMARK  Name = NuBBE_2064
REMARK  6 active torsions:
REMARK  status: ('A' for Active; 'I' for Inactive)
REMARK    1  A    between atoms: C_1  and  O_2
REMARK    2  A    between atoms: O_2  and  C_3
REMARK    3  A    between atoms: C_15  and  O_16
REMARK    4  A    between atoms: O_16  and  C_17
REMARK    5  A    between atoms: C_18  and  O_19
REMARK    6  A    between atoms: O_19  and  C_20
REMARK                            x       y       z     vdW  Elec       q    Type
REMARK                         _______ _______ _______ _____ _____    ______ ____
ROOT
ATOM      1  C   LIG A   1       2.536  -1.582  -1.266  0.00  0.00    +0.143 C 
ATOM      2  C   LIG A   1       3.263  -0.578  -0.401  0.00  0.00    +0.004 C 
ATOM      3  C   LIG A   1       2.784   0.664  -0.206  0.00  0.00    +0.004 C 
ATOM      4  C   LIG A   1       1.541   0.997  -0.833  0.00  0.00    -0.026 C 
ATOM      5  C   LIG A   1       1.285   2.111  -1.536  0.00  0.00    -0.006 C 
ATOM      6  C   LIG A   1       0.059   1.892  -2.356  0.00  0.00    +0.113 C 
ATOM      7  N   LIG A   1      -0.112   0.425  -2.333  0.00  0.00    -0.285 NA
ATOM      8  C   LIG A   1      -1.466  -0.035  -2.603  0.00  0.00    +0.090 C 
ATOM      9  C   LIG A   1      -2.492   0.317  -1.526  0.00  0.00    +0.051 C 
ATOM     10  C   LIG A   1      -1.960   0.160  -0.128  0.00  0.00    -0.037 A 
ATOM     11  C   LIG A   1      -2.856   0.210   0.950  0.00  0.00    +0.053 A 
ATOM     12  C   LIG A   1      -2.417   0.160   2.281  0.00  0.00    +0.162 A 
ATOM     13  C   LIG A   1      -1.050   0.029   2.545  0.00  0.00    +0.162 A 
ATOM     14  C   LIG A   1      -0.160  -0.062   1.463  0.00  0.00    +0.055 A 
ATOM     15  C   LIG A   1      -0.587   0.033   0.121  0.00  0.00    -0.016 A 
ATOM     16  C   LIG A   1       0.446  -0.041  -1.029  0.00  0.00    +0.075 C 
ATOM     17  C   LIG A   1       1.009  -1.488  -1.096  0.00  0.00    +0.068 C 
ENDROOT
BRANCH   1  19
ATOM     18  C   LIG A   1       2.484  -2.264  -3.563  0.00  0.00    +0.194 C 
ATOM     19  O   LIG A   1       2.998  -1.358  -2.600  0.00  0.00    -0.376 OA
ENDBRANCH   1  19
BRANCH  12  20
ATOM     20  O   LIG A   1      -3.451   0.209   3.177  0.00  0.00    -0.491 OA
ATOM     21  C   LIG A   1      -3.200   0.805   4.441  0.00  0.00    +0.277 C 
ENDBRANCH  12  20
BRANCH  13  22
ATOM     22  O   LIG A   1      -0.614  -0.075   3.840  0.00  0.00    -0.491 OA
ATOM     23  C   LIG A   1       0.693   0.443   4.087  0.00  0.00    +0.277 C 
ENDBRANCH  13  22
TORSDOF 3
