REMARK  Name = NuBBE_396
REMARK  2 active torsions:
REMARK  status: ('A' for Active; 'I' for Inactive)
REMARK    1  A    between atoms: C_7  and  C_8
REMARK    2  A    between atoms: C_9  and  C_10
REMARK                            x       y       z     vdW  Elec       q    Type
REMARK                         _______ _______ _______ _____ _____    ______ ____
ROOT
ATOM      1  C   LIG A   1       0.122  -0.482  -1.032  0.00  0.00    +0.018 C 
ATOM      2  C   LIG A   1       0.333   0.617  -0.288  0.00  0.00    +0.007 C 
ENDROOT
BRANCH   1   9
ATOM      3  O   LIG A   1      -3.352   1.838  -1.460  0.00  0.00    -0.246 OA
ATOM      4  C   LIG A   1      -2.796   0.750  -1.520  0.00  0.00    +0.332 C 
ATOM      5  C   LIG A   1      -3.316  -0.397  -0.753  0.00  0.00    +0.087 C 
ATOM      6  C   LIG A   1      -2.873  -1.642  -0.963  0.00  0.00    -0.016 C 
ATOM      7  C   LIG A   1      -1.776  -1.903  -1.942  0.00  0.00    +0.076 C 
ATOM      8  O   LIG A   1      -1.710   0.532  -2.303  0.00  0.00    -0.454 OA
ATOM      9  C   LIG A   1      -0.906  -0.652  -2.131  0.00  0.00    +0.204 C 
ENDBRANCH   1   9
BRANCH   2  10
ATOM     10  C   LIG A   1       1.347   0.710   0.774  0.00  0.00    -0.025 A 
ATOM     11  C   LIG A   1       1.940   1.950   1.042  0.00  0.00    +0.008 A 
ATOM     12  C   LIG A   1       2.890   2.082   2.059  0.00  0.00    +0.001 A 
ATOM     13  C   LIG A   1       3.250   0.976   2.825  0.00  0.00    +0.000 A 
ATOM     14  C   LIG A   1       2.653  -0.259   2.584  0.00  0.00    +0.001 A 
ATOM     15  C   LIG A   1       1.701  -0.389   1.571  0.00  0.00    +0.008 A 
ENDBRANCH   2  10
TORSDOF 2
