REMARK  Name = NuBBE_1335
REMARK  12 active torsions:
REMARK  status: ('A' for Active; 'I' for Inactive)
REMARK    1  A    between atoms: C_1  and  C_2
REMARK    2  A    between atoms: C_2  and  C_3
REMARK    3  A    between atoms: C_6  and  C_7
REMARK    4  A    between atoms: C_8  and  C_9
REMARK    5  A    between atoms: C_9  and  O_10
REMARK    6  A    between atoms: O_10  and  C_11
REMARK    7  A    between atoms: C_16  and  C_17
REMARK    8  A    between atoms: C_19  and  O_21
REMARK    9  A    between atoms: O_21  and  C_22
REMARK   10  A    between atoms: C_22  and  C_23
REMARK   11  A    between atoms: C_26  and  C_27
REMARK   12  A    between atoms: C_34  and  C_36
REMARK                            x       y       z     vdW  Elec       q    Type
REMARK                         _______ _______ _______ _____ _____    ______ ____
ROOT
ATOM      1  C   LIG A   1       0.970  -2.873  -4.403  0.00  0.00    +0.056 C 
ATOM      2  C   LIG A   1       1.188  -1.488  -3.767  0.00  0.00    +0.113 C 
ATOM      3  C   LIG A   1       2.560  -0.991  -4.255  0.00  0.00    +0.056 C 
ATOM      4  O   LIG A   1       0.165  -0.607  -4.261  0.00  0.00    -0.458 OA
ATOM      5  C   LIG A   1      -0.245   0.268  -3.292  0.00  0.00    +0.319 C 
ATOM      6  C   LIG A   1       0.512   0.035  -1.980  0.00  0.00    +0.100 C 
ATOM      7  C   LIG A   1       1.007  -1.415  -2.224  0.00  0.00    +0.060 C 
ATOM      8  C   LIG A   1       0.052  -2.524  -1.712  0.00  0.00    +0.083 C 
ATOM      9  C   LIG A   1      -0.810  -2.231  -0.497  0.00  0.00    +0.143 C 
ATOM     10  C   LIG A   1      -1.470  -0.862  -0.434  0.00  0.00    +0.066 C 
ATOM     11  C   LIG A   1      -2.511  -0.876  -1.593  0.00  0.00    +0.022 C 
ATOM     12  C   LIG A   1      -0.356   0.217  -0.671  0.00  0.00    +0.067 C 
ATOM     13  C   LIG A   1       0.548   0.313   0.605  0.00  0.00    +0.183 C 
ATOM     14  C   LIG A   1      -0.286   0.796   1.799  0.00  0.00    +0.058 C 
ATOM     15  C   LIG A   1      -1.443  -0.142   2.198  0.00  0.00    +0.045 C 
ATOM     16  C   LIG A   1      -0.903  -1.360   2.993  0.00  0.00    +0.018 C 
ATOM     17  C   LIG A   1      -2.209  -0.589   0.929  0.00  0.00    +0.129 C 
ATOM     18  O   LIG A   1      -3.414   0.171   0.684  0.00  0.00    -0.351 OA
ATOM     19  C   LIG A   1      -3.593  -1.137   1.238  0.00  0.00    +0.260 C 
ATOM     20  C   LIG A   1      -4.153  -1.124   2.614  0.00  0.00    +0.340 C 
ATOM     21  O   LIG A   1      -3.572  -0.273   3.511  0.00  0.00    -0.454 OA
ATOM     22  C   LIG A   1      -2.488   0.615   3.126  0.00  0.00    +0.218 C 
ATOM     23  O   LIG A   1      -5.071  -1.863   2.917  0.00  0.00    -0.248 OA
ATOM     24  O   LIG A   1      -1.078  -3.127   0.303  0.00  0.00    -0.297 OA
ATOM     25  O   LIG A   1      -1.097   1.124  -3.477  0.00  0.00    -0.250 OA
ENDROOT
BRANCH  22  26
ATOM     26  C   LIG A   1      -1.909   1.248   4.366  0.00  0.00    +0.031 A 
ATOM     27  C   LIG A   1      -1.895   0.730   5.647  0.00  0.00    +0.202 A 
ATOM     28  O   LIG A   1      -1.322   1.596   6.519  0.00  0.00    -0.471 OA
ATOM     29  C   LIG A   1      -0.980   2.700   5.811  0.00  0.00    +0.195 A 
ATOM     30  C   LIG A   1      -1.328   2.547   4.490  0.00  0.00    +0.048 A 
ENDBRANCH  22  26
BRANCH   6  31
ATOM     31  C   LIG A   1       1.623   1.108  -2.001  0.00  0.00    -0.001 C 
ATOM     32  C   LIG A   1       1.394   2.439  -2.081  0.00  0.00    +0.088 C 
BRANCH  32  33
ATOM     33  C   LIG A   1       2.467   3.450  -1.944  0.00  0.00    +0.331 C 
ATOM     34  O   LIG A   1       3.670   3.250  -1.978  0.00  0.00    -0.246 OA
BRANCH  33  35
ATOM     35  O   LIG A   1       1.821   4.630  -1.695  0.00  0.00    -0.465 OA
ATOM     36  C   LIG A   1       2.623   5.681  -1.151  0.00  0.00    +0.280 C 
ENDBRANCH  33  35
ENDBRANCH  32  33
ENDBRANCH   6  31
BRANCH  13  37
ATOM     37  O   LIG A   1       1.099  -0.989   0.873  0.00  0.00    -0.461 OA
BRANCH  37  38
ATOM     38  C   LIG A   1       2.442  -1.181   0.903  0.00  0.00    +0.304 C 
ATOM     39  C   LIG A   1       2.747  -2.654   0.897  0.00  0.00    +0.136 C 
ATOM     40  O   LIG A   1       3.281  -0.299   0.824  0.00  0.00    -0.251 OA
ENDBRANCH  37  38
ENDBRANCH  13  37
TORSDOF 6
