@<TRIPOS>MOLECULE
NuBBE_281
 72 76 0 0 0
SMALL
GASTEIGER

@<TRIPOS>ATOM
      1 O          -2.0439   -3.4350    2.3000 O.3     1  LIG1       -0.5058
      2 C          -1.3044   -2.7395    3.2175 C.ar    1  LIG1        0.1348
      3 C          -0.9989   -1.3811    3.0779 C.ar    1  LIG1        0.1092
      4 C          -1.3508   -0.6135    1.8743 C.ar    1  LIG1        0.2382
      5 C          -0.8600    0.8049    1.7684 C.ar    1  LIG1        0.2138
      6 O          -0.9929    1.3577    0.5049 O.3     1  LIG1       -0.4532
      7 C          -0.0883    2.3472    0.0053 C.3     1  LIG1        0.2311
      8 H          -0.2650    3.2707    0.5391 H       1  LIG1        0.1084
      9 O          -0.4294    2.7685   -1.3365 O.3     1  LIG1       -0.3313
     10 C          -0.0381    1.8983   -2.4048 C.3     1  LIG1        0.1144
     11 H          -0.1336    2.5009   -3.3195 H       1  LIG1        0.0647
     12 C           1.4640    1.5371   -2.3286 C.3     1  LIG1        0.1120
     13 H           2.0254    2.4603   -2.5227 H       1  LIG1        0.0647
     14 C           1.8776    1.0441   -0.9412 C.3     1  LIG1        0.1152
     15 H           2.9704    0.9453   -0.9288 H       1  LIG1        0.0648
     16 O           1.3364   -0.2498   -0.6757 O.3     1  LIG1       -0.3864
     17 O           1.8979    0.6047   -3.3182 O.3     1  LIG1       -0.3865
     18 C          -1.0373    0.7416   -2.6066 C.3     1  LIG1        0.0796
     19 O          -0.6048   -0.0897   -3.6913 O.3     1  LIG1       -0.3461
     20 C          -1.4928   -1.1788   -3.9447 C.3     1  LIG1        0.1879
     21 H          -2.5062   -0.8001   -4.1228 H       1  LIG1        0.0937
     22 O          -1.5637   -2.0939   -2.8437 O.3     1  LIG1       -0.3431
     23 C          -0.2905   -2.6284   -2.4655 C.3     1  LIG1        0.0873
     24 H           0.3344   -1.8158   -2.0951 H       1  LIG1        0.0621
     25 C           0.4378   -3.3336   -3.6222 C.3     1  LIG1        0.1095
     26 H          -0.0180   -4.3116   -3.8138 H       1  LIG1        0.0646
     27 C           0.3896   -2.5038   -4.9121 C.3     1  LIG1        0.1140
     28 H           1.0831   -1.6596   -4.8320 H       1  LIG1        0.0648
     29 O           0.8855   -3.2852   -6.0063 O.3     1  LIG1       -0.3864
     30 O           1.8125   -3.5872   -3.2873 O.3     1  LIG1       -0.3866
     31 C          -0.5265   -3.5794   -1.2997 C.3     1  LIG1       -0.0361
     32 C          -1.0299   -1.9802   -5.1804 C.3     1  LIG1        0.1341
     33 H          -1.0227   -1.3575   -6.0810 H       1  LIG1        0.0671
     34 O          -1.9478   -3.0646   -5.4150 O.3     1  LIG1       -0.3841
     35 C           1.4231    2.0374    0.1223 C.3     1  LIG1        0.1454
     36 H           1.6608    1.6252    1.1059 H       1  LIG1        0.0683
     37 O           2.1929    3.2468   -0.0136 O.3     1  LIG1       -0.3829
     38 C          -0.4106    1.3597    2.9249 C.ar    1  LIG1        0.1809
     39 O          -0.1179    0.6250    4.0738 O.2     1  LIG1       -0.4507
     40 C          -0.3149   -0.7267    4.0883 C.ar    1  LIG1        0.1465
     41 C           0.1589   -1.4328    5.1988 C.ar    1  LIG1        0.0231
     42 C          -0.1035   -2.7961    5.3008 C.ar    1  LIG1        0.1239
     43 O           0.3584   -3.5346    6.3497 O.3     1  LIG1       -0.5065
     44 C          -0.8585   -3.4489    4.3320 C.ar    1  LIG1        0.0223
     45 C          -0.1765    2.8067    3.1702 C.ar    1  LIG1        0.0213
     46 C           0.8738    3.2310    4.0035 C.ar    1  LIG1       -0.0475
     47 C           1.1085    4.5908    4.2344 C.ar    1  LIG1       -0.0195
     48 C           0.3082    5.5370    3.6079 C.ar    1  LIG1        0.1169
     49 C          -0.7608    5.1451    2.8169 C.ar    1  LIG1       -0.0195
     50 C          -1.0387    3.7864    2.6543 C.ar    1  LIG1       -0.0475
     51 O           0.5308    6.8723    3.7543 O.3     1  LIG1       -0.5068
     52 O          -2.0220   -1.1434    1.0028 O.2     1  LIG1       -0.2830
     53 H          -2.3198   -2.8113    1.5905 H       1  LIG1        0.2922
     54 H           2.0299   -0.7661   -0.2269 H       1  LIG1        0.2100
     55 H           1.1435    0.0005   -3.4547 H       1  LIG1        0.2100
     56 H          -1.1459    0.1499   -1.6957 H       1  LIG1        0.0587
     57 H          -2.0226    1.1629   -2.8440 H       1  LIG1        0.0587
     58 H           1.6520   -3.7822   -5.6616 H       1  LIG1        0.2100
     59 H           2.2358   -2.7331   -3.0801 H       1  LIG1        0.2100
     60 H          -1.0120   -3.0515   -0.4744 H       1  LIG1        0.0255
     61 H           0.4086   -4.0105   -0.9322 H       1  LIG1        0.0255
     62 H          -1.2032   -4.3895   -1.5916 H       1  LIG1        0.0255
     63 H          -2.2213   -3.4039   -4.5411 H       1  LIG1        0.2101
     64 H           1.6797    3.8744   -0.5591 H       1  LIG1        0.2102
     65 H           0.7186   -0.9119    5.9695 H       1  LIG1        0.0691
     66 H           0.9390   -2.9877    6.9042 H       1  LIG1        0.2921
     67 H          -1.0899   -4.5055    4.4386 H       1  LIG1        0.0691
     68 H           1.5223    2.5058    4.4917 H       1  LIG1        0.0626
     69 H           1.9194    4.8864    4.8929 H       1  LIG1        0.0654
     70 H          -1.3774    5.8917    2.3240 H       1  LIG1        0.0654
     71 H          -1.9075    3.5063    2.0596 H       1  LIG1        0.0626
     72 H           1.2697    7.0016    4.3712 H       1  LIG1        0.2921
@<TRIPOS>BOND
     1     1     2    1
     2     2     3   ar
     3     3     4   ar
     4     4     5   ar
     5     5     6    1
     6     7     9    1
     7     9    10    1
     8    10    12    1
     9    12    14    1
    10    18    19    1
    11    19    20    1
    12    20    21    1
    13    20    22    1
    14    22    23    1
    15    23    24    1
    16    23    25    1
    17    25    27    1
    18    27    28    1
    19    27    29    1
    20    23    31    1
    21    20    32    1
    22    27    32    1
    23     7    35    1
    24    14    35    1
    25     5    38   ar
    26    38    39   ar
    27    39    40   ar
    28     3    40   ar
    29    40    41   ar
    30    41    42   ar
    31    42    43    1
    32    42    44   ar
    33     2    44   ar
    34    38    45    1
    35    45    46   ar
    36    46    47   ar
    37    47    48   ar
    38    48    49   ar
    39    49    50   ar
    40    45    50   ar
    41    48    51    1
    42     4    52    2
    43     7     8    1
    44     7     6    1
    45    10    18    1
    46    10    11    1
    47    12    17    1
    48    12    13    1
    49    14    16    1
    50    14    15    1
    51    25    30    1
    52    25    26    1
    53    32    34    1
    54    32    33    1
    55    35    37    1
    56    35    36    1
    57     1    53    1
    58    16    54    1
    59    17    55    1
    60    18    56    1
    61    18    57    1
    62    29    58    1
    63    30    59    1
    64    31    60    1
    65    31    61    1
    66    31    62    1
    67    34    63    1
    68    37    64    1
    69    41    65    1
    70    43    66    1
    71    44    67    1
    72    46    68    1
    73    47    69    1
    74    49    70    1
    75    50    71    1
    76    51    72    1
