REMARK  Name = NuBBE_981
REMARK  19 active torsions:
REMARK  status: ('A' for Active; 'I' for Inactive)
REMARK    1  A    between atoms: C_2  and  C_30
REMARK    2  A    between atoms: N_3  and  C_4
REMARK    3  A    between atoms: C_4  and  C_5
REMARK    4  A    between atoms: C_5  and  C_6
REMARK    5  A    between atoms: C_9  and  O_10
REMARK    6  A    between atoms: O_10  and  C_11
REMARK    7  A    between atoms: C_11  and  C_12
REMARK    8  A    between atoms: C_13  and  C_14
REMARK    9  A    between atoms: C_13  and  C_15
REMARK   10  A    between atoms: C_15  and  O_16
REMARK   11  A    between atoms: C_15  and  C_17
REMARK   12  A    between atoms: C_17  and  C_18
REMARK   13  A    between atoms: C_18  and  O_19
REMARK   14  A    between atoms: C_18  and  C_23
REMARK   15  A    between atoms: O_19  and  C_20
REMARK   16  A    between atoms: C_20  and  C_21
REMARK   17  A    between atoms: C_23  and  C_24
REMARK   18  A    between atoms: C_23  and  C_25
REMARK   19  A    between atoms: C_23  and  O_26
REMARK                            x       y       z     vdW  Elec       q    Type
REMARK                         _______ _______ _______ _____ _____    ______ ____
ROOT
ATOM      1  O   LIG A   1      -1.303  -2.227   1.558  0.00  0.00    -0.488 OA
ENDROOT
BRANCH   1   5
ATOM      2  C   LIG A   1      -5.284  -1.090   2.289  0.00  0.00    -0.046 A 
ATOM      3  C   LIG A   1      -4.967  -2.104   1.374  0.00  0.00    +0.007 A 
ATOM      4  C   LIG A   1      -3.639  -2.538   1.209  0.00  0.00    +0.046 A 
ATOM      5  C   LIG A   1      -2.603  -1.902   1.897  0.00  0.00    +0.121 A 
ATOM      6  C   LIG A   1      -2.932  -0.981   2.893  0.00  0.00    +0.046 A 
ATOM      7  C   LIG A   1      -4.259  -0.590   3.098  0.00  0.00    +0.007 A 
BRANCH   2   8
ATOM      8  C   LIG A   1      -6.698  -0.564   2.417  0.00  0.00    +0.054 C 
BRANCH   8   9
ATOM      9  C   LIG A   1      -6.820   0.960   2.258  0.00  0.00    +0.109 C 
BRANCH   9  12
ATOM     10  O   LIG A   1      -5.741   3.522   1.731  0.00  0.00    -0.270 OA
ATOM     11  C   LIG A   1      -5.846   2.715   0.792  0.00  0.00    +0.244 C 
ATOM     12  N   LIG A   1      -6.361   1.432   0.961  0.00  0.00    -0.311 N 
ATOM     13  H   LIG A   1      -6.579   0.871   0.160  0.00  0.00    +0.149 HD
BRANCH  11  14
ATOM     14  C   LIG A   1      -5.422   3.130  -0.578  0.00  0.00    +0.037 A 
ATOM     15  C   LIG A   1      -5.457   2.246  -1.685  0.00  0.00    +0.013 A 
ATOM     16  C   LIG A   1      -5.094   2.696  -2.957  0.00  0.00    +0.001 A 
ATOM     17  C   LIG A   1      -4.653   4.003  -3.148  0.00  0.00    +0.000 A 
ATOM     18  C   LIG A   1      -4.574   4.872  -2.059  0.00  0.00    +0.001 A 
ATOM     19  C   LIG A   1      -4.964   4.440  -0.792  0.00  0.00    +0.013 A 
ENDBRANCH  11  14
ENDBRANCH   9  12
ENDBRANCH   8   9
ENDBRANCH   2   8
ENDBRANCH   1   5
BRANCH   1  20
ATOM     20  C   LIG A   1      -0.415  -1.089   1.587  0.00  0.00    +0.257 C 
BRANCH  20  21
ATOM     21  C   LIG A   1       0.981  -1.463   1.146  0.00  0.00    +0.015 C 
ATOM     22  C   LIG A   1       1.737  -0.885   0.182  0.00  0.00    -0.045 C 
ATOM     23  C   LIG A   1       1.243   0.194  -0.755  0.00  0.00    +0.041 C 
BRANCH  22  24
ATOM     24  C   LIG A   1       3.135  -1.395  -0.138  0.00  0.00    +0.144 C 
BRANCH  24  25
ATOM     25  O   LIG A   1       3.003  -1.898  -1.465  0.00  0.00    -0.387 OA
ATOM     26  H   LIG A   1       2.314  -2.586  -1.428  0.00  0.00    +0.210 HD
ENDBRANCH  24  25
BRANCH  24  27
ATOM     27  C   LIG A   1       4.294  -0.359  -0.061  0.00  0.00    +0.083 C 
BRANCH  27  28
ATOM     28  C   LIG A   1       5.710  -0.973  -0.324  0.00  0.00    +0.210 C 
BRANCH  28  29
ATOM     29  C   LIG A   1       6.909  -0.000  -0.018  0.00  0.00    +0.097 C 
ATOM     30  C   LIG A   1       8.276  -0.624  -0.379  0.00  0.00    +0.045 C 
ATOM     31  C   LIG A   1       6.805   1.361  -0.715  0.00  0.00    +0.045 C 
BRANCH  29  32
ATOM     32  O   LIG A   1       6.919   0.289   1.392  0.00  0.00    -0.386 OA
ATOM     33  H   LIG A   1       7.367  -0.442   1.853  0.00  0.00    +0.210 HD
ENDBRANCH  29  32
ENDBRANCH  28  29
BRANCH  28  34
ATOM     34  O   LIG A   1       5.765  -1.417  -1.701  0.00  0.00    -0.459 OA
BRANCH  34  35
ATOM     35  C   LIG A   1       5.449  -2.719  -1.910  0.00  0.00    +0.304 C 
ATOM     36  C   LIG A   1       4.975  -2.920  -3.333  0.00  0.00    +0.136 C 
ATOM     37  O   LIG A   1       5.403  -3.606  -1.048  0.00  0.00    -0.251 OA
ENDBRANCH  34  35
ENDBRANCH  28  34
ENDBRANCH  27  28
ENDBRANCH  24  27
ENDBRANCH  22  24
ENDBRANCH  20  21
ENDBRANCH   1  20
TORSDOF 15
