@<TRIPOS>MOLECULE
NuBBE_1622
 34 36 0 0 0
SMALL
GASTEIGER

@<TRIPOS>ATOM
      1 O          -0.5765    0.5878   -0.0957 O.3     1  LIG1       -0.4810
      2 C          -1.2388   -0.6756   -0.2246 C.3     1  LIG1        0.1084
      3 C          -2.7172   -0.4326   -0.3410 C.2     1  LIG1       -0.0484
      4 C          -3.6643   -1.3715   -0.5456 C.2     1  LIG1       -0.0765
      5 C          -3.3870   -2.8365   -0.7519 C.3     1  LIG1       -0.0439
      6 C          -5.1235   -1.0024   -0.5537 C.3     1  LIG1       -0.0439
      7 C           0.7955    0.5384    0.0950 C.ar    1  LIG1        0.2066
      8 C           1.4803    1.7589    0.2523 C.ar    1  LIG1        0.1842
      9 C           2.8550    1.8378    0.5029 C.ar    1  LIG1        0.0221
     10 C           3.6151    0.6651    0.6057 C.ar    1  LIG1       -0.0401
     11 C           2.9789   -0.5753    0.4185 C.ar    1  LIG1        0.0246
     12 C           1.6081   -0.6046    0.1614 C.ar    1  LIG1        0.1799
     13 O           1.2129   -1.9031   -0.0041 O.2     1  LIG1       -0.4591
     14 C           2.3009   -2.6924    0.1631 C.ar    1  LIG1        0.0933
     15 C           3.4090   -1.9298    0.4384 C.ar    1  LIG1       -0.0160
     16 C           3.4849    3.1396    0.6600 C.ar    1  LIG1       -0.0442
     17 C           2.7545    4.2474    0.5220 C.ar    1  LIG1        0.0236
     18 C           1.3142    4.2120    0.2215 C.ar    1  LIG1        0.3373
     19 O           0.6834    5.2573    0.0685 O.2     1  LIG1       -0.2452
     20 O           0.7277    2.9614    0.1335 O.2     1  LIG1       -0.4183
     21 H          -1.0721   -1.2780    0.6767 H       1  LIG1        0.0742
     22 H          -0.8790   -1.1803   -1.1275 H       1  LIG1        0.0742
     23 H          -3.0243    0.6038   -0.2119 H       1  LIG1        0.0605
     24 H          -2.3238   -3.0849   -0.6903 H       1  LIG1        0.0274
     25 H          -3.7432   -3.1504   -1.7391 H       1  LIG1        0.0274
     26 H          -3.9079   -3.4328    0.0050 H       1  LIG1        0.0274
     27 H          -5.2818    0.0595   -0.3384 H       1  LIG1        0.0274
     28 H          -5.6599   -1.5743    0.2114 H       1  LIG1        0.0274
     29 H          -5.5697   -1.2203   -1.5288 H       1  LIG1        0.0274
     30 H           4.6801    0.7022    0.8158 H       1  LIG1        0.0632
     31 H           2.1256   -3.7546    0.0644 H       1  LIG1        0.1030
     32 H           4.4052   -2.3021    0.6290 H       1  LIG1        0.0655
     33 H           4.5446    3.1941    0.8838 H       1  LIG1        0.0627
     34 H           3.1933    5.2363    0.6236 H       1  LIG1        0.0689
@<TRIPOS>BOND
     1     1     2    1
     2     2     3    1
     3     3     4    2
     4     4     5    1
     5     4     6    1
     6     1     7    1
     7     7     8   ar
     8     8     9   ar
     9     9    10   ar
    10    10    11   ar
    11    11    12   ar
    12     7    12   ar
    13    12    13   ar
    14    13    14   ar
    15    14    15   ar
    16    11    15   ar
    17     9    16   ar
    18    16    17   ar
    19    17    18   ar
    20    18    19    2
    21    18    20   ar
    22     8    20   ar
    23     2    21    1
    24     2    22    1
    25     3    23    1
    26     5    24    1
    27     5    25    1
    28     5    26    1
    29     6    27    1
    30     6    28    1
    31     6    29    1
    32    10    30    1
    33    14    31    1
    34    15    32    1
    35    16    33    1
    36    17    34    1
