@<TRIPOS>MOLECULE
NuBBE_596
 34 35 0 0 0
SMALL
GASTEIGER

@<TRIPOS>ATOM
      1 O          -3.1909    0.4062    0.2456 O.2     1  LIG1       -0.2833
      2 C          -1.9795    0.4756    0.0287 C.ar    1  LIG1        0.2310
      3 C          -1.1120   -0.7306   -0.1806 C.ar    1  LIG1        0.1865
      4 O          -1.6213   -2.0230   -0.2690 O.3     1  LIG1       -0.4897
      5 C          -3.0293   -2.2052   -0.2091 C.3     1  LIG1        0.0790
      6 C           0.2296   -0.5387   -0.2695 C.ar    1  LIG1        0.0648
      7 C           1.1067   -1.7841   -0.4790 C.3     1  LIG1       -0.0089
      8 C           1.5260   -2.4464    0.8418 C.3     1  LIG1       -0.0504
      9 C           2.3950   -3.6791    0.6194 C.3     1  LIG1       -0.0649
     10 N           0.8429    0.7336   -0.2093 N.ar    1  LIG1       -0.3437
     11 C           2.2889    0.9674   -0.2901 C.3     1  LIG1        0.0122
     12 C           0.0439    1.9105   -0.1419 C.ar    1  LIG1        0.0529
     13 C           0.5725    3.2183   -0.1832 C.ar    1  LIG1       -0.0375
     14 C          -0.2453    4.3552   -0.1181 C.ar    1  LIG1       -0.0598
     15 C          -1.6219    4.2196   -0.0113 C.ar    1  LIG1       -0.0610
     16 C          -2.1757    2.9460    0.0334 C.ar    1  LIG1       -0.0488
     17 C          -1.3501    1.8068   -0.0310 C.ar    1  LIG1        0.0489
     18 H          -3.5437   -1.6367   -0.9904 H       1  LIG1        0.0660
     19 H          -3.4086   -1.9686    0.7898 H       1  LIG1        0.0660
     20 H          -3.2360   -3.2638   -0.3941 H       1  LIG1        0.0660
     21 H           1.9852   -1.5488   -1.0886 H       1  LIG1        0.0329
     22 H           0.5727   -2.5244   -1.0896 H       1  LIG1        0.0329
     23 H           0.6356   -2.7514    1.4051 H       1  LIG1        0.0266
     24 H           2.0734   -1.7336    1.4685 H       1  LIG1        0.0266
     25 H           1.8525   -4.4512    0.0639 H       1  LIG1        0.0230
     26 H           2.6944   -4.1094    1.5815 H       1  LIG1        0.0230
     27 H           3.3051   -3.4306    0.0646 H       1  LIG1        0.0230
     28 H           2.8891    0.0567   -0.2569 H       1  LIG1        0.0456
     29 H           2.6335    1.5677    0.5607 H       1  LIG1        0.0456
     30 H           2.5426    1.4826   -1.2248 H       1  LIG1        0.0456
     31 H           1.6394    3.3997   -0.2710 H       1  LIG1        0.0638
     32 H           0.2013    5.3463   -0.1520 H       1  LIG1        0.0618
     33 H          -2.2609    5.0974    0.0380 H       1  LIG1        0.0618
     34 H          -3.2553    2.8360    0.1185 H       1  LIG1        0.0625
@<TRIPOS>BOND
     1     1     2    2
     2     2     3   ar
     3     3     4    1
     4     4     5    1
     5     3     6   ar
     6     6     7    1
     7     7     8    1
     8     8     9    1
     9     6    10   ar
    10    10    11    1
    11    10    12   ar
    12    12    13   ar
    13    13    14   ar
    14    14    15   ar
    15    15    16   ar
    16    16    17   ar
    17    12    17   ar
    18     2    17   ar
    19     5    18    1
    20     5    19    1
    21     5    20    1
    22     7    21    1
    23     7    22    1
    24     8    23    1
    25     8    24    1
    26     9    25    1
    27     9    26    1
    28     9    27    1
    29    11    28    1
    30    11    29    1
    31    11    30    1
    32    13    31    1
    33    14    32    1
    34    15    33    1
    35    16    34    1
