@<TRIPOS>MOLECULE
NuBBE_235
 72 74 0 0 0
SMALL
GASTEIGER

@<TRIPOS>ATOM
      1 C          -2.2063    0.8961    2.4861 C.3     1  LIG1       -0.0585
      2 C          -2.0301    0.9269    0.9603 C.3     1  LIG1       -0.0007
      3 H          -2.7446    1.6976    0.6359 H       1  LIG1        0.0339
      4 C          -2.5743   -0.4159    0.4728 C.3     1  LIG1        0.1072
      5 H          -3.4247   -0.7355    1.0909 H       1  LIG1        0.0737
      6 O          -3.0576   -0.2905   -0.8595 O.3     1  LIG1       -0.4610
      7 C          -4.3523    0.1019   -1.0519 C.2     1  LIG1        0.3073
      8 C          -4.6359    0.2874   -2.5290 C.3     1  LIG1        0.0447
      9 C          -3.8317   -0.6305   -3.4498 C.3     1  LIG1       -0.0458
     10 C          -2.3449   -0.3402   -3.4531 C.3     1  LIG1       -0.0648
     11 O          -5.1468    0.3637   -0.1680 O.2     1  LIG1       -0.2508
     12 C          -1.5470   -1.5419    0.5862 C.3     1  LIG1        0.0016
     13 C          -0.0746   -1.2778    0.1426 C.3     1  LIG1        0.0830
     14 C           0.3057   -2.3755   -0.8234 C.2     1  LIG1        0.0488
     15 C           0.4922   -3.5676   -0.0431 C.2     1  LIG1        0.3386
     16 O           0.7555   -3.2203    1.2438 O.3     1  LIG1       -0.4204
     17 C           0.9214   -1.8091    1.2326 C.3     1  LIG1        0.2594
     18 H           0.6714   -1.4414    2.2277 H       1  LIG1        0.1216
     19 O           2.2815   -1.4787    0.8843 O.3     1  LIG1       -0.4239
     20 C           3.1988   -1.8098    1.8318 C.2     1  LIG1        0.3069
     21 C           4.5379   -2.0296    1.1886 C.3     1  LIG1        0.0333
     22 O           2.9735   -1.9833    3.0011 O.2     1  LIG1       -0.2511
     23 O           0.4009   -4.7449   -0.4624 O.2     1  LIG1       -0.2452
     24 C           0.7057   -2.2589   -2.0756 C.2     1  LIG1       -0.0449
     25 C           0.8562   -0.9395   -2.7655 C.3     1  LIG1        0.0775
     26 H           0.1902   -0.9622   -3.6314 H       1  LIG1        0.0640
     27 O           2.1909   -0.8998   -3.2907 O.3     1  LIG1       -0.3757
     28 C           2.4408    0.1997   -4.1639 C.3     1  LIG1        0.0372
     29 C           0.5445    0.2997   -1.8835 C.3     1  LIG1       -0.0186
     30 C           0.2379    0.1565   -0.3512 C.3     1  LIG1       -0.0155
     31 H           1.2508    0.3553    0.0233 H       1  LIG1        0.0318
     32 C          -0.6102    1.3488    0.3381 C.3     1  LIG1       -0.0187
     33 C          -0.9047    2.5134   -0.6832 C.3     1  LIG1       -0.0586
     34 C           0.3203    2.0560    1.4037 C.3     1  LIG1       -0.0282
     35 C           0.8002    1.2148    2.5545 C.2     1  LIG1       -0.0806
     36 C           1.8926    1.2888    3.3318 C.2     1  LIG1       -0.0549
     37 C           2.9744    2.2298    3.1629 C.2     1  LIG1       -0.0662
     38 C           2.8192    3.5039    2.7870 C.2     1  LIG1       -0.0985
     39 C           2.0442    0.3120    4.4803 C.3     1  LIG1       -0.0400
     40 H          -1.6847    0.0527    2.9436 H       1  LIG1        0.0234
     41 H          -3.2584    0.7251    2.7436 H       1  LIG1        0.0234
     42 H          -1.9167    1.8360    2.9574 H       1  LIG1        0.0234
     43 H          -4.4560    1.3391   -2.7771 H       1  LIG1        0.0377
     44 H          -5.7002    0.0787   -2.6914 H       1  LIG1        0.0377
     45 H          -4.1876   -0.5033   -4.4767 H       1  LIG1        0.0268
     46 H          -3.9914   -1.6773   -3.1683 H       1  LIG1        0.0268
     47 H          -2.1407    0.7288   -3.5659 H       1  LIG1        0.0230
     48 H          -1.8524   -0.8939   -4.2522 H       1  LIG1        0.0230
     49 H          -1.8677   -0.6870   -2.5375 H       1  LIG1        0.0230
     50 H          -1.9610   -2.4066    0.0485 H       1  LIG1        0.0312
     51 H          -1.5324   -1.8389    1.6430 H       1  LIG1        0.0312
     52 H           5.1407   -2.6226    1.8817 H       1  LIG1        0.0342
     53 H           5.0460   -1.0902    0.9656 H       1  LIG1        0.0342
     54 H           4.3972   -2.6242    0.2829 H       1  LIG1        0.0342
     55 H           1.0215   -3.1463   -2.6280 H       1  LIG1        0.0603
     56 H           2.4762    1.1371   -3.6042 H       1  LIG1        0.0524
     57 H           1.6922    0.2725   -4.9599 H       1  LIG1        0.0524
     58 H           3.4275    0.0640   -4.6144 H       1  LIG1        0.0524
     59 H          -0.2433    0.8512   -2.3965 H       1  LIG1        0.0296
     60 H           1.4090    0.9733   -1.9227 H       1  LIG1        0.0296
     61 H          -1.8016    2.3242   -1.2841 H       1  LIG1        0.0235
     62 H          -0.0708    2.7081   -1.3667 H       1  LIG1        0.0235
     63 H          -1.0697    3.4666   -0.1626 H       1  LIG1        0.0235
     64 H           1.1759    2.4850    0.8662 H       1  LIG1        0.0313
     65 H          -0.2331    2.9026    1.8321 H       1  LIG1        0.0313
     66 H           0.1293    0.4318    2.8508 H       1  LIG1        0.0575
     67 H           3.9721    1.8598    3.3938 H       1  LIG1        0.0614
     68 H           1.8409    3.9224    2.5779 H       1  LIG1        0.0535
     69 H           3.6710    4.1628    2.6785 H       1  LIG1        0.0535
     70 H           1.2701   -0.4681    4.4632 H       1  LIG1        0.0277
     71 H           1.9607    0.8236    5.4427 H       1  LIG1        0.0277
     72 H           3.0160   -0.1863    4.4555 H       1  LIG1        0.0277
@<TRIPOS>BOND
     1     2     4    1
     2     6     7    1
     3     7     8    1
     4     8     9    1
     5     9    10    1
     6     7    11    2
     7     4    12    1
     8    12    13    1
     9    13    14    1
    10    14    15    1
    11    15    16    1
    12    16    17    1
    13    13    17    1
    14    19    20    1
    15    20    21    1
    16    20    22    2
    17    14    24    2
    18    24    25    1
    19    27    28    1
    20    25    29    1
    21    29    30    1
    22    13    30    1
    23    30    32    1
    24     2    32    1
    25    34    35    1
    26    35    36    2
    27    36    37    1
    28    37    38    2
    29    36    39    1
    30    15    23    2
    31    17    18    1
    32    17    19    1
    33    30    31    1
    34    32    33    1
    35    32    34    1
    36     4     6    1
    37     4     5    1
    38     2     3    1
    39     2     1    1
    40    25    27    1
    41    25    26    1
    42     1    40    1
    43     1    41    1
    44     1    42    1
    45     8    43    1
    46     8    44    1
    47     9    45    1
    48     9    46    1
    49    10    47    1
    50    10    48    1
    51    10    49    1
    52    12    50    1
    53    12    51    1
    54    21    52    1
    55    21    53    1
    56    21    54    1
    57    24    55    1
    58    28    56    1
    59    28    57    1
    60    28    58    1
    61    29    59    1
    62    29    60    1
    63    33    61    1
    64    33    62    1
    65    33    63    1
    66    34    64    1
    67    34    65    1
    68    35    66    1
    69    37    67    1
    70    38    68    1
    71    38    69    1
    72    39    70    1
    73    39    71    1
    74    39    72    1
