REMARK  Name = NuBBE_20
REMARK  9 active torsions:
REMARK  status: ('A' for Active; 'I' for Inactive)
REMARK    1  A    between atoms: C_1  and  O_2
REMARK    2  A    between atoms: O_2  and  C_3
REMARK    3  A    between atoms: C_4  and  O_5
REMARK    4  A    between atoms: O_5  and  C_6
REMARK    5  A    between atoms: C_7  and  O_8
REMARK    6  A    between atoms: O_8  and  C_9
REMARK    7  A    between atoms: C_11  and  C_12
REMARK    8  A    between atoms: C_12  and  C_13
REMARK    9  A    between atoms: C_13  and  C_14
REMARK                            x       y       z     vdW  Elec       q    Type
REMARK                         _______ _______ _______ _____ _____    ______ ____
ROOT
ATOM      1  C   LIG A   1      -2.907   0.158   1.379  0.00  0.00    +0.165 A 
ATOM      2  C   LIG A   1      -3.000   1.563   1.247  0.00  0.00    +0.203 A 
ATOM      3  C   LIG A   1      -2.239   2.216   0.258  0.00  0.00    +0.165 A 
ATOM      4  C   LIG A   1      -1.416   1.464  -0.595  0.00  0.00    +0.053 A 
ATOM      5  C   LIG A   1      -1.332   0.073  -0.473  0.00  0.00    -0.040 A 
ATOM      6  C   LIG A   1      -2.070  -0.569   0.525  0.00  0.00    +0.053 A 
ENDROOT
BRANCH   1   8
ATOM      7  C   LIG A   1      -4.002  -1.784   2.220  0.00  0.00    +0.277 C 
ATOM      8  O   LIG A   1      -3.610  -0.428   2.408  0.00  0.00    -0.491 OA
ENDBRANCH   1   8
BRANCH   2   9
ATOM      9  O   LIG A   1      -3.808   2.187   2.166  0.00  0.00    -0.488 OA
ATOM     10  C   LIG A   1      -4.523   3.349   1.765  0.00  0.00    +0.277 C 
ENDBRANCH   2   9
BRANCH   3  11
ATOM     11  O   LIG A   1      -2.219   3.589   0.216  0.00  0.00    -0.491 OA
ATOM     12  C   LIG A   1      -2.166   4.150  -1.095  0.00  0.00    +0.277 C 
ENDBRANCH   3  11
BRANCH   5  13
ATOM     13  C   LIG A   1      -0.366  -0.709  -1.337  0.00  0.00    +0.044 C 
BRANCH  13  14
ATOM     14  C   LIG A   1       0.983  -0.833  -0.633  0.00  0.00    +0.101 C 
BRANCH  14  15
ATOM     15  C   LIG A   1       2.022  -1.597  -1.441  0.00  0.00    +0.222 C 
ATOM     16  N   LIG A   1       3.306  -1.715  -0.884  0.00  0.00    -0.238 N 
ATOM     17  C   LIG A   1       4.280  -2.502  -1.656  0.00  0.00    +0.120 C 
ATOM     18  C   LIG A   1       5.747  -2.151  -1.392  0.00  0.00    +0.047 C 
ATOM     19  C   LIG A   1       6.001  -1.844   0.041  0.00  0.00    -0.020 C 
ATOM     20  C   LIG A   1       5.002  -1.517   0.875  0.00  0.00    +0.064 C 
ATOM     21  C   LIG A   1       3.598  -1.376   0.434  0.00  0.00    +0.245 C 
ATOM     22  O   LIG A   1       2.817  -0.943   1.274  0.00  0.00    -0.270 OA
ATOM     23  O   LIG A   1       1.731  -2.097  -2.530  0.00  0.00    -0.275 OA
ENDBRANCH  14  15
ENDBRANCH  13  14
ENDBRANCH   5  13
TORSDOF 6
