REMARK  Name = NuBBE_2330
REMARK  15 active torsions:
REMARK  status: ('A' for Active; 'I' for Inactive)
REMARK    1  A    between atoms: O_1  and  C_2
REMARK    2  A    between atoms: C_3  and  O_4
REMARK    3  A    between atoms: O_4  and  C_5
REMARK    4  A    between atoms: C_6  and  C_7
REMARK    5  A    between atoms: C_7  and  C_8
REMARK    6  A    between atoms: C_9  and  C_10
REMARK    7  A    between atoms: C_9  and  C_11
REMARK    8  A    between atoms: C_13  and  C_14
REMARK    9  A    between atoms: C_14  and  C_15
REMARK   10  A    between atoms: C_15  and  C_16
REMARK   11  A    between atoms: C_16  and  C_17
REMARK   12  A    between atoms: C_18  and  O_19
REMARK   13  A    between atoms: C_23  and  C_24
REMARK   14  A    between atoms: C_23  and  C_25
REMARK   15  A    between atoms: C_29  and  O_30
REMARK                            x       y       z     vdW  Elec       q    Type
REMARK                         _______ _______ _______ _____ _____    ______ ____
ROOT
ATOM      1  C   LIG A   1       0.613  -2.280  -1.692  0.00  0.00    +0.171 C 
ATOM      2  O   LIG A   1       1.317  -1.659  -2.493  0.00  0.00    -0.292 OA
ENDROOT
BRANCH   1   3
ATOM      3  C   LIG A   1      -0.869  -2.038  -1.690  0.00  0.00    +0.101 A 
ATOM      4  C   LIG A   1      -1.389  -0.731  -1.914  0.00  0.00    +0.138 A 
ATOM      5  C   LIG A   1      -2.773  -0.500  -2.048  0.00  0.00    +0.037 A 
ATOM      6  C   LIG A   1      -3.345   0.844  -2.443  0.00  0.00    +0.046 C 
ATOM      7  C   LIG A   1      -4.831   0.752  -2.782  0.00  0.00    +0.052 C 
ATOM      8  C   LIG A   1      -5.559  -0.128  -1.758  0.00  0.00    +0.105 C 
ATOM      9  C   LIG A   1      -5.498   0.451  -0.335  0.00  0.00    +0.055 C 
ATOM     10  C   LIG A   1      -7.037  -0.279  -2.143  0.00  0.00    +0.055 C 
ATOM     11  O   LIG A   1      -5.013  -1.458  -1.783  0.00  0.00    -0.486 OA
ATOM     12  C   LIG A   1      -3.649  -1.565  -1.822  0.00  0.00    +0.131 A 
ATOM     13  C   LIG A   1      -3.156  -2.853  -1.628  0.00  0.00    +0.092 A 
ATOM     14  C   LIG A   1      -1.782  -3.091  -1.589  0.00  0.00    +0.134 A 
BRANCH   4  15
ATOM     15  O   LIG A   1      -0.516   0.325  -1.964  0.00  0.00    -0.505 OA
ATOM     16  H   LIG A   1      -0.992   1.163  -1.848  0.00  0.00    +0.292 HD
ENDBRANCH   4  15
BRANCH  14  17
ATOM     17  O   LIG A   1      -1.363  -4.386  -1.473  0.00  0.00    -0.506 OA
ATOM     18  H   LIG A   1      -2.131  -4.981  -1.456  0.00  0.00    +0.292 HD
ENDBRANCH  14  17
ENDBRANCH   1   3
BRANCH   1  19
ATOM     19  C   LIG A   1       1.265  -3.320  -0.777  0.00  0.00    +0.084 C 
BRANCH  19  20
ATOM     20  C   LIG A   1       1.308  -3.032   0.726  0.00  0.00    +0.043 C 
BRANCH  20  25
ATOM     21  C   LIG A   1       3.736  -1.155   2.997  0.00  0.00    +0.159 A 
ATOM     22  C   LIG A   1       3.964   0.039   2.296  0.00  0.00    +0.165 A 
ATOM     23  C   LIG A   1       3.434   0.169   1.002  0.00  0.00    +0.002 A 
ATOM     24  C   LIG A   1       2.564  -0.822   0.509  0.00  0.00    +0.011 A 
ATOM     25  C   LIG A   1       2.284  -1.987   1.226  0.00  0.00    -0.043 A 
ATOM     26  C   LIG A   1       2.901  -2.147   2.476  0.00  0.00    +0.052 A 
BRANCH  21  27
ATOM     27  O   LIG A   1       4.359  -1.381   4.197  0.00  0.00    -0.503 OA
ATOM     28  H   LIG A   1       4.364  -2.337   4.364  0.00  0.00    +0.292 HD
ENDBRANCH  21  27
BRANCH  22  29
ATOM     29  O   LIG A   1       4.731   1.071   2.768  0.00  0.00    -0.491 OA
ATOM     30  C   LIG A   1       4.623   1.330   4.168  0.00  0.00    +0.277 C 
ENDBRANCH  22  29
BRANCH  23  31
ATOM     31  C   LIG A   1       3.763   1.322   0.081  0.00  0.00    +0.066 C 
BRANCH  31  32
ATOM     32  C   LIG A   1       2.770   2.452   0.135  0.00  0.00    -0.023 C 
ATOM     33  C   LIG A   1       2.898   3.609   0.801  0.00  0.00    -0.079 C 
ATOM     34  C   LIG A   1       4.065   3.961   1.680  0.00  0.00    +0.038 C 
ATOM     35  C   LIG A   1       1.836   4.671   0.737  0.00  0.00    +0.038 C 
ENDBRANCH  31  32
ENDBRANCH  23  31
ENDBRANCH  20  25
ENDBRANCH  19  20
ENDBRANCH   1  19
TORSDOF 10
