@<TRIPOS>MOLECULE
NuBBE_1567
 83 86 0 0 0
SMALL
GASTEIGER

@<TRIPOS>ATOM
      1 O           3.9371    1.8337   -4.2944 O.2     1  LIG1       -0.2866
      2 C           2.7531    2.0356   -3.7803 C.ar    1  LIG1        0.1998
      3 C           1.6577    1.8293   -4.6276 C.ar    1  LIG1        0.0644
      4 C           1.6840    1.2877   -5.9254 C.ar    1  LIG1       -0.0474
      5 C           0.5151    1.0990   -6.6485 C.ar    1  LIG1       -0.0609
      6 C          -0.7247    1.3315   -6.0522 C.ar    1  LIG1       -0.0582
      7 C          -0.7851    1.7883   -4.7293 C.ar    1  LIG1       -0.0186
      8 C           0.3894    2.0847   -4.0288 C.ar    1  LIG1        0.1393
      9 O           0.3131    2.6883   -2.8056 O.2     1  LIG1       -0.4541
     10 C           1.4248    2.7453   -2.0005 C.ar    1  LIG1        0.1494
     11 C           1.2493    3.0542   -0.5920 C.ar    1  LIG1        0.0594
     12 C           2.3271    2.9637    0.2927 C.ar    1  LIG1        0.1320
     13 C           2.1711    3.3501    1.6275 C.ar    1  LIG1       -0.0192
     14 C           0.9146    3.7230    2.1178 C.ar    1  LIG1       -0.0583
     15 C          -0.1984    3.6492    1.2882 C.ar    1  LIG1       -0.0609
     16 C          -0.0313    3.3294   -0.0598 C.ar    1  LIG1       -0.0475
     17 O           3.5329    2.3910   -0.0417 O.3     1  LIG1       -0.4833
     18 C           2.6799    2.3588   -2.4058 C.ar    1  LIG1        0.0828
     19 C           3.7786    1.9995   -1.4118 C.3     1  LIG1        0.1322
     20 C           4.3501    0.5212   -1.4576 C.3     1  LIG1       -0.0113
     21 C           3.5743   -0.7345   -0.9751 C.3     1  LIG1       -0.0494
     22 C           2.4290   -1.2870   -1.8426 C.3     1  LIG1       -0.0529
     23 C           1.1867   -0.4421   -1.9129 C.3     1  LIG1       -0.0531
     24 C           0.6014    0.0999   -0.6439 C.3     1  LIG1       -0.0531
     25 C          -0.2764   -0.8563    0.0786 C.3     1  LIG1       -0.0531
     26 C           0.5028   -1.9776    0.7721 C.3     1  LIG1       -0.0531
     27 C          -0.5040   -2.9033    1.4416 C.3     1  LIG1       -0.0531
     28 C           0.0472   -4.0476    2.2541 C.3     1  LIG1       -0.0531
     29 C           0.9830   -3.6265    3.3807 C.3     1  LIG1       -0.0531
     30 C           0.4073   -2.6325    4.4344 C.3     1  LIG1       -0.0531
     31 C           0.2164   -1.0936    4.2035 C.3     1  LIG1       -0.0531
     32 C          -0.8559   -0.3812    3.2863 C.3     1  LIG1       -0.0531
     33 C          -2.4084   -0.6405    3.3524 C.3     1  LIG1       -0.0531
     34 C          -3.5680   -0.2293    2.2918 C.3     1  LIG1       -0.0531
     35 C          -3.9886   -0.9330    0.9452 C.3     1  LIG1       -0.0533
     36 C          -5.3023   -0.3595    0.2699 C.3     1  LIG1       -0.0559
     37 C          -6.5906   -0.5138    1.0807 C.3     1  LIG1       -0.0653
     38 H           2.6598    1.0690   -6.3738 H       1  LIG1        0.0626
     39 H           0.5723    0.7792   -7.6875 H       1  LIG1        0.0618
     40 H          -1.6329    1.1932   -6.6298 H       1  LIG1        0.0619
     41 H          -1.7594    1.9394   -4.2653 H       1  LIG1        0.0654
     42 H           3.0252    3.3381    2.3035 H       1  LIG1        0.0654
     43 H           0.7979    4.0329    3.1546 H       1  LIG1        0.0619
     44 H          -1.1957    3.8334    1.6851 H       1  LIG1        0.0618
     45 H          -0.9189    3.2224   -0.6789 H       1  LIG1        0.0626
     46 H           4.6335    2.6284   -1.7040 H       1  LIG1        0.0787
     47 H           5.2486    0.5351   -0.8199 H       1  LIG1        0.0304
     48 H           4.7286    0.3013   -2.4632 H       1  LIG1        0.0304
     49 H           3.2904   -0.6289    0.0778 H       1  LIG1        0.0267
     50 H           4.3126   -1.5551   -0.9844 H       1  LIG1        0.0267
     51 H           2.1630   -2.3038   -1.5305 H       1  LIG1        0.0265
     52 H           2.7945   -1.3968   -2.8707 H       1  LIG1        0.0265
     53 H           0.3899   -0.8792   -2.5308 H       1  LIG1        0.0265
     54 H           1.5153    0.4022   -2.4770 H       1  LIG1        0.0265
     55 H          -0.0905    0.8954   -0.9364 H       1  LIG1        0.0265
     56 H           1.3454    0.5189    0.0395 H       1  LIG1        0.0265
     57 H          -1.0447   -1.2625   -0.5805 H       1  LIG1        0.0265
     58 H          -0.8358   -0.1891    0.7384 H       1  LIG1        0.0265
     59 H           1.2732   -1.5660    1.4466 H       1  LIG1        0.0265
     60 H           1.0493   -2.5703    0.0412 H       1  LIG1        0.0265
     61 H          -1.1605   -2.3766    2.1233 H       1  LIG1        0.0265
     62 H          -1.1930   -3.2746    0.6706 H       1  LIG1        0.0265
     63 H           0.5104   -4.8089    1.6062 H       1  LIG1        0.0265
     64 H          -0.8215   -4.5353    2.7141 H       1  LIG1        0.0265
     65 H           1.9561   -3.2973    2.9925 H       1  LIG1        0.0265
     66 H           1.2125   -4.5639    3.9196 H       1  LIG1        0.0265
     67 H           1.1826   -2.6749    5.2188 H       1  LIG1        0.0265
     68 H          -0.4864   -3.0617    4.8988 H       1  LIG1        0.0265
     69 H           1.1951   -0.7602    3.8204 H       1  LIG1        0.0265
     70 H           0.1383   -0.6345    5.1978 H       1  LIG1        0.0265
     71 H          -0.4783   -0.6400    2.3413 H       1  LIG1        0.0265
     72 H          -0.6665    0.7057    3.3221 H       1  LIG1        0.0265
     73 H          -2.6923   -0.0227    4.2191 H       1  LIG1        0.0265
     74 H          -2.5852   -1.6798    3.6416 H       1  LIG1        0.0265
     75 H          -3.5476    0.8546    2.1121 H       1  LIG1        0.0265
     76 H          -4.4626   -0.4024    2.9088 H       1  LIG1        0.0265
     77 H          -4.1669   -2.0030    1.1050 H       1  LIG1        0.0265
     78 H          -3.2015   -0.8398    0.1904 H       1  LIG1        0.0265
     79 H          -5.4763   -0.8725   -0.6906 H       1  LIG1        0.0263
     80 H          -5.1733    0.6995    0.0102 H       1  LIG1        0.0263
     81 H          -6.8836   -1.5662    1.1538 H       1  LIG1        0.0230
     82 H          -7.4277    0.0170    0.6014 H       1  LIG1        0.0230
     83 H          -6.4855   -0.1046    2.0873 H       1  LIG1        0.0230
@<TRIPOS>BOND
     1     1     2    2
     2     2     3   ar
     3     3     4   ar
     4     4     5   ar
     5     5     6   ar
     6     6     7   ar
     7     7     8   ar
     8     3     8   ar
     9     8     9   ar
    10     9    10   ar
    11    10    11    1
    12    11    12   ar
    13    12    13   ar
    14    13    14   ar
    15    14    15   ar
    16    15    16   ar
    17    11    16   ar
    18    12    17    1
    19    10    18   ar
    20     2    18   ar
    21    18    19    1
    22    17    19    1
    23    19    20    1
    24    20    21    1
    25    21    22    1
    26    22    23    1
    27    23    24    1
    28    24    25    1
    29    25    26    1
    30    26    27    1
    31    27    28    1
    32    28    29    1
    33    29    30    1
    34    30    31    1
    35    31    32    1
    36    32    33    1
    37    33    34    1
    38    34    35    1
    39    35    36    1
    40    36    37    1
    41     4    38    1
    42     5    39    1
    43     6    40    1
    44     7    41    1
    45    13    42    1
    46    14    43    1
    47    15    44    1
    48    16    45    1
    49    19    46    1
    50    20    47    1
    51    20    48    1
    52    21    49    1
    53    21    50    1
    54    22    51    1
    55    22    52    1
    56    23    53    1
    57    23    54    1
    58    24    55    1
    59    24    56    1
    60    25    57    1
    61    25    58    1
    62    26    59    1
    63    26    60    1
    64    27    61    1
    65    27    62    1
    66    28    63    1
    67    28    64    1
    68    29    65    1
    69    29    66    1
    70    30    67    1
    71    30    68    1
    72    31    69    1
    73    31    70    1
    74    32    71    1
    75    32    72    1
    76    33    73    1
    77    33    74    1
    78    34    75    1
    79    34    76    1
    80    35    77    1
    81    35    78    1
    82    36    79    1
    83    36    80    1
    84    37    81    1
    85    37    82    1
    86    37    83    1
