@<TRIPOS>MOLECULE
NuBBE_1498
 56 55 0 0 0
SMALL
GASTEIGER

@<TRIPOS>ATOM
      1 C           1.8564    1.9301   -4.7291 C.3     1  LIG1       -0.0430
      2 C           1.7259    1.7235   -3.2147 C.3     1  LIG1       -0.0526
      3 C           0.3131    2.0432   -2.7026 C.3     1  LIG1       -0.0530
      4 C           0.2017    1.8059   -1.1905 C.3     1  LIG1       -0.0531
      5 C          -1.2034    2.1005   -0.6425 C.3     1  LIG1       -0.0531
      6 C          -1.2651    1.8527    0.8704 C.3     1  LIG1       -0.0531
      7 C          -2.6553    2.1139    1.4681 C.3     1  LIG1       -0.0531
      8 C          -2.7198    1.8669    2.9863 C.3     1  LIG1       -0.0531
      9 C          -2.4096    0.4164    3.3606 C.3     1  LIG1       -0.0531
     10 C          -2.4655    0.1575    4.8682 C.3     1  LIG1       -0.0531
     11 C          -2.1619   -1.3066    5.2198 C.3     1  LIG1       -0.0531
     12 C          -0.7658   -1.7654    4.7776 C.3     1  LIG1       -0.0533
     13 C          -0.4466   -3.2166    5.1412 C.3     1  LIG1       -0.0559
     14 C          -1.3648   -4.2247    4.4656 C.3     1  LIG1       -0.0653
     15 C           3.2650    1.6378   -5.2514 C.3     1  LIG1        0.0449
     16 C           3.6893    0.2085   -5.0873 C.2     1  LIG1        0.3071
     17 O           4.6457   -0.1428   -4.3986 O.2     1  LIG1       -0.2509
     18 O           2.9060   -0.6230   -5.8237 O.3     1  LIG1       -0.4649
     19 C           3.2569   -2.0118   -5.7575 C.3     1  LIG1        0.0896
     20 C           2.6530   -2.6479   -4.5192 C.3     1  LIG1       -0.0306
     21 H           1.6125    2.9716   -4.9723 H       1  LIG1        0.0270
     22 H           1.1263    1.3014   -5.2520 H       1  LIG1        0.0270
     23 H           2.4536    2.3613   -2.6983 H       1  LIG1        0.0265
     24 H           1.9705    0.6849   -2.9632 H       1  LIG1        0.0265
     25 H          -0.4162    1.4140   -3.2267 H       1  LIG1        0.0265
     26 H           0.0659    3.0868   -2.9312 H       1  LIG1        0.0265
     27 H           0.9338    2.4353   -0.6697 H       1  LIG1        0.0265
     28 H           0.4630    0.7632   -0.9705 H       1  LIG1        0.0265
     29 H          -1.9338    1.4558   -1.1463 H       1  LIG1        0.0265
     30 H          -1.4777    3.1391   -0.8584 H       1  LIG1        0.0265
     31 H          -0.5315    2.4900    1.3788 H       1  LIG1        0.0265
     32 H          -0.9714    0.8137    1.0510 H       1  LIG1        0.0265
     33 H          -3.4003    1.4837    0.9674 H       1  LIG1        0.0265
     34 H          -2.9411    3.1555    1.2757 H       1  LIG1        0.0265
     35 H          -3.7231    2.1273    3.3457 H       1  LIG1        0.0265
     36 H          -2.0165    2.5376    3.4945 H       1  LIG1        0.0265
     37 H          -1.4053    0.1761    3.0071 H       1  LIG1        0.0265
     38 H          -3.1091   -0.2541    2.8472 H       1  LIG1        0.0265
     39 H          -3.4661    0.4050    5.2433 H       1  LIG1        0.0265
     40 H          -1.7574    0.8133    5.3884 H       1  LIG1        0.0265
     41 H          -2.9318   -1.9352    4.7600 H       1  LIG1        0.0265
     42 H          -2.2544   -1.4344    6.3054 H       1  LIG1        0.0265
     43 H          -0.0141   -1.1146    5.2416 H       1  LIG1        0.0265
     44 H          -0.6512   -1.6601    3.6940 H       1  LIG1        0.0265
     45 H          -0.4902   -3.3477    6.2277 H       1  LIG1        0.0263
     46 H           0.5853   -3.4303    4.8355 H       1  LIG1        0.0263
     47 H          -2.4106   -4.0724    4.7456 H       1  LIG1        0.0230
     48 H          -1.0911   -5.2415    4.7631 H       1  LIG1        0.0230
     49 H          -1.2866   -4.1571    3.3756 H       1  LIG1        0.0230
     50 H           3.9975    2.2723   -4.7367 H       1  LIG1        0.0377
     51 H           3.3349    1.8830   -6.3185 H       1  LIG1        0.0377
     52 H           4.3463   -2.1360   -5.7829 H       1  LIG1        0.0694
     53 H           2.8605   -2.4942   -6.6565 H       1  LIG1        0.0694
     54 H           2.9546   -2.1158   -3.6115 H       1  LIG1        0.0262
     55 H           2.9593   -3.6936   -4.4307 H       1  LIG1        0.0262
     56 H           1.5601   -2.6014   -4.5633 H       1  LIG1        0.0262
@<TRIPOS>BOND
     1     1     2    1
     2     2     3    1
     3     3     4    1
     4     4     5    1
     5     5     6    1
     6     6     7    1
     7     7     8    1
     8     8     9    1
     9     9    10    1
    10    10    11    1
    11    11    12    1
    12    12    13    1
    13    13    14    1
    14     1    15    1
    15    15    16    1
    16    16    17    2
    17    16    18    1
    18    18    19    1
    19    19    20    1
    20     1    21    1
    21     1    22    1
    22     2    23    1
    23     2    24    1
    24     3    25    1
    25     3    26    1
    26     4    27    1
    27     4    28    1
    28     5    29    1
    29     5    30    1
    30     6    31    1
    31     6    32    1
    32     7    33    1
    33     7    34    1
    34     8    35    1
    35     8    36    1
    36     9    37    1
    37     9    38    1
    38    10    39    1
    39    10    40    1
    40    11    41    1
    41    11    42    1
    42    12    43    1
    43    12    44    1
    44    13    45    1
    45    13    46    1
    46    14    47    1
    47    14    48    1
    48    14    49    1
    49    15    50    1
    50    15    51    1
    51    19    52    1
    52    19    53    1
    53    20    54    1
    54    20    55    1
    55    20    56    1
