REMARK  Name = NuBBE_252
REMARK  8 active torsions:
REMARK  status: ('A' for Active; 'I' for Inactive)
REMARK    1  A    between atoms: C_5  and  O_7
REMARK    2  A    between atoms: C_8  and  C_10
REMARK    3  A    between atoms: C_13  and  C_14
REMARK    4  A    between atoms: C_20  and  C_21
REMARK    5  A    between atoms: C_21  and  C_22
REMARK    6  A    between atoms: C_21  and  C_23
REMARK    7  A    between atoms: C_23  and  O_24
REMARK    8  A    between atoms: C_27  and  C_28
REMARK                            x       y       z     vdW  Elec       q    Type
REMARK                         _______ _______ _______ _____ _____    ______ ____
ROOT
ATOM      1  C   LIG A   1      -2.102  -0.052   0.066  0.00  0.00    +0.010 C 
ATOM      2  C   LIG A   1      -2.392   1.407  -0.344  0.00  0.00    +0.094 C 
ATOM      3  C   LIG A   1      -2.659   2.048   1.013  0.00  0.00    +0.170 C 
ATOM      4  C   LIG A   1      -2.332   1.121   2.171  0.00  0.00    +0.184 C 
ATOM      5  C   LIG A   1      -1.517   0.009   1.495  0.00  0.00    +0.026 C 
ATOM      6  C   LIG A   1      -1.572  -1.320   2.240  0.00  0.00    +0.011 C 
ATOM      7  O   LIG A   1      -3.115   3.176   1.186  0.00  0.00    -0.294 OA
ATOM      8  C   LIG A   1      -1.435   2.320  -1.061  0.00  0.00    -0.001 C 
ATOM      9  C   LIG A   1      -0.091   2.349  -1.132  0.00  0.00    -0.015 C 
ATOM     10  C   LIG A   1       0.939   1.491  -0.471  0.00  0.00    +0.058 C 
ATOM     11  C   LIG A   1       0.902   0.012  -0.722  0.00  0.00    -0.060 C 
ATOM     12  C   LIG A   1       1.777  -0.856  -0.162  0.00  0.00    -0.065 C 
ATOM     13  C   LIG A   1       1.524  -2.266  -0.605  0.00  0.00    +0.032 C 
ATOM     14  C   LIG A   1       0.671  -2.054  -1.843  0.00  0.00    +0.015 C 
ATOM     15  C   LIG A   1      -0.086  -0.708  -1.623  0.00  0.00    -0.010 C 
ATOM     16  C   LIG A   1      -0.277  -0.111  -3.032  0.00  0.00    +0.016 C 
ATOM     17  C   LIG A   1      -1.454  -1.008  -0.951  0.00  0.00    +0.016 C 
ENDROOT
BRANCH   4  18
ATOM     18  O   LIG A   1      -3.532   0.642   2.751  0.00  0.00    -0.384 OA
ATOM     19  H   LIG A   1      -4.033   1.429   3.039  0.00  0.00    +0.210 HD
ENDBRANCH   4  18
BRANCH   8  20
ATOM     20  C   LIG A   1      -2.106   3.402  -1.863  0.00  0.00    +0.254 C 
ATOM     21  O   LIG A   1      -3.280   3.350  -2.198  0.00  0.00    -0.296 OA
ENDBRANCH   8  20
BRANCH  12  22
ATOM     22  C   LIG A   1       2.905  -0.548   0.802  0.00  0.00    +0.037 C 
ATOM     23  C   LIG A   1       4.193  -0.258   0.026  0.00  0.00    +0.014 C 
BRANCH  22  24
ATOM     24  C   LIG A   1       3.168  -1.655   1.844  0.00  0.00    +0.163 C 
BRANCH  24  25
ATOM     25  O   LIG A   1       2.012  -1.937   2.625  0.00  0.00    -0.394 OA
ATOM     26  H   LIG A   1       1.680  -1.095   2.979  0.00  0.00    +0.209 HD
ENDBRANCH  24  25
ENDBRANCH  22  24
ENDBRANCH  12  22
TORSDOF 5
