@<TRIPOS>MOLECULE
NuBBE_1590
 52 55 0 0 0
SMALL
GASTEIGER

@<TRIPOS>ATOM
      1 C           0.2613   -3.5432    0.5427 C.3     1  LIG1        0.0791
      2 O           0.2077   -2.1337    0.3685 O.3     1  LIG1       -0.4885
      3 C           0.8173   -1.5586   -0.7218 C.ar    1  LIG1        0.2058
      4 C           1.6306   -2.1980   -1.6819 C.ar    1  LIG1        0.1775
      5 O           1.8616   -3.5382   -1.5453 O.3     1  LIG1       -0.4777
      6 C           2.5656   -4.2774   -2.5570 C.3     1  LIG1        0.1237
      7 C           1.5383   -5.1927   -3.2306 C.3     1  LIG1       -0.0215
      8 C           3.6010   -5.1196   -1.8040 C.3     1  LIG1       -0.0215
      9 C           3.2585   -3.4413   -3.5959 C.2     1  LIG1       -0.0408
     10 C           3.0965   -2.1201   -3.6829 C.2     1  LIG1       -0.0477
     11 C           2.2113   -1.4594   -2.7311 C.ar    1  LIG1        0.0625
     12 C           1.9536   -0.0854   -2.8394 C.ar    1  LIG1        0.1420
     13 O           2.5172    0.6075   -3.8849 O.3     1  LIG1       -0.5052
     14 C           1.1431    0.5442   -1.8950 C.ar    1  LIG1        0.1097
     15 C           0.5876   -0.1704   -0.8438 C.ar    1  LIG1        0.1879
     16 O          -0.1995    0.4357    0.1139 O.2     1  LIG1       -0.4507
     17 C          -0.4513    1.8085    0.0358 C.ar    1  LIG1        0.1395
     18 C          -1.2903    2.3424    1.1369 C.ar    1  LIG1        0.0211
     19 C          -1.7127    1.4901    2.1617 C.ar    1  LIG1       -0.0474
     20 C          -2.5124    1.9556    3.2069 C.ar    1  LIG1       -0.0156
     21 C          -2.9018    3.2957    3.2789 C.ar    1  LIG1        0.1615
     22 O          -3.6890    3.7872    4.2821 O.3     1  LIG1       -0.4915
     23 C          -4.2075    2.8635    5.2238 C.3     1  LIG1        0.0790
     24 C          -2.4758    4.1780    2.2775 C.ar    1  LIG1        0.1622
     25 O          -2.7528    5.5227    2.1881 O.3     1  LIG1       -0.4914
     26 C          -3.0775    6.1925    3.4041 C.3     1  LIG1        0.0790
     27 C          -1.7029    3.6874    1.2081 C.ar    1  LIG1       -0.0056
     28 C           0.0416    2.5803   -0.9357 C.ar    1  LIG1        0.0288
     29 C           0.8628    1.9803   -1.9901 C.ar    1  LIG1        0.1968
     30 O           1.2954    2.6505   -2.9116 O.2     1  LIG1       -0.2869
     31 H          -0.2675   -3.7853    1.4701 H       1  LIG1        0.0660
     32 H           1.2884   -3.8972    0.6735 H       1  LIG1        0.0660
     33 H          -0.2550   -4.0621   -0.2721 H       1  LIG1        0.0660
     34 H           1.0224   -5.8121   -2.4875 H       1  LIG1        0.0271
     35 H           2.0009   -5.8536   -3.9714 H       1  LIG1        0.0271
     36 H           0.7601   -4.6043   -3.7318 H       1  LIG1        0.0271
     37 H           3.1164   -5.7409   -1.0413 H       1  LIG1        0.0271
     38 H           4.3108   -4.4770   -1.2686 H       1  LIG1        0.0271
     39 H           4.1663   -5.7751   -2.4747 H       1  LIG1        0.0271
     40 H           3.9051   -3.9424   -4.3106 H       1  LIG1        0.0611
     41 H           3.5996   -1.5314   -4.4428 H       1  LIG1        0.0624
     42 H           2.2207    1.5462   -3.8368 H       1  LIG1        0.2922
     43 H          -1.4347    0.4370    2.1716 H       1  LIG1        0.0626
     44 H          -2.8132    1.2314    3.9553 H       1  LIG1        0.0655
     45 H          -4.7706    3.4284    5.9709 H       1  LIG1        0.0660
     46 H          -3.4016    2.3391    5.7464 H       1  LIG1        0.0660
     47 H          -4.8927    2.1655    4.7328 H       1  LIG1        0.0660
     48 H          -3.0003    7.2706    3.2353 H       1  LIG1        0.0660
     49 H          -2.3737    5.9370    4.2045 H       1  LIG1        0.0660
     50 H          -4.1146    5.9965    3.6960 H       1  LIG1        0.0660
     51 H          -1.4269    4.4007    0.4364 H       1  LIG1        0.0662
     52 H          -0.1171    3.6449   -1.0339 H       1  LIG1        0.0693
@<TRIPOS>BOND
     1     1     2    1
     2     2     3    1
     3     3     4   ar
     4     4     5    1
     5     5     6    1
     6     6     7    1
     7     6     8    1
     8     6     9    1
     9     9    10    2
    10     4    11   ar
    11    10    11    1
    12    11    12   ar
    13    12    13    1
    14    12    14   ar
    15    14    15   ar
    16     3    15   ar
    17    15    16   ar
    18    16    17   ar
    19    17    18    1
    20    18    19   ar
    21    19    20   ar
    22    20    21   ar
    23    21    22    1
    24    22    23    1
    25    21    24   ar
    26    24    25    1
    27    25    26    1
    28    24    27   ar
    29    18    27   ar
    30    17    28   ar
    31    28    29   ar
    32    14    29   ar
    33    29    30    2
    34     1    31    1
    35     1    32    1
    36     1    33    1
    37     7    34    1
    38     7    35    1
    39     7    36    1
    40     8    37    1
    41     8    38    1
    42     8    39    1
    43     9    40    1
    44    10    41    1
    45    13    42    1
    46    19    43    1
    47    20    44    1
    48    23    45    1
    49    23    46    1
    50    23    47    1
    51    26    48    1
    52    26    49    1
    53    26    50    1
    54    27    51    1
    55    28    52    1
