REMARK  Name = NuBBE_1848
REMARK  9 active torsions:
REMARK  status: ('A' for Active; 'I' for Inactive)
REMARK    1  A    between atoms: O_1  and  C_2
REMARK    2  A    between atoms: C_3  and  C_4
REMARK    3  A    between atoms: C_4  and  C_5
REMARK    4  A    between atoms: C_5  and  C_6
REMARK    5  A    between atoms: C_6  and  C_7
REMARK    6  A    between atoms: C_9  and  O_10
REMARK    7  A    between atoms: O_10  and  C_11
REMARK    8  A    between atoms: C_12  and  O_13
REMARK    9  A    between atoms: C_19  and  O_20
REMARK                            x       y       z     vdW  Elec       q    Type
REMARK                         _______ _______ _______ _____ _____    ______ ____
ROOT
ATOM      1  C   LIG A   1       1.541   0.650   0.498  0.00  0.00    +0.167 C 
ATOM      2  O   LIG A   1       1.630  -0.028   1.520  0.00  0.00    -0.292 OA
ENDROOT
BRANCH   1   4
ATOM      3  C   LIG A   1       1.252   3.090  -0.157  0.00  0.00    +0.131 A 
ATOM      4  C   LIG A   1       0.849   1.966   0.572  0.00  0.00    +0.059 A 
ATOM      5  C   LIG A   1      -0.235   2.074   1.458  0.00  0.00    +0.018 A 
ATOM      6  C   LIG A   1      -0.924   3.282   1.594  0.00  0.00    +0.046 A 
ATOM      7  C   LIG A   1      -0.518   4.383   0.846  0.00  0.00    +0.120 A 
ATOM      8  C   LIG A   1       0.566   4.300  -0.022  0.00  0.00    +0.091 A 
BRANCH   3   9
ATOM      9  O   LIG A   1       2.343   3.033  -0.979  0.00  0.00    -0.506 OA
ATOM     10  H   LIG A   1       2.500   3.914  -1.361  0.00  0.00    +0.292 HD
ENDBRANCH   3   9
BRANCH   7  11
ATOM     11  O   LIG A   1      -1.160   5.582   0.941  0.00  0.00    -0.507 OA
ATOM     12  H   LIG A   1      -1.920   5.487   1.539  0.00  0.00    +0.292 HD
ENDBRANCH   7  11
ENDBRANCH   1   4
BRANCH   1  13
ATOM     13  C   LIG A   1       2.115   0.191  -0.835  0.00  0.00    +0.084 C 
BRANCH  13  14
ATOM     14  C   LIG A   1       2.048  -1.323  -1.045  0.00  0.00    +0.043 C 
BRANCH  14  15
ATOM     15  C   LIG A   1       0.645  -1.875  -1.146  0.00  0.00    -0.043 A 
ATOM     16  C   LIG A   1      -0.009  -2.321   0.016  0.00  0.00    +0.053 A 
ATOM     17  C   LIG A   1      -1.300  -2.844  -0.043  0.00  0.00    +0.162 A 
ATOM     18  C   LIG A   1      -1.932  -2.924  -1.287  0.00  0.00    +0.159 A 
ATOM     19  C   LIG A   1      -1.307  -2.489  -2.449  0.00  0.00    +0.049 A 
ATOM     20  C   LIG A   1      -0.017  -1.959  -2.379  0.00  0.00    +0.007 A 
BRANCH  17  21
ATOM     21  O   LIG A   1      -2.031  -3.304   1.023  0.00  0.00    -0.491 OA
ATOM     22  C   LIG A   1      -1.404  -3.208   2.299  0.00  0.00    +0.277 C 
ENDBRANCH  17  21
BRANCH  18  23
ATOM     23  O   LIG A   1      -3.194  -3.446  -1.383  0.00  0.00    -0.503 OA
ATOM     24  H   LIG A   1      -3.426  -3.704  -0.469  0.00  0.00    +0.292 HD
ENDBRANCH  18  23
ENDBRANCH  14  15
ENDBRANCH  13  14
ENDBRANCH   1  13
TORSDOF 8
