@<TRIPOS>MOLECULE
NuBBE_126
 34 36 0 0 0
SMALL
GASTEIGER

@<TRIPOS>ATOM
      1 O          -6.6608   -0.2551    1.4694 O.3     1  LIG1       -0.5068
      2 C          -5.3349   -0.3607    1.1744 C.ar    1  LIG1        0.1169
      3 C          -4.6794    0.5987    0.4131 C.ar    1  LIG1       -0.0195
      4 C          -3.3168    0.4427    0.1324 C.ar    1  LIG1       -0.0476
      5 C          -2.5998   -0.6705    0.6046 C.ar    1  LIG1        0.0176
      6 C          -1.1576   -0.8172    0.2941 C.ar    1  LIG1        0.1392
      7 O          -0.4762    0.3855    0.1422 O.2     1  LIG1       -0.4544
      8 C           0.8624    0.3501   -0.1643 C.ar    1  LIG1        0.1465
      9 C           1.5682   -0.8359   -0.3203 C.ar    1  LIG1        0.1091
     10 C           2.9274   -0.8011   -0.6289 C.ar    1  LIG1        0.1766
     11 O           3.6906   -1.9338   -0.7954 O.3     1  LIG1       -0.5027
     12 C           3.5846    0.4254   -0.7855 C.ar    1  LIG1        0.2018
     13 O           4.9188    0.3744   -1.0923 O.3     1  LIG1       -0.5009
     14 C           2.8876    1.6275   -0.6321 C.ar    1  LIG1        0.1685
     15 O           3.3633    2.9051   -0.7447 O.3     1  LIG1       -0.4912
     16 C           4.7392    3.0796   -1.0565 C.3     1  LIG1        0.0790
     17 C           1.5191    1.5739   -0.3202 C.ar    1  LIG1        0.0270
     18 C          -0.5834   -2.0216    0.1511 C.ar    1  LIG1        0.0288
     19 C           0.8501   -2.1010   -0.1581 C.ar    1  LIG1        0.1967
     20 O           1.4283   -3.1747   -0.2780 O.2     1  LIG1       -0.2869
     21 C          -3.2881   -1.6138    1.3873 C.ar    1  LIG1       -0.0476
     22 C          -4.6500   -1.4632    1.6642 C.ar    1  LIG1       -0.0195
     23 H          -7.0054    0.5612    1.0716 H       1  LIG1        0.2921
     24 H          -5.2040    1.4683    0.0299 H       1  LIG1        0.0654
     25 H          -2.8215    1.2021   -0.4699 H       1  LIG1        0.0626
     26 H           3.1034   -2.7136   -0.6541 H       1  LIG1        0.2923
     27 H           5.1327   -0.5810   -1.1341 H       1  LIG1        0.2924
     28 H           4.9375    4.1559   -1.0815 H       1  LIG1        0.0660
     29 H           4.9732    2.6838   -2.0499 H       1  LIG1        0.0660
     30 H           5.3824    2.6528   -0.2805 H       1  LIG1        0.0660
     31 H           0.9646    2.5022   -0.1983 H       1  LIG1        0.0692
     32 H          -1.1067   -2.9641    0.2407 H       1  LIG1        0.0693
     33 H          -2.7777   -2.4783    1.8050 H       1  LIG1        0.0626
     34 H          -5.1711   -2.2039    2.2647 H       1  LIG1        0.0654
@<TRIPOS>BOND
     1     1     2    1
     2     2     3   ar
     3     3     4   ar
     4     4     5   ar
     5     5     6    1
     6     6     7   ar
     7     7     8   ar
     8     8     9   ar
     9     9    10   ar
    10    10    11    1
    11    10    12   ar
    12    12    13    1
    13    12    14   ar
    14    14    15    1
    15    15    16    1
    16    14    17   ar
    17     8    17   ar
    18     6    18   ar
    19    18    19   ar
    20     9    19   ar
    21    19    20    2
    22     5    21   ar
    23    21    22   ar
    24     2    22   ar
    25     1    23    1
    26     3    24    1
    27     4    25    1
    28    11    26    1
    29    13    27    1
    30    16    28    1
    31    16    29    1
    32    16    30    1
    33    17    31    1
    34    18    32    1
    35    21    33    1
    36    22    34    1
