REMARK  Name = NuBBE_2196
REMARK  8 active torsions:
REMARK  status: ('A' for Active; 'I' for Inactive)
REMARK    1  A    between atoms: C_1  and  C_2
REMARK    2  A    between atoms: C_9  and  O_11
REMARK    3  A    between atoms: O_11  and  C_12
REMARK    4  A    between atoms: C_12  and  C_13
REMARK    5  A    between atoms: C_15  and  C_16
REMARK    6  A    between atoms: C_15  and  C_18
REMARK    7  A    between atoms: C_22  and  C_23
REMARK    8  A    between atoms: C_22  and  C_24
REMARK                            x       y       z     vdW  Elec       q    Type
REMARK                         _______ _______ _______ _____ _____    ______ ____
ROOT
ATOM      1  C   LIG A   1      -1.517  -0.056   1.613  0.00  0.00    +0.016 C 
ATOM      2  C   LIG A   1      -0.161   0.492   1.102  0.00  0.00    -0.007 C 
ATOM      3  C   LIG A   1      -0.248   2.005   0.696  0.00  0.00    +0.012 C 
ATOM      4  C   LIG A   1      -1.084   2.197  -0.571  0.00  0.00    +0.084 C 
ATOM      5  C   LIG A   1      -0.480   1.415  -1.707  0.00  0.00    +0.160 C 
ATOM      6  C   LIG A   1       0.131   0.083  -1.407  0.00  0.00    -0.004 C 
ATOM      7  C   LIG A   1       0.230  -0.362  -0.134  0.00  0.00    -0.053 C 
ATOM      8  C   LIG A   1       0.714  -1.788   0.126  0.00  0.00    +0.077 C 
ATOM      9  C   LIG A   1       0.653  -2.705  -1.114  0.00  0.00    +0.190 C 
ATOM     10  C   LIG A   1       1.311  -2.021  -2.344  0.00  0.00    +0.027 C 
ATOM     11  C   LIG A   1       1.160  -2.932  -3.585  0.00  0.00    +0.019 C 
ATOM     12  C   LIG A   1       0.544  -0.701  -2.634  0.00  0.00    +0.053 C 
ATOM     13  O   LIG A   1      -0.552   1.822  -2.866  0.00  0.00    -0.292 OA
ATOM     14  C   LIG A   1      -0.612   2.999   1.859  0.00  0.00    -0.031 C 
ATOM     15  C   LIG A   1      -0.039   4.398   1.507  0.00  0.00    +0.011 C 
ATOM     16  C   LIG A   1      -2.127   3.203   2.078  0.00  0.00    +0.011 C 
ATOM     17  C   LIG A   1       0.026   2.531   3.194  0.00  0.00    +0.007 C 
ATOM     18  C   LIG A   1       1.247   1.650   2.976  0.00  0.00    +0.001 C 
ATOM     19  C   LIG A   1       0.906   0.352   2.236  0.00  0.00    +0.011 C 
ENDROOT
BRANCH  10  20
ATOM     20  C   LIG A   1       2.814  -1.830  -2.095  0.00  0.00    -0.024 C 
ATOM     21  C   LIG A   1       3.496  -0.674  -2.073  0.00  0.00    +0.004 C 
ENDBRANCH  10  20
BRANCH   9  22
ATOM     22  O   LIG A   1      -0.732  -2.998  -1.432  0.00  0.00    -0.460 OA
BRANCH  22  23
ATOM     23  C   LIG A   1      -1.348  -3.960  -0.705  0.00  0.00    +0.304 C 
ATOM     24  C   LIG A   1      -2.759  -4.132  -1.165  0.00  0.00    +0.136 C 
ATOM     25  O   LIG A   1      -0.827  -4.610   0.203  0.00  0.00    -0.251 OA
ENDBRANCH  22  23
ENDBRANCH   9  22
TORSDOF 3
