@<TRIPOS>MOLECULE
NuBBE_1312
 55 57 0 0 0
SMALL
GASTEIGER

@<TRIPOS>ATOM
      1 O          -3.6804    0.6282    0.7730 O.2     1  LIG1       -0.2830
      2 C          -2.4488    0.5416    0.6006 C.ar    1  LIG1        0.2382
      3 C          -1.7603   -0.7885    0.4487 C.ar    1  LIG1        0.2107
      4 O          -2.4591   -1.9894    0.3114 O.3     1  LIG1       -0.4883
      5 C          -3.8689   -1.9121    0.0953 C.3     1  LIG1        0.0791
      6 C          -0.4125   -0.7777    0.4707 C.ar    1  LIG1        0.1810
      7 O           0.3507    0.3535    0.6364 O.2     1  LIG1       -0.4507
      8 C          -0.2538    1.5746    0.5463 C.ar    1  LIG1        0.1468
      9 C          -1.6349    1.7584    0.5259 C.ar    1  LIG1        0.1131
     10 C          -2.1701    3.0690    0.4181 C.ar    1  LIG1        0.1797
     11 O          -3.5430    3.1592    0.4698 O.3     1  LIG1       -0.4905
     12 C          -4.1991    4.2277   -0.1969 C.3     1  LIG1        0.0790
     13 C          -1.3007    4.1751    0.3401 C.ar    1  LIG1        0.2045
     14 O          -1.8683    5.4259    0.3850 O.3     1  LIG1       -0.4885
     15 C          -1.2989    6.4491   -0.4238 C.3     1  LIG1        0.0791
     16 C           0.0947    3.9598    0.3559 C.ar    1  LIG1        0.1687
     17 O           0.9323    5.0414    0.3660 O.3     1  LIG1       -0.4912
     18 C           2.1815    4.8618   -0.2921 C.3     1  LIG1        0.0790
     19 C           0.6017    2.6632    0.4743 C.ar    1  LIG1        0.0270
     20 C           0.4190   -1.9844    0.3120 C.ar    1  LIG1        0.0282
     21 C           0.7859   -2.7447    1.4231 C.ar    1  LIG1       -0.0053
     22 C           1.5967   -3.8853    1.2918 C.ar    1  LIG1        0.1658
     23 O           2.0087   -4.6114    2.3902 O.3     1  LIG1       -0.4913
     24 C           1.9712   -3.9401    3.6537 C.3     1  LIG1        0.0790
     25 C           2.0021   -4.3245    0.0040 C.ar    1  LIG1        0.2035
     26 C           1.6469   -3.5440   -1.1170 C.ar    1  LIG1        0.1658
     27 O           1.9407   -4.0201   -2.3687 O.3     1  LIG1       -0.4913
     28 C           2.2113   -3.0629   -3.3827 C.3     1  LIG1        0.0790
     29 C           0.8910   -2.3699   -0.9474 C.ar    1  LIG1       -0.0053
     30 O           2.6737   -5.5301   -0.0528 O.3     1  LIG1       -0.4885
     31 C           3.5684   -5.7591   -1.1423 C.3     1  LIG1        0.0791
     32 H          -4.0908   -1.4232   -0.8597 H       1  LIG1        0.0660
     33 H          -4.3836   -1.4298    0.9307 H       1  LIG1        0.0660
     34 H          -4.2670   -2.9299    0.0577 H       1  LIG1        0.0660
     35 H          -5.2364    3.9224   -0.3726 H       1  LIG1        0.0660
     36 H          -3.7526    4.4467   -1.1723 H       1  LIG1        0.0660
     37 H          -4.2388    5.1161    0.4403 H       1  LIG1        0.0660
     38 H          -1.9907    7.2977   -0.4062 H       1  LIG1        0.0660
     39 H          -1.1851    6.1302   -1.4654 H       1  LIG1        0.0660
     40 H          -0.3608    6.8254   -0.0129 H       1  LIG1        0.0660
     41 H           2.6101    5.8535   -0.4580 H       1  LIG1        0.0660
     42 H           2.0583    4.3789   -1.2682 H       1  LIG1        0.0660
     43 H           2.8745    4.3004    0.3412 H       1  LIG1        0.0660
     44 H           1.6687    2.4739    0.5433 H       1  LIG1        0.0692
     45 H           0.4146   -2.4335    2.3941 H       1  LIG1        0.0662
     46 H           1.0262   -4.1488    4.1690 H       1  LIG1        0.0660
     47 H           2.1284   -2.8575    3.5788 H       1  LIG1        0.0660
     48 H           2.7895   -4.3223    4.2709 H       1  LIG1        0.0660
     49 H           2.6084   -3.6057   -4.2466 H       1  LIG1        0.0660
     50 H           2.9711   -2.3451   -3.0578 H       1  LIG1        0.0660
     51 H           1.2972   -2.5590   -3.7076 H       1  LIG1        0.0660
     52 H           0.6088   -1.7670   -1.8035 H       1  LIG1        0.0662
     53 H           4.1255   -6.6807   -0.9396 H       1  LIG1        0.0660
     54 H           4.2955   -4.9453   -1.2333 H       1  LIG1        0.0660
     55 H           3.0521   -5.9416   -2.0909 H       1  LIG1        0.0660
@<TRIPOS>BOND
     1     1     2    2
     2     2     3   ar
     3     3     4    1
     4     4     5    1
     5     3     6   ar
     6     6     7   ar
     7     7     8   ar
     8     8     9   ar
     9     2     9   ar
    10     9    10   ar
    11    10    11    1
    12    11    12    1
    13    10    13   ar
    14    13    14    1
    15    14    15    1
    16    13    16   ar
    17    16    17    1
    18    17    18    1
    19    16    19   ar
    20     8    19   ar
    21     6    20    1
    22    20    21   ar
    23    21    22   ar
    24    22    23    1
    25    23    24    1
    26    22    25   ar
    27    25    26   ar
    28    26    27    1
    29    27    28    1
    30    26    29   ar
    31    20    29   ar
    32    25    30    1
    33    30    31    1
    34     5    32    1
    35     5    33    1
    36     5    34    1
    37    12    35    1
    38    12    36    1
    39    12    37    1
    40    15    38    1
    41    15    39    1
    42    15    40    1
    43    18    41    1
    44    18    42    1
    45    18    43    1
    46    19    44    1
    47    21    45    1
    48    24    46    1
    49    24    47    1
    50    24    48    1
    51    28    49    1
    52    28    50    1
    53    28    51    1
    54    29    52    1
    55    31    53    1
    56    31    54    1
    57    31    55    1
