@<TRIPOS>MOLECULE
NuBBE_1066
 35 39 0 0 0
SMALL
GASTEIGER

@<TRIPOS>ATOM
      1 O          -3.4542    1.5338   -0.0140 O.2     1  LIG1       -0.2669
      2 C          -2.2561    1.6319   -0.0671 C.ar    1  LIG1        0.2621
      3 C          -1.6218    2.9506   -0.1823 C.ar    1  LIG1        0.0649
      4 C          -2.4613    4.0112   -0.3646 C.ar    1  LIG1       -0.0474
      5 C          -1.9157    5.2747   -0.5545 C.ar    1  LIG1       -0.0609
      6 C          -0.7326    5.5233    0.0752 C.ar    1  LIG1       -0.0597
      7 C           0.1766    4.4561    0.0863 C.ar    1  LIG1       -0.0355
      8 C          -0.2615    3.0936   -0.0162 C.ar    1  LIG1        0.0786
      9 N           0.5681    1.9070    0.0446 N.ar    1  LIG1       -0.2272
     10 C          -0.0008    0.7390    0.0299 C.ar    1  LIG1        0.1607
     11 N          -1.3876    0.5540   -0.0220 N.ar    1  LIG1       -0.2908
     12 C          -2.0616   -0.7525    0.1769 C.3     1  LIG1        0.0322
     13 C          -1.3321   -1.9296   -0.4743 C.3     1  LIG1       -0.0068
     14 C           0.1061   -1.8056   -0.1504 C.ar    1  LIG1       -0.0097
     15 C           0.7043   -0.5673    0.0648 C.ar    1  LIG1        0.0867
     16 N           2.0308   -0.8371    0.3110 N.ar    1  LIG1       -0.3515
     17 H           2.7305   -0.1322    0.5024 H       1  LIG1        0.1660
     18 C           2.2640   -2.2103    0.3229 C.ar    1  LIG1        0.0472
     19 C           1.0561   -2.8409    0.0361 C.ar    1  LIG1        0.0036
     20 C           0.9961   -4.2517   -0.0087 C.ar    1  LIG1       -0.0523
     21 C           2.1570   -4.9953    0.2227 C.ar    1  LIG1       -0.0611
     22 C           3.3550   -4.3451    0.5043 C.ar    1  LIG1       -0.0598
     23 C           3.4328   -2.9508    0.5622 C.ar    1  LIG1       -0.0378
     24 H          -3.5535    3.9023   -0.3737 H       1  LIG1        0.0626
     25 H          -1.6091    5.4134   -1.6442 H       1  LIG1        0.0618
     26 H          -0.5455    6.6120    0.1280 H       1  LIG1        0.0618
     27 H           1.2433    4.7036    0.0164 H       1  LIG1        0.0639
     28 H          -3.0826   -0.7434   -0.2086 H       1  LIG1        0.0496
     29 H          -2.1270   -0.9094    1.2537 H       1  LIG1        0.0496
     30 H          -1.4608   -1.8916   -1.5630 H       1  LIG1        0.0331
     31 H          -1.7575   -2.8767   -0.1257 H       1  LIG1        0.0331
     32 H           0.0610   -4.7647   -0.2195 H       1  LIG1        0.0624
     33 H           2.1137   -6.0834    0.1833 H       1  LIG1        0.0618
     34 H           4.2488   -4.9519    0.6794 H       1  LIG1        0.0618
     35 H           4.3771   -2.4669    0.7886 H       1  LIG1        0.0638
@<TRIPOS>BOND
     1     1     2    2
     2     2     3   ar
     3     3     4   ar
     4     4     5   ar
     5     5     6   ar
     6     6     7   ar
     7     7     8   ar
     8     3     8   ar
     9     8     9   ar
    10     9    10   ar
    11    10    11   ar
    12     2    11   ar
    13    11    12    1
    14    12    13    1
    15    13    14    1
    16    14    15   ar
    17    10    15    1
    18    15    16   ar
    19    16    17    1
    20    16    18   ar
    21    18    19   ar
    22    14    19   ar
    23    19    20   ar
    24    20    21   ar
    25    21    22   ar
    26    22    23   ar
    27    18    23   ar
    28     4    24    1
    29     5    25    1
    30     6    26    1
    31     7    27    1
    32    12    28    1
    33    12    29    1
    34    13    30    1
    35    13    31    1
    36    20    32    1
    37    21    33    1
    38    22    34    1
    39    23    35    1
