REMARK  Name = NuBBE_2290
REMARK  4 active torsions:
REMARK  status: ('A' for Active; 'I' for Inactive)
REMARK    1  A    between atoms: C_1  and  C_2
REMARK    2  A    between atoms: C_7  and  C_8
REMARK    3  A    between atoms: C_7  and  C_9
REMARK    4  A    between atoms: C_11  and  C_13
REMARK                            x       y       z     vdW  Elec       q    Type
REMARK                         _______ _______ _______ _____ _____    ______ ____
ROOT
ATOM      1  C   LIG A   1      -2.440   1.149   2.788  0.00  0.00    +0.039 C 
ATOM      2  C   LIG A   1      -1.460   0.408   1.926  0.00  0.00    -0.073 C 
ATOM      3  C   LIG A   1      -1.164   0.416   0.641  0.00  0.00    -0.063 C 
ATOM      4  C   LIG A   1      -1.504   1.449  -0.453  0.00  0.00    +0.035 C 
ATOM      5  C   LIG A   1      -0.411   1.028  -1.474  0.00  0.00    -0.000 C 
ATOM      6  C   LIG A   1       0.806   0.809  -0.369  0.00  0.00    -0.022 C 
ATOM      7  C   LIG A   1       1.034   2.057   0.591  0.00  0.00    +0.012 C 
ATOM      8  C   LIG A   1       2.192   0.804  -1.062  0.00  0.00    +0.012 C 
ATOM      9  C   LIG A   1       0.156  -0.488   0.247  0.00  0.00    +0.000 C 
ATOM     10  C   LIG A   1       0.400  -1.680  -0.821  0.00  0.00    -0.003 C 
ATOM     11  C   LIG A   1       1.891  -2.093  -1.011  0.00  0.00    +0.008 C 
ATOM     12  C   LIG A   1      -0.298  -1.476  -2.156  0.00  0.00    +0.004 C 
ATOM     13  C   LIG A   1      -0.211  -0.006  -2.663  0.00  0.00    +0.005 C 
ATOM     14  C   LIG A   1      -0.156  -1.362   1.479  0.00  0.00    +0.016 C 
ATOM     15  C   LIG A   1      -0.578  -0.555   2.661  0.00  0.00    +0.031 C 
ENDROOT
TORSDOF 0
