REMARK  Name = NuBBE_316
REMARK  17 active torsions:
REMARK  status: ('A' for Active; 'I' for Inactive)
REMARK    1  A    between atoms: C_1  and  C_2
REMARK    2  A    between atoms: C_2  and  C_57
REMARK    3  A    between atoms: C_3  and  O_40
REMARK    4  A    between atoms: C_7  and  C_39
REMARK    5  A    between atoms: C_12  and  C_38
REMARK    6  A    between atoms: C_18  and  C_35
REMARK    7  A    between atoms: C_21  and  C_32
REMARK    8  A    between atoms: C_24  and  C_31
REMARK    9  A    between atoms: C_26  and  C_30
REMARK   10  A    between atoms: C_32  and  O_33
REMARK   11  A    between atoms: C_35  and  O_36
REMARK   12  A    between atoms: O_40  and  C_41
REMARK   13  A    between atoms: C_44  and  C_55
REMARK   14  A    between atoms: C_46  and  O_54
REMARK   15  A    between atoms: C_48  and  O_53
REMARK   16  A    between atoms: C_50  and  O_52
REMARK   17  A    between atoms: C_55  and  O_56
REMARK                            x       y       z     vdW  Elec       q    Type
REMARK                         _______ _______ _______ _____ _____    ______ ____
ROOT
ATOM      1  C   LIG A   1      -3.467  -1.769   1.668  0.00  0.00    +0.014 C 
ATOM      2  C   LIG A   1      -2.716  -2.613   0.598  0.00  0.00    -0.005 C 
ATOM      3  C   LIG A   1      -3.174  -2.143  -0.824  0.00  0.00    +0.127 C 
ATOM      4  C   LIG A   1      -2.427  -2.936  -1.906  0.00  0.00    +0.033 C 
ATOM      5  C   LIG A   1      -0.907  -2.748  -1.828  0.00  0.00    +0.010 C 
ATOM      6  C   LIG A   1      -0.261  -3.000  -0.407  0.00  0.00    -0.025 C 
ATOM      7  C   LIG A   1      -1.171  -2.357   0.700  0.00  0.00    +0.003 C 
ATOM      8  C   LIG A   1      -0.584  -2.594   2.090  0.00  0.00    +0.005 C 
ATOM      9  C   LIG A   1       0.735  -1.845   2.216  0.00  0.00    +0.009 C 
ATOM     10  C   LIG A   1       1.852  -2.219   1.204  0.00  0.00    -0.009 C 
ATOM     11  C   LIG A   1       1.229  -2.357  -0.274  0.00  0.00    +0.006 C 
ATOM     12  C   LIG A   1       1.264  -1.048  -1.078  0.00  0.00    +0.031 C 
ATOM     13  C   LIG A   1       2.076   0.089  -0.629  0.00  0.00    -0.026 C 
ATOM     14  C   LIG A   1       2.770   0.181   0.511  0.00  0.00    -0.052 C 
ATOM     15  C   LIG A   1       3.080  -1.102   1.297  0.00  0.00    +0.094 C 
ATOM     16  C   LIG A   1       3.474  -0.793   2.790  0.00  0.00    +0.024 C 
ATOM     17  C   LIG A   1       4.200   0.539   3.064  0.00  0.00    +0.020 C 
ATOM     18  C   LIG A   1       3.463   1.762   2.482  0.00  0.00    +0.074 C 
ATOM     19  C   LIG A   1       3.319   1.552   0.942  0.00  0.00    +0.036 C 
ATOM     20  C   LIG A   1       2.659   2.810   0.242  0.00  0.00    -0.003 C 
ATOM     21  C   LIG A   1       3.394   4.130   0.591  0.00  0.00    -0.011 C 
ATOM     22  C   LIG A   1       3.665   4.282   2.089  0.00  0.00    +0.004 C 
ATOM     23  C   LIG A   1       4.336   3.034   2.666  0.00  0.00    +0.019 C 
ATOM     24  C   LIG A   1       2.672   5.369   0.047  0.00  0.00    +0.008 C 
ATOM     25  C   LIG A   1       1.131   2.922   0.425  0.00  0.00    +0.008 C 
ATOM     26  C   LIG A   1       2.403  -3.602   1.668  0.00  0.00    +0.013 C 
ATOM     27  C   LIG A   1      -0.130  -4.541  -0.304  0.00  0.00    +0.012 C 
ATOM     28  C   LIG A   1      -3.134  -4.074   0.867  0.00  0.00    +0.014 C 
ENDROOT
BRANCH  18  29
ATOM     29  C   LIG A   1       2.111   1.882   3.231  0.00  0.00    +0.311 C 
ATOM     30  O   LIG A   1       1.092   1.305   2.912  0.00  0.00    -0.250 OA
BRANCH  29  31
ATOM     31  O   LIG A   1       2.117   2.627   4.361  0.00  0.00    -0.480 OA
ATOM     32  H   LIG A   1       2.950   3.051   4.621  0.00  0.00    +0.295 HD
ENDBRANCH  29  31
ENDBRANCH  18  29
BRANCH  15  33
ATOM     33  C   LIG A   1       4.328  -1.690   0.571  0.00  0.00    +0.316 C 
ATOM     34  O   LIG A   1       4.344  -2.415  -0.413  0.00  0.00    -0.250 OA
BRANCH  33  35
ATOM     35  O   LIG A   1       5.516  -1.283   1.069  0.00  0.00    -0.480 OA
ATOM     36  H   LIG A   1       6.164  -1.714   0.473  0.00  0.00    +0.295 HD
ENDBRANCH  33  35
ENDBRANCH  15  33
BRANCH   3  37
ATOM     37  O   LIG A   1      -2.932  -0.725  -0.919  0.00  0.00    -0.345 OA
BRANCH  37  38
ATOM     38  C   LIG A   1      -3.277  -0.046  -2.131  0.00  0.00    +0.282 C 
ATOM     39  O   LIG A   1      -2.853   1.322  -1.962  0.00  0.00    -0.341 OA
ATOM     40  C   LIG A   1      -3.102   2.146  -3.103  0.00  0.00    +0.178 C 
ATOM     41  C   LIG A   1      -4.613   2.249  -3.357  0.00  0.00    +0.177 C 
ATOM     42  C   LIG A   1      -5.166   0.843  -3.568  0.00  0.00    +0.179 C 
ATOM     43  C   LIG A   1      -4.789  -0.115  -2.439  0.00  0.00    +0.201 C 
BRANCH  43  44
ATOM     44  O   LIG A   1      -5.195  -1.431  -2.861  0.00  0.00    -0.384 OA
ATOM     45  H   LIG A   1      -6.130  -1.330  -3.131  0.00  0.00    +0.210 HD
ENDBRANCH  43  44
BRANCH  42  46
ATOM     46  O   LIG A   1      -6.600   0.885  -3.684  0.00  0.00    -0.386 OA
ATOM     47  H   LIG A   1      -6.778   1.641  -4.280  0.00  0.00    +0.210 HD
ENDBRANCH  42  46
BRANCH  41  48
ATOM     48  O   LIG A   1      -4.942   3.013  -4.525  0.00  0.00    -0.387 OA
ATOM     49  H   LIG A   1      -4.306   3.762  -4.560  0.00  0.00    +0.210 HD
ENDBRANCH  41  48
BRANCH  40  50
ATOM     50  C   LIG A   1      -2.478   3.529  -2.858  0.00  0.00    +0.190 C 
BRANCH  50  51
ATOM     51  O   LIG A   1      -2.705   4.391  -3.974  0.00  0.00    -0.392 OA
ATOM     52  H   LIG A   1      -2.163   5.188  -3.823  0.00  0.00    +0.209 HD
ENDBRANCH  50  51
ENDBRANCH  40  50
ENDBRANCH  37  38
ENDBRANCH   3  37
TORSDOF 11
