@<TRIPOS>MOLECULE
NuBBE_25
 41 40 0 0 0
SMALL
GASTEIGER

@<TRIPOS>ATOM
      1 C          -4.4783   -0.5139   -3.0180 C.3     1  LIG1       -0.0653
      2 C          -5.3879   -0.6291   -1.8007 C.3     1  LIG1       -0.0559
      3 C          -4.9506   -1.7088   -0.8018 C.3     1  LIG1       -0.0530
      4 C          -3.5517   -1.4352   -0.2458 C.3     1  LIG1       -0.0496
      5 C          -3.0778   -2.4778    0.7677 C.3     1  LIG1       -0.0345
      6 C          -1.6786   -2.2464    1.3003 C.2     1  LIG1       -0.0840
      7 C          -0.6794   -1.6260    0.6492 C.2     1  LIG1       -0.0655
      8 C           0.6778   -1.5174    1.1514 C.2     1  LIG1       -0.0571
      9 C           1.6423   -0.8653    0.4851 C.2     1  LIG1        0.0001
     10 C           3.0441   -0.9537    0.9555 C.2     1  LIG1        0.2369
     11 N           3.7382    0.2045    1.1558 N.am    1  LIG1       -0.3116
     12 H           4.6626    0.0162    1.5265 H       1  LIG1        0.1490
     13 C           3.2876    1.5882    1.1434 C.3     1  LIG1        0.0142
     14 C           4.4512    2.5583    0.8559 C.3     1  LIG1       -0.0311
     15 C           5.1089    2.2975   -0.5022 C.3     1  LIG1       -0.0612
     16 C           3.9919    4.0176    0.9119 C.3     1  LIG1       -0.0612
     17 O           3.5842   -2.0327    1.1262 O.2     1  LIG1       -0.2708
     18 H          -4.8089    0.3070   -3.6613 H       1  LIG1        0.0230
     19 H          -4.4925   -1.4379   -3.6041 H       1  LIG1        0.0230
     20 H          -3.4423   -0.2995   -2.7411 H       1  LIG1        0.0230
     21 H          -6.4057   -0.8503   -2.1428 H       1  LIG1        0.0263
     22 H          -5.4288    0.3412   -1.2918 H       1  LIG1        0.0263
     23 H          -4.9777   -2.6917   -1.2873 H       1  LIG1        0.0265
     24 H          -5.6745   -1.7388    0.0218 H       1  LIG1        0.0265
     25 H          -3.5371   -0.4415    0.2188 H       1  LIG1        0.0268
     26 H          -2.8465   -1.4225   -1.0798 H       1  LIG1        0.0268
     27 H          -3.1047   -3.4767    0.3139 H       1  LIG1        0.0307
     28 H          -3.7773   -2.4994    1.6124 H       1  LIG1        0.0307
     29 H          -1.4956   -2.6604    2.2907 H       1  LIG1        0.0572
     30 H          -0.8455   -1.2265   -0.3481 H       1  LIG1        0.0614
     31 H           0.9104   -2.0405    2.0771 H       1  LIG1        0.0619
     32 H           1.4738   -0.3585   -0.4549 H       1  LIG1        0.0669
     33 H           2.8814    1.7935    2.1423 H       1  LIG1        0.0465
     34 H           2.4742    1.7107    0.4227 H       1  LIG1        0.0465
     35 H           5.2142    2.4140    1.6327 H       1  LIG1        0.0311
     36 H           4.4129    2.4957   -1.3246 H       1  LIG1        0.0233
     37 H           5.4580    1.2648   -0.5935 H       1  LIG1        0.0233
     38 H           5.9782    2.9515   -0.6347 H       1  LIG1        0.0233
     39 H           3.4574    4.3039   -0.0009 H       1  LIG1        0.0233
     40 H           4.8589    4.6819    1.0066 H       1  LIG1        0.0233
     41 H           3.3335    4.2044    1.7653 H       1  LIG1        0.0233
@<TRIPOS>BOND
     1     1     2    1
     2     2     3    1
     3     3     4    1
     4     4     5    1
     5     5     6    1
     6     6     7    2
     7     7     8    1
     8     8     9    2
     9     9    10    1
    10    10    11   am
    11    11    12    1
    12    11    13    1
    13    13    14    1
    14    14    15    1
    15    14    16    1
    16    10    17    2
    17     1    18    1
    18     1    19    1
    19     1    20    1
    20     2    21    1
    21     2    22    1
    22     3    23    1
    23     3    24    1
    24     4    25    1
    25     4    26    1
    26     5    27    1
    27     5    28    1
    28     6    29    1
    29     7    30    1
    30     8    31    1
    31     9    32    1
    32    13    33    1
    33    13    34    1
    34    14    35    1
    35    15    36    1
    36    15    37    1
    37    15    38    1
    38    16    39    1
    39    16    40    1
    40    16    41    1
