REMARK  Name = NuBBE_2370
REMARK  8 active torsions:
REMARK  status: ('A' for Active; 'I' for Inactive)
REMARK    1  A    between atoms: C_5  and  C_7
REMARK    2  A    between atoms: C_7  and  C_8
REMARK    3  A    between atoms: C_14  and  C_16
REMARK    4  A    between atoms: C_16  and  C_17
REMARK    5  A    between atoms: C_19  and  O_25
REMARK    6  A    between atoms: C_20  and  O_23
REMARK    7  A    between atoms: O_23  and  C_24
REMARK    8  A    between atoms: O_25  and  C_26
REMARK                            x       y       z     vdW  Elec       q    Type
REMARK                         _______ _______ _______ _____ _____    ______ ____
ROOT
ATOM      1  C   LIG A   1       0.510   2.182   1.845  0.00  0.00    +0.109 C 
ATOM      2  C   LIG A   1       1.682   2.490   2.739  0.00  0.00    +0.311 C 
ATOM      3  O   LIG A   1       1.927   3.577   3.222  0.00  0.00    -0.251 OA
ATOM      4  O   LIG A   1       2.429   1.369   2.955  0.00  0.00    -0.464 OA
ATOM      5  C   LIG A   1       1.795   0.253   2.335  0.00  0.00    +0.236 C 
ATOM      6  C   LIG A   1       0.930   0.842   1.236  0.00  0.00    +0.045 C 
ENDROOT
BRANCH   1   7
ATOM      7  C   LIG A   1      -0.769   2.144   2.700  0.00  0.00    +0.050 C 
BRANCH   7  12
ATOM      8  C   LIG A   1      -4.251   0.802   1.876  0.00  0.00    +0.050 A 
ATOM      9  C   LIG A   1      -4.365   1.114   0.524  0.00  0.00    +0.162 A 
ATOM     10  C   LIG A   1      -3.331   1.798  -0.116  0.00  0.00    +0.162 A 
ATOM     11  C   LIG A   1      -2.203   2.196   0.597  0.00  0.00    +0.053 A 
ATOM     12  C   LIG A   1      -2.040   1.829   1.940  0.00  0.00    -0.043 A 
ATOM     13  C   LIG A   1      -3.096   1.159   2.582  0.00  0.00    +0.007 A 
ATOM     14  O   LIG A   1      -3.338   2.100  -1.454  0.00  0.00    -0.485 OA
ATOM     15  C   LIG A   1      -4.308   1.311  -2.149  0.00  0.00    +0.270 C 
ATOM     16  C   LIG A   1      -5.632   1.333  -1.403  0.00  0.00    +0.270 C 
ATOM     17  O   LIG A   1      -5.504   0.705  -0.121  0.00  0.00    -0.485 OA
ENDBRANCH   7  12
ENDBRANCH   1   7
BRANCH   6  18
ATOM     18  C   LIG A   1       1.728   1.069  -0.071  0.00  0.00    +0.042 C 
BRANCH  18  19
ATOM     19  C   LIG A   1       2.301  -0.206  -0.639  0.00  0.00    -0.043 A 
ATOM     20  C   LIG A   1       1.453  -1.262  -0.996  0.00  0.00    +0.053 A 
ATOM     21  C   LIG A   1       1.966  -2.475  -1.467  0.00  0.00    +0.162 A 
ATOM     22  C   LIG A   1       3.353  -2.605  -1.658  0.00  0.00    +0.162 A 
ATOM     23  C   LIG A   1       4.204  -1.559  -1.279  0.00  0.00    +0.050 A 
ATOM     24  C   LIG A   1       3.682  -0.366  -0.778  0.00  0.00    +0.007 A 
BRANCH  22  25
ATOM     25  O   LIG A   1       3.817  -3.788  -2.179  0.00  0.00    -0.491 OA
ATOM     26  C   LIG A   1       5.011  -3.677  -2.950  0.00  0.00    +0.277 C 
ENDBRANCH  22  25
BRANCH  21  27
ATOM     27  O   LIG A   1       1.167  -3.536  -1.816  0.00  0.00    -0.491 OA
ATOM     28  C   LIG A   1      -0.053  -3.661  -1.089  0.00  0.00    +0.277 C 
ENDBRANCH  21  27
ENDBRANCH  18  19
ENDBRANCH   6  18
TORSDOF 6
