REMARK  Name = NuBBE_1161
REMARK  3 active torsions:
REMARK  status: ('A' for Active; 'I' for Inactive)
REMARK    1  A    between atoms: C_1  and  C_2
REMARK    2  A    between atoms: C_2  and  C_3
REMARK    3  A    between atoms: C_16  and  C_18
REMARK                            x       y       z     vdW  Elec       q    Type
REMARK                         _______ _______ _______ _____ _____    ______ ____
ROOT
ATOM      1  C   LIG A   1      -2.902  -1.493   1.524  0.00  0.00    +0.011 C 
ATOM      2  C   LIG A   1      -1.823  -0.813   0.706  0.00  0.00    -0.028 C 
ATOM      3  C   LIG A   1      -2.395   0.363  -0.047  0.00  0.00    +0.011 C 
ATOM      4  C   LIG A   1      -0.339  -0.751   1.120  0.00  0.00    +0.002 C 
ATOM      5  C   LIG A   1      -0.815  -1.830   0.171  0.00  0.00    -0.001 C 
ATOM      6  C   LIG A   1      -0.688  -1.953  -1.310  0.00  0.00    +0.009 C 
ATOM      7  C   LIG A   1       0.730  -1.912  -1.872  0.00  0.00    +0.031 C 
ATOM      8  C   LIG A   1       1.582  -0.677  -1.634  0.00  0.00    -0.073 C 
ATOM      9  C   LIG A   1       2.796  -0.662  -2.187  0.00  0.00    +0.008 C 
ATOM     10  C   LIG A   1       0.964   0.463  -0.823  0.00  0.00    +0.018 C 
ATOM     11  C   LIG A   1       0.817   0.117   0.676  0.00  0.00    +0.003 C 
ATOM     12  C   LIG A   1       0.985   1.440   1.454  0.00  0.00    -0.010 C 
ATOM     13  C   LIG A   1      -0.275   2.258   1.711  0.00  0.00    +0.008 C 
ATOM     14  C   LIG A   1       1.981   2.217   0.592  0.00  0.00    +0.004 C 
ATOM     15  C   LIG A   1       1.659   1.844  -0.851  0.00  0.00    +0.008 C 
ENDROOT
TORSDOF 0
