@<TRIPOS>MOLECULE
NuBBE_2143
 38 37 0 0 0
SMALL
GASTEIGER

@<TRIPOS>ATOM
      1 O           2.2222    2.1482   -5.4023 O.3     1  LIG1       -0.4806
      2 C           3.2490    2.1038   -4.5216 C.2     1  LIG1        0.3047
      3 C           2.7994    2.2229   -3.0762 C.3     1  LIG1        0.0448
      4 C           1.4304    1.5659   -2.8456 C.3     1  LIG1       -0.0430
      5 C           0.9519    1.6400   -1.3938 C.3     1  LIG1       -0.0526
      6 C          -0.4131    0.9571   -1.1673 C.3     1  LIG1       -0.0530
      7 C          -0.8255    1.0795    0.3077 C.3     1  LIG1       -0.0531
      8 C          -2.1787    0.4581    0.6779 C.3     1  LIG1       -0.0531
      9 C          -2.3126   -1.0460    0.4199 C.3     1  LIG1       -0.0531
     10 C          -1.2785   -1.9098    1.1509 C.3     1  LIG1       -0.0531
     11 C          -1.3622   -1.7767    2.6753 C.3     1  LIG1       -0.0533
     12 C          -0.3224   -2.6484    3.3770 C.3     1  LIG1       -0.0559
     13 C          -0.4050   -2.5096    4.8901 C.3     1  LIG1       -0.0653
     14 O           4.3936    2.0128   -4.9069 O.2     1  LIG1       -0.2510
     15 H           2.6446    1.9955   -6.2719 H       1  LIG1        0.2951
     16 H           2.7884    3.2844   -2.8057 H       1  LIG1        0.0377
     17 H           3.5614    1.7239   -2.4648 H       1  LIG1        0.0377
     18 H           1.4857    0.5194   -3.1695 H       1  LIG1        0.0270
     19 H           0.6845    2.0573   -3.4810 H       1  LIG1        0.0270
     20 H           0.8711    2.6935   -1.1014 H       1  LIG1        0.0265
     21 H           1.6983    1.1756   -0.7389 H       1  LIG1        0.0265
     22 H          -0.3498   -0.0971   -1.4610 H       1  LIG1        0.0265
     23 H          -1.1767    1.4245   -1.8013 H       1  LIG1        0.0265
     24 H          -0.8720    2.1443    0.5680 H       1  LIG1        0.0265
     25 H          -0.0412    0.6474    0.9398 H       1  LIG1        0.0265
     26 H          -2.9824    0.9833    0.1488 H       1  LIG1        0.0265
     27 H          -2.3598    0.6520    1.7430 H       1  LIG1        0.0265
     28 H          -2.2489   -1.2397   -0.6571 H       1  LIG1        0.0265
     29 H          -3.3186   -1.3653    0.7235 H       1  LIG1        0.0265
     30 H          -0.2707   -1.6519    0.8072 H       1  LIG1        0.0265
     31 H          -1.4402   -2.9583    0.8705 H       1  LIG1        0.0265
     32 H          -2.3684   -2.0587    3.0093 H       1  LIG1        0.0265
     33 H          -1.2013   -0.7361    2.9758 H       1  LIG1        0.0265
     34 H           0.6838   -2.3642    3.0474 H       1  LIG1        0.0263
     35 H          -0.4729   -3.6979    3.1018 H       1  LIG1        0.0263
     36 H          -0.1056   -1.5055    5.2083 H       1  LIG1        0.0230
     37 H           0.2637   -3.2296    5.3720 H       1  LIG1        0.0230
     38 H          -1.4215   -2.6946    5.2521 H       1  LIG1        0.0230
@<TRIPOS>BOND
     1     1     2    1
     2     2     3    1
     3     3     4    1
     4     4     5    1
     5     5     6    1
     6     6     7    1
     7     7     8    1
     8     8     9    1
     9     9    10    1
    10    10    11    1
    11    11    12    1
    12    12    13    1
    13     2    14    2
    14     1    15    1
    15     3    16    1
    16     3    17    1
    17     4    18    1
    18     4    19    1
    19     5    20    1
    20     5    21    1
    21     6    22    1
    22     6    23    1
    23     7    24    1
    24     7    25    1
    25     8    26    1
    26     8    27    1
    27     9    28    1
    28     9    29    1
    29    10    30    1
    30    10    31    1
    31    11    32    1
    32    11    33    1
    33    12    34    1
    34    12    35    1
    35    13    36    1
    36    13    37    1
    37    13    38    1
