@<TRIPOS>MOLECULE
NuBBE_1031
 36 36 0 0 0
SMALL
GASTEIGER

@<TRIPOS>ATOM
      1 O          -1.2456    0.7831   -2.4002 O.3     1  LIG1       -0.3864
      2 C          -2.0010    1.0768   -1.2219 C.3     1  LIG1        0.1145
      3 H          -3.0229    1.3132   -1.5393 H       1  LIG1        0.0648
      4 C          -1.3629    2.2224   -0.4435 C.3     1  LIG1        0.1134
      5 H          -0.8117    2.9054   -1.0990 H       1  LIG1        0.0647
      6 O          -0.3948    1.6331    0.4506 O.3     1  LIG1       -0.3363
      7 C          -0.6105    0.2083    0.5218 C.3     1  LIG1        0.2229
      8 C          -1.9303   -0.0904   -0.2474 C.3     1  LIG1        0.1394
      9 H          -1.8763   -1.0585   -0.7587 H       1  LIG1        0.0675
     10 O          -3.1024   -0.0967    0.5804 O.3     1  LIG1       -0.3837
     11 C          -0.6779   -0.2204    2.0109 C.3     1  LIG1        0.1008
     12 O          -1.7323    0.4105    2.7436 O.3     1  LIG1       -0.3896
     13 O           0.4358   -0.4665   -0.2077 O.3     1  LIG1       -0.3446
     14 C           1.7553   -0.2439    0.2896 C.3     1  LIG1        0.0511
     15 C           2.7643   -1.0148   -0.5618 C.3     1  LIG1       -0.0296
     16 C           2.5427   -2.5287   -0.5005 C.3     1  LIG1       -0.0538
     17 C           3.5959   -3.2796   -1.3013 C.3     1  LIG1       -0.0652
     18 C          -2.3700    3.0180    0.3957 C.3     1  LIG1        0.0730
     19 O          -1.6993    4.0647    1.0976 O.3     1  LIG1       -0.3924
     20 H          -0.3271    0.5983   -2.1254 H       1  LIG1        0.2100
     21 H          -3.8211   -0.4813    0.0410 H       1  LIG1        0.2101
     22 H           0.2419    0.0531    2.5341 H       1  LIG1        0.0612
     23 H          -0.7936   -1.3062    2.0942 H       1  LIG1        0.0612
     24 H          -2.5419    0.3026    2.2015 H       1  LIG1        0.2096
     25 H           1.8426   -0.5853    1.3246 H       1  LIG1        0.0561
     26 H           1.9903    0.8245    0.2439 H       1  LIG1        0.0561
     27 H           3.7759   -0.7784   -0.2105 H       1  LIG1        0.0287
     28 H           2.6889   -0.6853   -1.6047 H       1  LIG1        0.0287
     29 H           1.5508   -2.7804   -0.8921 H       1  LIG1        0.0263
     30 H           2.5764   -2.8692    0.5412 H       1  LIG1        0.0263
     31 H           3.5919   -2.9646   -2.3496 H       1  LIG1        0.0230
     32 H           3.4006   -4.3562   -1.2694 H       1  LIG1        0.0230
     33 H           4.5970   -3.1053   -0.8937 H       1  LIG1        0.0230
     34 H          -2.8691    2.4015    1.1472 H       1  LIG1        0.0584
     35 H          -3.1326    3.4746   -0.2419 H       1  LIG1        0.0584
     36 H          -1.0270    3.6216    1.6508 H       1  LIG1        0.2095
@<TRIPOS>BOND
     1     2     4    1
     2     4     5    1
     3     4     6    1
     4     6     7    1
     5     7     8    1
     6     2     8    1
     7     7    11    1
     8    11    12    1
     9     7    13    1
    10    13    14    1
    11    14    15    1
    12    15    16    1
    13    16    17    1
    14     4    18    1
    15    18    19    1
    16     2     3    1
    17     2     1    1
    18     8    10    1
    19     8     9    1
    20     1    20    1
    21    10    21    1
    22    11    22    1
    23    11    23    1
    24    12    24    1
    25    14    25    1
    26    14    26    1
    27    15    27    1
    28    15    28    1
    29    16    29    1
    30    16    30    1
    31    17    31    1
    32    17    32    1
    33    17    33    1
    34    18    34    1
    35    18    35    1
    36    19    36    1
