REMARK  Name = NuBBE_391
REMARK  19 active torsions:
REMARK  status: ('A' for Active; 'I' for Inactive)
REMARK    1  A    between atoms: C_1  and  C_2
REMARK    2  A    between atoms: C_11  and  C_12
REMARK    3  A    between atoms: C_17  and  O_21
REMARK    4  A    between atoms: O_21  and  C_22
REMARK    5  A    between atoms: C_25  and  C_27
REMARK    6  A    between atoms: C_27  and  O_28
REMARK    7  A    between atoms: C_29  and  O_37
REMARK    8  A    between atoms: C_31  and  O_36
REMARK    9  A    between atoms: C_33  and  O_35
REMARK   10  A    between atoms: C_40  and  C_42
REMARK   11  A    between atoms: C_42  and  C_44
REMARK   12  A    between atoms: C_42  and  C_53
REMARK   13  A    between atoms: C_44  and  C_45
REMARK   14  A    between atoms: C_45  and  C_46
REMARK   15  A    between atoms: C_46  and  C_48
REMARK   16  A    between atoms: C_46  and  C_51
REMARK   17  A    between atoms: C_48  and  C_49
REMARK   18  A    between atoms: C_48  and  C_50
REMARK   19  A    between atoms: C_51  and  C_52
REMARK                            x       y       z     vdW  Elec       q    Type
REMARK                         _______ _______ _______ _____ _____    ______ ____
ROOT
ATOM      1  C   LIG A   1      -0.423   0.718   0.491  0.00  0.00    +0.012 C 
ATOM      2  C   LIG A   1      -0.924   0.595   1.948  0.00  0.00    -0.026 C 
ATOM      3  C   LIG A   1      -2.420   0.970   2.109  0.00  0.00    -0.001 C 
ATOM      4  C   LIG A   1      -3.485  -0.054   1.673  0.00  0.00    +0.000 C 
ATOM      5  C   LIG A   1      -2.994  -1.414   1.069  0.00  0.00    +0.003 C 
ATOM      6  C   LIG A   1      -1.524  -1.795   1.423  0.00  0.00    +0.005 C 
ATOM      7  C   LIG A   1      -0.819  -0.859   2.425  0.00  0.00    +0.007 C 
ATOM      8  C   LIG A   1      -3.527  -1.777  -0.406  0.00  0.00    -0.008 C 
ATOM      9  C   LIG A   1      -4.503  -2.980  -0.236  0.00  0.00    +0.016 C 
ATOM     10  C   LIG A   1      -4.311  -0.657  -1.093  0.00  0.00    -0.065 C 
ATOM     11  C   LIG A   1      -4.828   0.400  -0.417  0.00  0.00    -0.027 C 
ATOM     12  C   LIG A   1      -4.747   0.532   1.048  0.00  0.00    +0.031 C 
ATOM     13  C   LIG A   1      -4.640  -0.786  -2.567  0.00  0.00    +0.062 C 
ATOM     14  C   LIG A   1      -3.484  -1.295  -3.444  0.00  0.00    +0.126 C 
ATOM     15  C   LIG A   1      -2.852  -2.526  -2.799  0.00  0.00    +0.033 C 
ATOM     16  C   LIG A   1      -2.388  -2.225  -1.371  0.00  0.00    +0.013 C 
ATOM     17  C   LIG A   1      -2.444   2.438   1.711  0.00  0.00    +0.004 C 
ATOM     18  C   LIG A   1      -1.161   2.981   2.385  0.00  0.00    +0.004 C 
ATOM     19  C   LIG A   1      -0.322   1.733   2.841  0.00  0.00    -0.002 C 
ENDROOT
BRANCH  19  20
ATOM     20  C   LIG A   1       1.209   2.018   2.994  0.00  0.00    -0.010 C 
ATOM     21  C   LIG A   1       1.886   2.636   1.766  0.00  0.00    +0.008 C 
BRANCH  20  22
ATOM     22  C   LIG A   1       2.010   0.792   3.516  0.00  0.00    +0.004 C 
BRANCH  22  23
ATOM     23  C   LIG A   1       3.477   1.114   3.911  0.00  0.00    +0.004 C 
BRANCH  23  24
ATOM     24  C   LIG A   1       4.304  -0.071   4.500  0.00  0.00    -0.009 C 
BRANCH  24  25
ATOM     25  C   LIG A   1       5.772   0.352   4.874  0.00  0.00    -0.014 C 
ATOM     26  C   LIG A   1       5.848   1.582   5.794  0.00  0.00    +0.007 C 
ATOM     27  C   LIG A   1       6.561  -0.775   5.560  0.00  0.00    +0.007 C 
ENDBRANCH  24  25
BRANCH  24  28
ATOM     28  C   LIG A   1       4.271  -1.311   3.565  0.00  0.00    +0.000 C 
ATOM     29  C   LIG A   1       5.018  -1.174   2.241  0.00  0.00    +0.004 C 
ENDBRANCH  24  28
ENDBRANCH  23  24
ENDBRANCH  22  23
ENDBRANCH  20  22
ENDBRANCH  19  20
BRANCH  14  30
ATOM     30  O   LIG A   1      -2.570  -0.213  -3.648  0.00  0.00    -0.345 OA
BRANCH  30  31
ATOM     31  C   LIG A   1      -1.420  -0.476  -4.461  0.00  0.00    +0.282 C 
ATOM     32  O   LIG A   1      -0.683   0.759  -4.505  0.00  0.00    -0.341 OA
ATOM     33  C   LIG A   1       0.527   0.683  -5.261  0.00  0.00    +0.178 C 
ATOM     34  C   LIG A   1       0.206   0.366  -6.729  0.00  0.00    +0.177 C 
ATOM     35  C   LIG A   1      -0.531  -0.967  -6.777  0.00  0.00    +0.179 C 
ATOM     36  C   LIG A   1      -1.775  -0.957  -5.892  0.00  0.00    +0.201 C 
BRANCH  36  37
ATOM     37  O   LIG A   1      -2.306  -2.295  -5.920  0.00  0.00    -0.384 OA
ATOM     38  H   LIG A   1      -2.343  -2.530  -6.870  0.00  0.00    +0.210 HD
ENDBRANCH  36  37
BRANCH  35  39
ATOM     39  O   LIG A   1      -0.915  -1.277  -8.127  0.00  0.00    -0.386 OA
ATOM     40  H   LIG A   1      -0.115  -1.084  -8.659  0.00  0.00    +0.210 HD
ENDBRANCH  35  39
BRANCH  34  41
ATOM     41  O   LIG A   1       1.365   0.242  -7.559  0.00  0.00    -0.387 OA
ATOM     42  H   LIG A   1       1.972   0.971  -7.300  0.00  0.00    +0.210 HD
ENDBRANCH  34  41
BRANCH  33  43
ATOM     43  C   LIG A   1       1.266   2.019  -5.119  0.00  0.00    +0.190 C 
BRANCH  43  44
ATOM     44  O   LIG A   1       2.473   2.017  -5.880  0.00  0.00    -0.392 OA
ATOM     45  H   LIG A   1       2.958   2.827  -5.631  0.00  0.00    +0.209 HD
ENDBRANCH  43  44
ENDBRANCH  33  43
ENDBRANCH  30  31
ENDBRANCH  14  30
TORSDOF 13
