@<TRIPOS>MOLECULE
NuBBE_2380
 59 61 0 0 0
SMALL
GASTEIGER

@<TRIPOS>ATOM
      1 C           0.7775   -3.6485    0.6997 C.3     1  LIG1       -0.0273
      2 C          -0.0545   -2.2889    0.8414 C.3     1  LIG1        0.0025
      3 C          -0.0395   -1.2738   -0.4337 C.3     1  LIG1        0.1032
      4 C          -1.4220   -1.5512   -1.0895 C.2     1  LIG1        0.3182
      5 O          -2.4808   -0.9657   -0.7340 O.2     1  LIG1       -0.2498
      6 O          -1.4410   -2.6206   -1.9119 O.3     1  LIG1       -0.4673
      7 C          -2.7103   -3.1989   -2.2755 C.3     1  LIG1        0.0817
      8 C           0.0238    0.2798   -0.0773 C.ar    1  LIG1        0.0224
      9 C          -0.0090    1.3724   -1.0316 C.ar    1  LIG1        0.1666
     10 C           0.0131    2.7591   -0.5895 C.ar    1  LIG1        0.1652
     11 O           0.3255    3.6993   -1.5453 O.3     1  LIG1       -0.4912
     12 C          -0.3027    4.9726   -1.5656 C.3     1  LIG1        0.0790
     13 C          -0.0383    3.0642    0.7888 C.ar    1  LIG1        0.0011
     14 C           0.0328    1.9783    1.6748 C.ar    1  LIG1       -0.0472
     15 C           0.0956    0.6341    1.2729 C.ar    1  LIG1       -0.0171
     16 C           0.2720   -0.3250    2.3541 C.2     1  LIG1       -0.0578
     17 C           0.2112   -1.6403    2.1693 C.2     1  LIG1       -0.0785
     18 C          -0.1275    4.4357    1.4537 C.3     1  LIG1       -0.0179
     19 C          -1.3675    4.5568    2.3470 C.3     1  LIG1       -0.0585
     20 C           1.1700    4.8946    2.1292 C.3     1  LIG1       -0.0585
     21 O           0.0442    1.0011   -2.3658 O.3     1  LIG1       -0.4911
     22 C          -0.5294    1.8260   -3.3853 C.3     1  LIG1        0.0790
     23 C           1.2199   -1.6255   -1.2599 C.3     1  LIG1       -0.0324
     24 C           1.3514   -3.0771   -1.7303 C.3     1  LIG1       -0.0512
     25 C           0.8061   -4.1210   -0.7629 C.3     1  LIG1       -0.0473
     26 C           0.0812   -4.7713    1.5215 C.3     1  LIG1       -0.0592
     27 C           2.2343   -3.5771    1.2260 C.3     1  LIG1       -0.0592
     28 H          -1.0989   -2.6237    0.9486 H       1  LIG1        0.0362
     29 H          -3.5683   -2.7509   -1.7636 H       1  LIG1        0.0661
     30 H          -2.6931   -4.2669   -2.0321 H       1  LIG1        0.0661
     31 H          -2.8346   -3.0989   -3.3560 H       1  LIG1        0.0661
     32 H           0.1235    5.6360   -0.8214 H       1  LIG1        0.0660
     33 H          -1.3960    4.9040   -1.5251 H       1  LIG1        0.0660
     34 H          -0.0209    5.4891   -2.4887 H       1  LIG1        0.0660
     35 H           0.0541    2.1906    2.7429 H       1  LIG1        0.0627
     36 H           0.4501    0.0624    3.3528 H       1  LIG1        0.0621
     37 H           0.3183   -2.2739    3.0463 H       1  LIG1        0.0576
     38 H          -0.3528    5.2137    0.7529 H       1  LIG1        0.0345
     39 H          -1.3217    3.9333    3.2420 H       1  LIG1        0.0235
     40 H          -2.2590    4.2734    1.7725 H       1  LIG1        0.0235
     41 H          -1.5043    5.5979    2.6600 H       1  LIG1        0.0235
     42 H           1.3341    4.4235    3.1029 H       1  LIG1        0.0235
     43 H           1.1396    5.9803    2.2902 H       1  LIG1        0.0235
     44 H           2.0424    4.6956    1.4951 H       1  LIG1        0.0235
     45 H          -0.1317    1.4918   -4.3516 H       1  LIG1        0.0660
     46 H          -0.2808    2.8849   -3.3632 H       1  LIG1        0.0660
     47 H          -1.6163    1.7097   -3.4076 H       1  LIG1        0.0660
     48 H           2.0912   -1.4077   -0.6242 H       1  LIG1        0.0279
     49 H           1.3610   -0.9778   -2.1265 H       1  LIG1        0.0279
     50 H           2.4113   -3.2883   -1.9219 H       1  LIG1        0.0266
     51 H           0.8570   -3.1966   -2.7018 H       1  LIG1        0.0266
     52 H           1.3962   -5.0427   -0.8656 H       1  LIG1        0.0271
     53 H          -0.2024   -4.4230   -1.0658 H       1  LIG1        0.0271
     54 H          -0.9496   -4.9307    1.1852 H       1  LIG1        0.0235
     55 H           0.0510   -4.5376    2.5907 H       1  LIG1        0.0235
     56 H           0.6099   -5.7266    1.4130 H       1  LIG1        0.0235
     57 H           2.2712   -3.4738    2.3158 H       1  LIG1        0.0235
     58 H           2.8078   -2.7540    0.7979 H       1  LIG1        0.0235
     59 H           2.7758   -4.5020    0.9860 H       1  LIG1        0.0235
@<TRIPOS>BOND
     1     1     2    1
     2     2     3    1
     3     3     4    1
     4     4     5    2
     5     4     6    1
     6     6     7    1
     7     3     8    1
     8     8     9   ar
     9     9    10   ar
    10    10    11    1
    11    11    12    1
    12    10    13   ar
    13    13    14   ar
    14    14    15   ar
    15     8    15   ar
    16    15    16    1
    17    16    17    2
    18     2    17    1
    19    13    18    1
    20    18    19    1
    21    18    20    1
    22     9    21    1
    23    21    22    1
    24     3    23    1
    25    23    24    1
    26    24    25    1
    27     1    25    1
    28     1    26    1
    29     1    27    1
    30     2    28    1
    31     7    29    1
    32     7    30    1
    33     7    31    1
    34    12    32    1
    35    12    33    1
    36    12    34    1
    37    14    35    1
    38    16    36    1
    39    17    37    1
    40    18    38    1
    41    19    39    1
    42    19    40    1
    43    19    41    1
    44    20    42    1
    45    20    43    1
    46    20    44    1
    47    22    45    1
    48    22    46    1
    49    22    47    1
    50    23    48    1
    51    23    49    1
    52    24    50    1
    53    24    51    1
    54    25    52    1
    55    25    53    1
    56    26    54    1
    57    26    55    1
    58    26    56    1
    59    27    57    1
    60    27    58    1
    61    27    59    1
