REMARK  Name = NuBBE_389
REMARK  27 active torsions:
REMARK  status: ('A' for Active; 'I' for Inactive)
REMARK    1  A    between atoms: C_1  and  C_2
REMARK    2  A    between atoms: C_2  and  C_3
REMARK    3  A    between atoms: C_3  and  C_4
REMARK    4  A    between atoms: C_4  and  C_5
REMARK    5  A    between atoms: C_5  and  O_6
REMARK    6  A    between atoms: O_6  and  C_7
REMARK    7  A    between atoms: C_10  and  C_11
REMARK    8  A    between atoms: C_11  and  C_12
REMARK    9  A    between atoms: C_12  and  O_13
REMARK   10  A    between atoms: O_13  and  C_14
REMARK   11  A    between atoms: C_14  and  C_15
REMARK   12  A    between atoms: C_15  and  C_16
REMARK   13  A    between atoms: C_16  and  C_17
REMARK   14  A    between atoms: C_17  and  C_18
REMARK   15  A    between atoms: C_18  and  C_19
REMARK   16  A    between atoms: C_19  and  C_20
REMARK   17  A    between atoms: C_20  and  C_21
REMARK   18  A    between atoms: C_21  and  C_22
REMARK   19  A    between atoms: C_22  and  C_23
REMARK   20  A    between atoms: C_23  and  C_24
REMARK   21  A    between atoms: C_24  and  C_25
REMARK   22  A    between atoms: C_25  and  C_26
REMARK   23  A    between atoms: C_26  and  C_27
REMARK   24  A    between atoms: C_27  and  C_28
REMARK   25  A    between atoms: C_28  and  C_29
REMARK   26  A    between atoms: C_29  and  C_30
REMARK   27  A    between atoms: C_30  and  C_31
REMARK                            x       y       z     vdW  Elec       q    Type
REMARK                         _______ _______ _______ _____ _____    ______ ____
ROOT
ATOM      1  C   LIG A   1       6.239   2.039   0.868  0.00  0.00    +0.307 C 
ATOM      2  O   LIG A   1       7.286   1.559   0.309  0.00  0.00    -0.251 OA
ENDROOT
BRANCH   1   3
ATOM      3  C   LIG A   1       6.029   2.168   2.353  0.00  0.00    +0.120 C 
BRANCH   3   4
ATOM      4  C   LIG A   1       5.465   0.896   3.025  0.00  0.00    +0.011 C 
BRANCH   4   5
ATOM      5  C   LIG A   1       4.023   0.410   2.686  0.00  0.00    +0.000 C 
BRANCH   5   6
ATOM      6  C   LIG A   1       2.863   1.457   2.757  0.00  0.00    +0.000 C 
BRANCH   6   7
ATOM      7  C   LIG A   1       1.402   1.004   2.357  0.00  0.00    -0.000 C 
BRANCH   7   8
ATOM      8  C   LIG A   1       0.284   2.091   2.544  0.00  0.00    -0.000 C 
BRANCH   8   9
ATOM      9  C   LIG A   1      -1.171   1.694   2.092  0.00  0.00    -0.000 C 
BRANCH   9  10
ATOM     10  C   LIG A   1      -1.782   0.548   2.925  0.00  0.00    -0.000 C 
BRANCH  10  11
ATOM     11  C   LIG A   1      -3.246   0.121   2.658  0.00  0.00    -0.000 C 
BRANCH  11  12
ATOM     12  C   LIG A   1      -3.541  -0.546   1.304  0.00  0.00    -0.000 C 
BRANCH  12  13
ATOM     13  C   LIG A   1      -5.027  -0.914   1.099  0.00  0.00    -0.000 C 
BRANCH  13  14
ATOM     14  C   LIG A   1      -6.072   0.201   1.288  0.00  0.00    -0.000 C 
BRANCH  14  15
ATOM     15  C   LIG A   1      -5.984   1.428   0.354  0.00  0.00    -0.000 C 
BRANCH  15  16
ATOM     16  C   LIG A   1      -4.703   2.253   0.494  0.00  0.00    -0.000 C 
BRANCH  16  17
ATOM     17  C   LIG A   1      -4.531   3.477  -0.390  0.00  0.00    -0.000 C 
BRANCH  17  18
ATOM     18  C   LIG A   1      -5.515   4.593  -0.108  0.00  0.00    -0.003 C 
ATOM     19  C   LIG A   1      -5.252   5.794  -1.005  0.00  0.00    +0.004 C 
ENDBRANCH  17  18
ENDBRANCH  16  17
ENDBRANCH  15  16
ENDBRANCH  14  15
ENDBRANCH  13  14
ENDBRANCH  12  13
ENDBRANCH  11  12
ENDBRANCH  10  11
ENDBRANCH   9  10
ENDBRANCH   8   9
ENDBRANCH   7   8
ENDBRANCH   6   7
ENDBRANCH   5   6
ENDBRANCH   4   5
ENDBRANCH   3   4
ENDBRANCH   1   3
BRANCH   1  20
ATOM     20  O   LIG A   1       5.122   2.423   0.226  0.00  0.00    -0.464 OA
BRANCH  20  21
ATOM     21  C   LIG A   1       4.758   1.683  -0.967  0.00  0.00    +0.237 C 
BRANCH  21  22
ATOM     22  C   LIG A   1       4.217   0.326  -0.529  0.00  0.00    +0.076 C 
BRANCH  22  26
ATOM     23  C   LIG A   1       2.544  -2.296  -3.559  0.00  0.00    +0.120 A 
ATOM     24  C   LIG A   1       3.885  -2.415  -3.146  0.00  0.00    +0.046 A 
ATOM     25  C   LIG A   1       4.428  -1.596  -2.140  0.00  0.00    +0.007 A 
ATOM     26  C   LIG A   1       3.646  -0.605  -1.553  0.00  0.00    -0.044 A 
ATOM     27  C   LIG A   1       2.300  -0.517  -1.917  0.00  0.00    +0.007 A 
ATOM     28  C   LIG A   1       1.768  -1.321  -2.940  0.00  0.00    +0.046 A 
BRANCH  23  29
ATOM     29  O   LIG A   1       2.121  -3.192  -4.512  0.00  0.00    -0.492 OA
BRANCH  29  30
ATOM     30  C   LIG A   1       0.733  -3.345  -4.856  0.00  0.00    +0.229 C 
BRANCH  30  31
ATOM     31  C   LIG A   1       0.099  -4.716  -4.486  0.00  0.00    +0.041 C 
BRANCH  31  32
ATOM     32  C   LIG A   1      -0.142  -5.157  -3.020  0.00  0.00    +0.003 C 
BRANCH  32  34
ATOM     33  C   LIG A   1       0.730  -5.925  -0.735  0.00  0.00    +0.004 C 
ATOM     34  C   LIG A   1       1.085  -5.415  -2.140  0.00  0.00    -0.003 C 
ENDBRANCH  32  34
ENDBRANCH  31  32
ENDBRANCH  30  31
ENDBRANCH  29  30
ENDBRANCH  23  29
ENDBRANCH  22  26
ENDBRANCH  21  22
ENDBRANCH  20  21
ENDBRANCH   1  20
TORSDOF 25
