REMARK  Name = NuBBE_1609
REMARK  11 active torsions:
REMARK  status: ('A' for Active; 'I' for Inactive)
REMARK    1  A    between atoms: C_1  and  C_2
REMARK    2  A    between atoms: C_4  and  C_5
REMARK    3  A    between atoms: C_6  and  C_14
REMARK    4  A    between atoms: C_23  and  C_24
REMARK    5  A    between atoms: C_28  and  O_30
REMARK    6  A    between atoms: O_30  and  C_31
REMARK    7  A    between atoms: C_31  and  C_33
REMARK    8  A    between atoms: C_34  and  C_35
REMARK    9  A    between atoms: C_34  and  C_36
REMARK   10  A    between atoms: C_40  and  O_42
REMARK   11  A    between atoms: O_42  and  C_43
REMARK                            x       y       z     vdW  Elec       q    Type
REMARK                         _______ _______ _______ _____ _____    ______ ____
ROOT
ATOM      1  C   LIG A   1      -1.546  -0.677  -1.319  0.00  0.00    +0.018 C 
ATOM      2  C   LIG A   1      -0.780  -0.521   0.020  0.00  0.00    +0.041 C 
ATOM      3  C   LIG A   1      -0.390  -1.972   0.509  0.00  0.00    +0.125 C 
ATOM      4  C   LIG A   1       0.742  -2.738  -0.212  0.00  0.00    +0.042 C 
ATOM      5  C   LIG A   1       0.277  -3.233  -1.602  0.00  0.00    +0.018 C 
ATOM      6  C   LIG A   1       1.128  -3.992   0.668  0.00  0.00    +0.218 C 
ATOM      7  O   LIG A   1      -0.021  -4.843   0.878  0.00  0.00    -0.454 OA
ATOM      8  C   LIG A   1      -1.183  -4.318   1.356  0.00  0.00    +0.340 C 
ATOM      9  O   LIG A   1      -2.107  -5.021   1.731  0.00  0.00    -0.248 OA
ATOM     10  C   LIG A   1      -1.342  -2.844   1.306  0.00  0.00    +0.260 C 
ATOM     11  O   LIG A   1      -0.311  -2.072   1.945  0.00  0.00    -0.351 OA
ATOM     12  C   LIG A   1       1.958  -1.806  -0.341  0.00  0.00    +0.014 C 
ATOM     13  C   LIG A   1       1.636  -0.424  -0.907  0.00  0.00    +0.006 C 
ATOM     14  C   LIG A   1       0.564   0.325  -0.082  0.00  0.00    +0.010 C 
ATOM     15  C   LIG A   1       0.383   1.883  -0.452  0.00  0.00    +0.002 C 
ATOM     16  C   LIG A   1      -0.152   2.036  -1.897  0.00  0.00    +0.014 C 
ATOM     17  C   LIG A   1      -0.577   2.485   0.645  0.00  0.00    +0.014 C 
ATOM     18  C   LIG A   1      -1.901   1.716   0.724  0.00  0.00    +0.050 C 
ATOM     19  C   LIG A   1      -1.739   0.217   1.032  0.00  0.00    +0.186 C 
ATOM     20  C   LIG A   1      -0.785   4.039   0.623  0.00  0.00    +0.027 C 
ATOM     21  C   LIG A   1      -1.553   4.591  -0.589  0.00  0.00    +0.019 C 
ATOM     22  C   LIG A   1      -1.556   4.503   1.885  0.00  0.00    +0.019 C 
ATOM     23  C   LIG A   1       0.605   4.671   0.659  0.00  0.00    +0.142 C 
ATOM     24  O   LIG A   1       0.894   5.601   1.415  0.00  0.00    -0.297 OA
ATOM     25  C   LIG A   1       1.611   4.186  -0.344  0.00  0.00    +0.107 C 
ATOM     26  C   LIG A   1       1.762   2.661  -0.361  0.00  0.00    +0.131 C 
ENDROOT
BRANCH   6  27
ATOM     27  C   LIG A   1       2.257  -4.827   0.110  0.00  0.00    +0.031 A 
ATOM     28  C   LIG A   1       2.165  -5.956  -0.760  0.00  0.00    +0.048 A 
ATOM     29  C   LIG A   1       3.449  -6.387  -0.988  0.00  0.00    +0.195 A 
ATOM     30  O   LIG A   1       4.333  -5.607  -0.317  0.00  0.00    -0.471 OA
ATOM     31  C   LIG A   1       3.610  -4.673   0.349  0.00  0.00    +0.202 A 
ENDBRANCH   6  27
BRANCH  26  32
ATOM     32  O   LIG A   1       2.569   2.292  -1.494  0.00  0.00    -0.379 OA
ATOM     33  C   LIG A   1       3.884   2.834  -1.497  0.00  0.00    +0.194 C 
ENDBRANCH  26  32
BRANCH  19  34
ATOM     34  O   LIG A   1      -3.071  -0.354   0.944  0.00  0.00    -0.461 OA
BRANCH  34  35
ATOM     35  C   LIG A   1      -3.900  -0.182   2.012  0.00  0.00    +0.304 C 
ATOM     36  O   LIG A   1      -3.586   0.313   3.084  0.00  0.00    -0.251 OA
ATOM     37  C   LIG A   1      -5.264  -0.709   1.685  0.00  0.00    +0.136 C 
ENDBRANCH  34  35
ENDBRANCH  19  34
TORSDOF 4
