@<TRIPOS>MOLECULE
NuBBE_1803
 54 54 0 0 0
SMALL
GASTEIGER

@<TRIPOS>ATOM
      1 O          -1.2158    5.2974    1.2671 O.2     1  LIG1       -0.2505
      2 C          -1.1299    4.0985    1.1038 C.2     1  LIG1        0.3107
      3 O          -1.4015    3.4647   -0.0831 O.3     1  LIG1       -0.4611
      4 C          -0.7665    3.0856    2.1666 C.3     1  LIG1        0.0622
      5 C          -1.9755    2.8485    3.0832 C.3     1  LIG1       -0.0116
      6 C          -1.7254    1.8358    4.2036 C.3     1  LIG1        0.0792
      7 O          -0.6663    2.3053    5.0393 O.3     1  LIG1       -0.3895
      8 C          -2.9824    1.6201    5.0604 C.3     1  LIG1        0.0732
      9 O          -2.6595    0.6686    6.0846 O.3     1  LIG1       -0.3804
     10 C          -3.7796    0.4100    6.9242 C.3     1  LIG1        0.0366
     11 C          -0.3847    1.9062    1.2977 C.3     1  LIG1       -0.0027
     12 C          -1.3214    2.0537    0.1170 C.3     1  LIG1        0.1038
     13 C          -0.8183    1.3548   -1.1394 C.3     1  LIG1       -0.0156
     14 C          -0.6574   -0.1485   -0.9078 C.3     1  LIG1       -0.0497
     15 C          -0.1415   -0.8462   -2.1542 C.3     1  LIG1       -0.0529
     16 C           0.0535   -2.3456   -1.9152 C.3     1  LIG1       -0.0531
     17 C           0.5735   -3.0604   -3.1636 C.3     1  LIG1       -0.0530
     18 C           1.9357   -2.5120   -3.5855 C.3     1  LIG1       -0.0528
     19 C           2.4823   -3.2047   -4.8284 C.3     1  LIG1       -0.0496
     20 C           3.8348   -2.6276   -5.2595 C.3     1  LIG1       -0.0350
     21 C           4.8931   -2.7679   -4.2013 C.2     1  LIG1       -0.0911
     22 C           5.5321   -1.7317   -3.6430 C.2     1  LIG1       -0.1026
     23 H           0.1068    3.4374    2.7240 H       1  LIG1        0.0415
     24 H          -2.8422    2.5267    2.4930 H       1  LIG1        0.0299
     25 H          -2.2498    3.8136    3.5296 H       1  LIG1        0.0299
     26 H          -1.4040    0.8708    3.7990 H       1  LIG1        0.0616
     27 H          -0.7174    1.7568    5.8488 H       1  LIG1        0.2099
     28 H          -3.8000    1.2302    4.4441 H       1  LIG1        0.0585
     29 H          -3.2907    2.5576    5.5372 H       1  LIG1        0.0585
     30 H          -3.4976   -0.3575    7.6501 H       1  LIG1        0.0524
     31 H          -4.6240    0.0394    6.3350 H       1  LIG1        0.0524
     32 H          -4.0669    1.3160    7.4665 H       1  LIG1        0.0524
     33 H          -0.4582    0.9321    1.7843 H       1  LIG1        0.0309
     34 H           0.6544    2.0333    0.9623 H       1  LIG1        0.0309
     35 H          -2.3293    1.6903    0.3538 H       1  LIG1        0.0734
     36 H           0.1321    1.8026   -1.4584 H       1  LIG1        0.0301
     37 H          -1.5194    1.5384   -1.9638 H       1  LIG1        0.0301
     38 H          -1.6167   -0.5841   -0.6074 H       1  LIG1        0.0266
     39 H           0.0538   -0.3284   -0.0934 H       1  LIG1        0.0266
     40 H           0.8084   -0.3743   -2.4249 H       1  LIG1        0.0265
     41 H          -0.8339   -0.6926   -2.9896 H       1  LIG1        0.0265
     42 H          -0.8976   -2.7991   -1.6112 H       1  LIG1        0.0265
     43 H           0.7575   -2.5042   -1.0881 H       1  LIG1        0.0265
     44 H          -0.1504   -2.9542   -3.9802 H       1  LIG1        0.0265
     45 H           0.6598   -4.1329   -2.9493 H       1  LIG1        0.0265
     46 H           2.6281   -2.6237   -2.7430 H       1  LIG1        0.0265
     47 H           1.8671   -1.4430   -3.8090 H       1  LIG1        0.0265
     48 H           1.7698   -3.0744   -5.6526 H       1  LIG1        0.0268
     49 H           2.5709   -4.2813   -4.6452 H       1  LIG1        0.0268
     50 H           3.7077   -1.5739   -5.5397 H       1  LIG1        0.0307
     51 H           4.1717   -3.1533   -6.1597 H       1  LIG1        0.0307
     52 H           5.1306   -3.7772   -3.8718 H       1  LIG1        0.0566
     53 H           5.3203   -0.7074   -3.9346 H       1  LIG1        0.0532
     54 H           6.2800   -1.8882   -2.8720 H       1  LIG1        0.0532
@<TRIPOS>BOND
     1     1     2    2
     2     2     3    1
     3     2     4    1
     4     4     5    1
     5     5     6    1
     6     6     7    1
     7     6     8    1
     8     8     9    1
     9     9    10    1
    10     4    11    1
    11    11    12    1
    12     3    12    1
    13    12    13    1
    14    13    14    1
    15    14    15    1
    16    15    16    1
    17    16    17    1
    18    17    18    1
    19    18    19    1
    20    19    20    1
    21    20    21    1
    22    21    22    2
    23     4    23    1
    24     5    24    1
    25     5    25    1
    26     6    26    1
    27     7    27    1
    28     8    28    1
    29     8    29    1
    30    10    30    1
    31    10    31    1
    32    10    32    1
    33    11    33    1
    34    11    34    1
    35    12    35    1
    36    13    36    1
    37    13    37    1
    38    14    38    1
    39    14    39    1
    40    15    40    1
    41    15    41    1
    42    16    42    1
    43    16    43    1
    44    17    44    1
    45    17    45    1
    46    18    46    1
    47    18    47    1
    48    19    48    1
    49    19    49    1
    50    20    50    1
    51    20    51    1
    52    21    52    1
    53    22    53    1
    54    22    54    1
