REMARK  Name = NuBBE_1461
REMARK  7 active torsions:
REMARK  status: ('A' for Active; 'I' for Inactive)
REMARK    1  A    between atoms: C_3  and  C_4
REMARK    2  A    between atoms: C_4  and  C_5
REMARK    3  A    between atoms: C_4  and  C_6
REMARK    4  A    between atoms: C_4  and  C_7
REMARK    5  A    between atoms: C_15  and  O_16
REMARK    6  A    between atoms: C_17  and  O_18
REMARK    7  A    between atoms: O_18  and  C_19
REMARK                            x       y       z     vdW  Elec       q    Type
REMARK                         _______ _______ _______ _____ _____    ______ ____
ROOT
ATOM      1  O   LIG A   1      -2.694   0.916   0.228  0.00  0.00    -0.245 OA
ATOM      2  C   LIG A   1      -1.490   0.639   0.194  0.00  0.00    +0.341 A 
ATOM      3  C   LIG A   1      -0.996  -0.777   0.138  0.00  0.00    +0.047 A 
ATOM      4  C   LIG A   1       0.340  -0.969   0.128  0.00  0.00    +0.023 A 
ATOM      5  O   LIG A   1      -0.553   1.663   0.212  0.00  0.00    -0.418 OA
ATOM      6  C   LIG A   1       0.839   1.438   0.181  0.00  0.00    +0.184 A 
ATOM      7  C   LIG A   1       1.298   0.128   0.139  0.00  0.00    +0.022 A 
ATOM      8  C   LIG A   1       2.676  -0.097   0.097  0.00  0.00    +0.015 A 
ATOM      9  C   LIG A   1       3.565   0.983   0.102  0.00  0.00    +0.050 A 
ATOM     10  C   LIG A   1       3.083   2.296   0.144  0.00  0.00    +0.162 A 
ATOM     11  C   LIG A   1       1.705   2.546   0.174  0.00  0.00    +0.205 A 
ENDROOT
BRANCH   3  12
ATOM     12  C   LIG A   1      -2.054  -1.917   0.113  0.00  0.00    +0.015 C 
ATOM     13  C   LIG A   1      -2.897  -1.911   1.410  0.00  0.00    +0.020 C 
ATOM     14  C   LIG A   1      -3.021  -1.755  -1.087  0.00  0.00    +0.020 C 
BRANCH  12  15
ATOM     15  C   LIG A   1      -1.397  -3.316   0.068  0.00  0.00    -0.023 C 
ATOM     16  C   LIG A   1      -1.526  -4.265  -0.874  0.00  0.00    +0.005 C 
ENDBRANCH  12  15
ENDBRANCH   3  12
BRANCH  10  17
ATOM     17  O   LIG A   1       3.994   3.317   0.173  0.00  0.00    -0.503 OA
ATOM     18  H   LIG A   1       4.890   2.959   0.069  0.00  0.00    +0.292 HD
ENDBRANCH  10  17
BRANCH  11  19
ATOM     19  O   LIG A   1       1.099   3.774   0.229  0.00  0.00    -0.488 OA
ATOM     20  C   LIG A   1       1.830   4.883  -0.280  0.00  0.00    +0.277 C 
ENDBRANCH  11  19
TORSDOF 4
