REMARK  Name = NuBBE_17
REMARK  15 active torsions:
REMARK  status: ('A' for Active; 'I' for Inactive)
REMARK    1  A    between atoms: O_1  and  C_2
REMARK    2  A    between atoms: C_3  and  C_4
REMARK    3  A    between atoms: C_6  and  C_7
REMARK    4  A    between atoms: C_7  and  C_8
REMARK    5  A    between atoms: C_8  and  C_9
REMARK    6  A    between atoms: C_9  and  C_10
REMARK    7  A    between atoms: C_10  and  C_11
REMARK    8  A    between atoms: C_11  and  C_12
REMARK    9  A    between atoms: C_12  and  C_13
REMARK   10  A    between atoms: C_13  and  C_14
REMARK   11  A    between atoms: C_14  and  C_15
REMARK   12  A    between atoms: C_15  and  C_16
REMARK   13  A    between atoms: C_16  and  C_17
REMARK   14  A    between atoms: C_17  and  C_18
REMARK   15  A    between atoms: C_18  and  O_19
REMARK                            x       y       z     vdW  Elec       q    Type
REMARK                         _______ _______ _______ _____ _____    ______ ____
ROOT
ATOM      1  C   LIG A   1      -1.327   3.103   1.757  0.00  0.00    +0.000 C 
ENDROOT
BRANCH   1   2
ATOM      2  C   LIG A   1       0.098   3.728   1.654  0.00  0.00    +0.006 C 
BRANCH   2   3
ATOM      3  C   LIG A   1       1.365   2.857   1.800  0.00  0.00    +0.055 C 
BRANCH   3   8
ATOM      4  C   LIG A   1       2.007   0.437  -1.659  0.00  0.00    +0.138 A 
ATOM      5  C   LIG A   1       2.537   1.672  -1.562  0.00  0.00    +0.080 A 
ATOM      6  C   LIG A   1       3.319   2.104  -2.782  0.00  0.00    +0.069 C 
ATOM      7  N   LIG A   1       2.387   2.549  -0.520  0.00  0.00    -0.253 NA
ATOM      8  C   LIG A   1       1.907   2.058   0.635  0.00  0.00    +0.042 A 
ATOM      9  C   LIG A   1       1.716   0.728   0.742  0.00  0.00    +0.027 A 
ATOM     10  C   LIG A   1       1.508   0.175  -0.508  0.00  0.00    +0.049 A 
BRANCH   4  11
ATOM     11  O   LIG A   1       1.798  -0.368  -2.718  0.00  0.00    -0.505 OA
ATOM     12  H   LIG A   1       2.319  -0.170  -3.495  0.00  0.00    +0.292 HD
ENDBRANCH   4  11
ENDBRANCH   3   8
ENDBRANCH   2   3
ENDBRANCH   1   2
BRANCH   1  13
ATOM     13  C   LIG A   1      -1.880   2.292   0.583  0.00  0.00    +0.000 C 
BRANCH  13  14
ATOM     14  C   LIG A   1      -1.212   0.972   0.292  0.00  0.00    +0.007 C 
BRANCH  14  15
ATOM     15  C   LIG A   1      -0.987  -0.112   1.391  0.00  0.00    +0.074 C 
BRANCH  15  16
ATOM     16  C   LIG A   1      -0.011  -1.453   1.071  0.00  0.00    +0.133 C 
ATOM     17  O   LIG A   1       0.638  -1.954   1.967  0.00  0.00    -0.297 OA
BRANCH  16  18
ATOM     18  C   LIG A   1       0.116  -2.020  -0.425  0.00  0.00    +0.074 C 
BRANCH  18  19
ATOM     19  C   LIG A   1       0.401  -3.439  -0.706  0.00  0.00    +0.007 C 
BRANCH  19  20
ATOM     20  C   LIG A   1      -0.707  -4.227  -0.111  0.00  0.00    +0.003 C 
BRANCH  20  21
ATOM     21  C   LIG A   1      -2.095  -3.842  -0.675  0.00  0.00    +0.028 C 
BRANCH  21  22
ATOM     22  C   LIG A   1      -2.742  -2.491  -0.322  0.00  0.00    +0.156 C 
BRANCH  22  23
ATOM     23  O   LIG A   1      -2.801  -2.322   1.079  0.00  0.00    -0.395 OA
ATOM     24  H   LIG A   1      -1.923  -2.483   1.466  0.00  0.00    +0.209 HD
ENDBRANCH  22  23
ENDBRANCH  21  22
ENDBRANCH  20  21
ENDBRANCH  19  20
ENDBRANCH  18  19
ENDBRANCH  16  18
ENDBRANCH  15  16
ENDBRANCH  14  15
ENDBRANCH  13  14
ENDBRANCH   1  13
TORSDOF 14
