@<TRIPOS>MOLECULE
NuBBE_1497
 50 49 0 0 0
SMALL
GASTEIGER

@<TRIPOS>ATOM
      1 C          -0.9792   -3.1056   -0.9941 C.3     1  LIG1       -0.0531
      2 C          -0.4119   -3.4001    0.4098 C.3     1  LIG1       -0.0531
      3 C          -1.2847   -3.0460    1.6305 C.3     1  LIG1       -0.0531
      4 C          -1.5865   -1.5727    1.9552 C.3     1  LIG1       -0.0531
      5 C          -0.3691   -0.6618    2.0822 C.3     1  LIG1       -0.0531
      6 C          -0.7841    0.8019    2.2577 C.3     1  LIG1       -0.0531
      7 C           0.3614    1.8085    2.4065 C.3     1  LIG1       -0.0531
      8 C           1.3094    1.9960    1.2119 C.3     1  LIG1       -0.0531
      9 C           2.2842    0.8540    0.8906 C.3     1  LIG1       -0.0533
     10 C           3.2577    1.1754   -0.2478 C.3     1  LIG1       -0.0559
     11 C           4.1560    2.3512    0.0792 C.3     1  LIG1       -0.0653
     12 C          -1.2786   -1.6336   -1.2280 C.3     1  LIG1       -0.0530
     13 C          -1.8077   -1.2441   -2.6027 C.3     1  LIG1       -0.0526
     14 C          -2.0741    0.2789   -2.6621 C.3     1  LIG1       -0.0430
     15 C          -0.7895    1.0829   -2.4579 C.3     1  LIG1        0.0448
     16 C          -0.9358    2.5721   -2.6648 C.2     1  LIG1        0.3047
     17 O          -0.8172    3.1165   -3.7358 O.2     1  LIG1       -0.2510
     18 O          -1.1819    3.2607   -1.5221 O.3     1  LIG1       -0.4806
     19 H          -1.8774   -3.7084   -1.1639 H       1  LIG1        0.0265
     20 H          -0.2333   -3.4348   -1.7299 H       1  LIG1        0.0265
     21 H           0.5789   -2.9430    0.5146 H       1  LIG1        0.0265
     22 H          -0.2338   -4.4855    0.4502 H       1  LIG1        0.0265
     23 H          -0.7932   -3.4745    2.5140 H       1  LIG1        0.0265
     24 H          -2.2408   -3.5743    1.5328 H       1  LIG1        0.0265
     25 H          -2.1481   -1.5288    2.8925 H       1  LIG1        0.0265
     26 H          -2.2779   -1.1547    1.2267 H       1  LIG1        0.0265
     27 H           0.2010   -0.7644    1.1695 H       1  LIG1        0.0265
     28 H           0.2617   -0.9856    2.9170 H       1  LIG1        0.0265
     29 H          -1.4134    0.8768    3.1558 H       1  LIG1        0.0265
     30 H          -1.4181    1.1112    1.4176 H       1  LIG1        0.0265
     31 H           0.9351    1.5998    3.3165 H       1  LIG1        0.0265
     32 H          -0.1120    2.7885    2.5783 H       1  LIG1        0.0265
     33 H           1.8986    2.8879    1.4537 H       1  LIG1        0.0265
     34 H           0.7307    2.2458    0.3180 H       1  LIG1        0.0265
     35 H           1.7579   -0.0329    0.5498 H       1  LIG1        0.0265
     36 H           2.8428    0.5730    1.7904 H       1  LIG1        0.0265
     37 H           2.7031    1.3700   -1.1742 H       1  LIG1        0.0263
     38 H           3.8799    0.2911   -0.4398 H       1  LIG1        0.0263
     39 H           3.5741    3.2685    0.1981 H       1  LIG1        0.0230
     40 H           4.8773    2.5231   -0.7235 H       1  LIG1        0.0230
     41 H           4.7043    2.1631    1.0073 H       1  LIG1        0.0230
     42 H          -0.3725   -1.0718   -0.9919 H       1  LIG1        0.0265
     43 H          -2.0719   -1.3226   -0.5616 H       1  LIG1        0.0265
     44 H          -2.7480   -1.7798   -2.7858 H       1  LIG1        0.0265
     45 H          -1.1024   -1.5390   -3.3855 H       1  LIG1        0.0265
     46 H          -2.8100    0.5597   -1.8955 H       1  LIG1        0.0270
     47 H          -2.5314    0.5228   -3.6281 H       1  LIG1        0.0270
     48 H          -0.0251    0.7351   -3.1615 H       1  LIG1        0.0377
     49 H          -0.3769    0.9266   -1.4578 H       1  LIG1        0.0377
     50 H          -1.2273    2.7230   -0.7122 H       1  LIG1        0.2951
@<TRIPOS>BOND
     1     1     2    1
     2     2     3    1
     3     3     4    1
     4     4     5    1
     5     5     6    1
     6     6     7    1
     7     7     8    1
     8     8     9    1
     9     9    10    1
    10    10    11    1
    11     1    12    1
    12    12    13    1
    13    13    14    1
    14    14    15    1
    15    15    16    1
    16    16    17    2
    17    16    18    1
    18     1    19    1
    19     1    20    1
    20     2    21    1
    21     2    22    1
    22     3    23    1
    23     3    24    1
    24     4    25    1
    25     4    26    1
    26     5    27    1
    27     5    28    1
    28     6    29    1
    29     6    30    1
    30     7    31    1
    31     7    32    1
    32     8    33    1
    33     8    34    1
    34     9    35    1
    35     9    36    1
    36    10    37    1
    37    10    38    1
    38    11    39    1
    39    11    40    1
    40    11    41    1
    41    12    42    1
    42    12    43    1
    43    13    44    1
    44    13    45    1
    45    14    46    1
    46    14    47    1
    47    15    48    1
    48    15    49    1
    49    18    50    1
