REMARK  Name = NuBBE_579
REMARK  6 active torsions:
REMARK  status: ('A' for Active; 'I' for Inactive)
REMARK    1  A    between atoms: O_1  and  C_2
REMARK    2  A    between atoms: C_5  and  C_7
REMARK    3  A    between atoms: C_7  and  C_8
REMARK    4  A    between atoms: C_17  and  C_22
REMARK    5  A    between atoms: C_19  and  O_21
REMARK    6  A    between atoms: C_23  and  C_24
REMARK                            x       y       z     vdW  Elec       q    Type
REMARK                         _______ _______ _______ _____ _____    ______ ____
ROOT
ATOM      1  C   LIG A   1       0.658   0.054   3.059  0.00  0.00    +0.148 C 
ATOM      2  C   LIG A   1       0.179  -1.314   2.611  0.00  0.00    +0.065 C 
ATOM      3  C   LIG A   1      -0.717  -1.204   1.380  0.00  0.00    +0.125 C 
ATOM      4  O   LIG A   1      -0.002  -0.564   0.324  0.00  0.00    -0.366 OA
ATOM      5  C   LIG A   1       0.500   0.744   0.619  0.00  0.00    +0.172 C 
ATOM      6  C   LIG A   1       1.343   0.806   1.914  0.00  0.00    +0.175 C 
ENDROOT
BRANCH   1   7
ATOM      7  O   LIG A   1       1.572  -0.103   4.149  0.00  0.00    -0.389 OA
ATOM      8  H   LIG A   1       1.928   0.791   4.318  0.00  0.00    +0.210 HD
ENDBRANCH   1   7
BRANCH   6   9
ATOM      9  O   LIG A   1       1.538   2.159   2.366  0.00  0.00    -0.386 OA
ATOM     10  H   LIG A   1       1.905   2.669   1.622  0.00  0.00    +0.210 HD
ENDBRANCH   6   9
BRANCH   5  11
ATOM     11  C   LIG A   1       1.322   1.206  -0.567  0.00  0.00    +0.007 C 
ATOM     12  C   LIG A   1       1.990   0.406  -1.419  0.00  0.00    +0.006 C 
BRANCH  12  13
ATOM     13  C   LIG A   1       2.760   0.846  -2.599  0.00  0.00    -0.025 A 
ATOM     14  C   LIG A   1       3.434  -0.119  -3.364  0.00  0.00    +0.008 A 
ATOM     15  C   LIG A   1       4.174   0.246  -4.494  0.00  0.00    +0.001 A 
ATOM     16  C   LIG A   1       4.252   1.583  -4.875  0.00  0.00    +0.000 A 
ATOM     17  C   LIG A   1       3.581   2.551  -4.135  0.00  0.00    +0.001 A 
ATOM     18  C   LIG A   1       2.838   2.184  -3.009  0.00  0.00    +0.008 A 
ENDBRANCH  12  13
ENDBRANCH   5  11
BRANCH   3  19
ATOM     19  C   LIG A   1      -2.081  -0.547   1.654  0.00  0.00    +0.076 C 
BRANCH  19  20
ATOM     20  C   LIG A   1      -2.998  -0.435   0.417  0.00  0.00    +0.183 C 
ATOM     21  O   LIG A   1      -4.232   0.225   0.819  0.00  0.00    -0.458 OA
ATOM     22  C   LIG A   1      -5.255  -0.477   1.368  0.00  0.00    +0.332 C 
ATOM     23  C   LIG A   1      -5.191  -1.946   1.263  0.00  0.00    +0.087 C 
ATOM     24  C   LIG A   1      -4.302  -2.549   0.462  0.00  0.00    -0.016 C 
ATOM     25  C   LIG A   1      -3.309  -1.745  -0.309  0.00  0.00    +0.072 C 
ATOM     26  O   LIG A   1      -6.213   0.066   1.909  0.00  0.00    -0.246 OA
ENDBRANCH  19  20
ENDBRANCH   3  19
TORSDOF 6
