@<TRIPOS>MOLECULE
NuBBE_1087
 29 31 0 0 0
SMALL
GASTEIGER

@<TRIPOS>ATOM
      1 O          -2.8685   -0.3024    4.3303 O.2     1  LIG1       -0.2449
      2 C          -2.2902    0.3269    3.4547 C.2     1  LIG1        0.3420
      3 O          -2.2312    1.6891    3.3885 O.3     1  LIG1       -0.4644
      4 C          -2.9542    2.3560    4.4214 C.3     1  LIG1        0.0820
      5 C          -1.5902   -0.2946    2.3512 C.ar    1  LIG1        0.0972
      6 C          -1.5029   -1.6520    2.1326 C.ar    1  LIG1        0.1065
      7 O          -0.7794   -1.9152    1.0163 O.2     1  LIG1       -0.4621
      8 C          -0.3794   -0.7172    0.4912 C.ar    1  LIG1        0.1356
      9 C           0.4378   -0.7762   -0.7190 C.ar    1  LIG1        0.0180
     10 C           0.7731   -2.0067   -1.3018 C.ar    1  LIG1       -0.0491
     11 C           1.5622   -2.0937   -2.4553 C.ar    1  LIG1       -0.0371
     12 C           2.0140   -0.8977   -3.0172 C.ar    1  LIG1        0.0465
     13 N           2.7935   -0.6774   -4.1299 N.ar    1  LIG1       -0.3606
     14 H           3.1625   -1.4072   -4.7235 H       1  LIG1        0.1653
     15 C           2.9927    0.6659   -4.3089 C.ar    1  LIG1        0.0027
     16 C           2.3321    1.3275   -3.2990 C.ar    1  LIG1       -0.0366
     17 C           1.7084    0.3493   -2.4758 C.ar    1  LIG1        0.0003
     18 C           0.9103    0.4085   -1.3144 C.ar    1  LIG1       -0.0419
     19 C          -0.8660    0.3062    1.2805 C.ar    1  LIG1       -0.0018
     20 H          -2.9521    3.4259    4.1956 H       1  LIG1        0.0661
     21 H          -2.4637    2.2015    5.3870 H       1  LIG1        0.0661
     22 H          -3.9936    2.0143    4.4522 H       1  LIG1        0.0661
     23 H          -1.8844   -2.5174    2.6578 H       1  LIG1        0.1038
     24 H           0.4185   -2.9340   -0.8540 H       1  LIG1        0.0625
     25 H           1.8089   -3.0582   -2.8863 H       1  LIG1        0.0638
     26 H           3.5850    1.0329   -5.1361 H       1  LIG1        0.0807
     27 H           2.2999    2.4006   -3.1642 H       1  LIG1        0.0638
     28 H           0.6746    1.3804   -0.8927 H       1  LIG1        0.0631
     29 H          -0.7177    1.3648    1.1189 H       1  LIG1        0.0664
@<TRIPOS>BOND
     1     1     2    2
     2     2     3    1
     3     3     4    1
     4     2     5    1
     5     5     6   ar
     6     6     7   ar
     7     7     8   ar
     8     8     9    1
     9     9    10   ar
    10    10    11   ar
    11    11    12   ar
    12    12    13   ar
    13    13    14    1
    14    13    15   ar
    15    15    16   ar
    16    12    17   ar
    17    16    17   ar
    18    17    18   ar
    19     9    18   ar
    20     8    19   ar
    21     5    19   ar
    22     4    20    1
    23     4    21    1
    24     4    22    1
    25     6    23    1
    26    10    24    1
    27    11    25    1
    28    15    26    1
    29    16    27    1
    30    18    28    1
    31    19    29    1
