@<TRIPOS>MOLECULE
NuBBE_1626
 51 55 0 0 0
SMALL
GASTEIGER

@<TRIPOS>ATOM
      1 O          -2.0266   -1.7057   -3.3166 O.2     1  LIG1       -0.2753
      2 C          -1.2063   -1.7803   -2.3988 C.2     1  LIG1        0.2199
      3 N          -0.9813   -0.7635   -1.4909 N.am    1  LIG1       -0.2640
      4 C           0.0320   -0.7589   -0.3962 C.3     1  LIG1        0.0432
      5 C          -0.4988    0.2674    0.6494 C.3     1  LIG1        0.0370
      6 C           0.5795    0.9210    1.5368 C.3     1  LIG1        0.0433
      7 C           1.8358    1.2672    0.7840 C.2     1  LIG1       -0.0526
      8 C           2.4159    0.0368    0.1357 C.3     1  LIG1       -0.0155
      9 C           2.6490   -1.0629    1.1951 C.3     1  LIG1       -0.0335
     10 C           2.1502   -0.6766    2.5968 C.3     1  LIG1        0.0000
     11 N           0.8229   -0.0605    2.6206 N.3     1  LIG1       -0.2948
     12 C          -0.2881   -1.0181    2.6481 C.3     1  LIG1        0.0004
     13 C          -1.3452   -0.4451    1.7118 C.3     1  LIG1       -0.0270
     14 C           1.4283   -0.3970   -0.9565 C.3     1  LIG1       -0.0264
     15 C           2.4229    2.4748    0.6840 C.2     1  LIG1       -0.0861
     16 C           1.9855    3.7609    1.3088 C.3     1  LIG1       -0.0465
     17 C          -1.3370    1.1481   -0.2402 C.ar    1  LIG1       -0.0126
     18 C          -1.8309    2.4169    0.0494 C.ar    1  LIG1       -0.0559
     19 C          -2.6358    3.0532   -0.8926 C.ar    1  LIG1       -0.0579
     20 C          -2.9513    2.4138   -2.0955 C.ar    1  LIG1       -0.0183
     21 C          -2.4674    1.1331   -2.3762 C.ar    1  LIG1        0.1385
     22 O          -2.8358    0.6296   -3.5861 O.3     1  LIG1       -0.5049
     23 C          -1.6422    0.4981   -1.4522 C.ar    1  LIG1        0.0821
     24 C          -0.4605   -3.0908   -2.2064 C.3     1  LIG1        0.0217
     25 C          -1.1930   -4.0148   -1.2493 C.3     1  LIG1       -0.0570
     26 H           0.0843   -1.7643    0.0292 H       1  LIG1        0.0514
     27 H           0.1595    1.8053    2.0247 H       1  LIG1        0.0518
     28 H           3.3744    0.2612   -0.3496 H       1  LIG1        0.0347
     29 H           2.1977   -2.0125    0.8846 H       1  LIG1        0.0283
     30 H           3.7267   -1.2612    1.2625 H       1  LIG1        0.0283
     31 H           2.8603    0.0395    3.0320 H       1  LIG1        0.0427
     32 H           2.1881   -1.5490    3.2613 H       1  LIG1        0.0427
     33 H          -0.6795   -1.1334    3.6636 H       1  LIG1        0.0427
     34 H           0.0167   -2.0108    2.2960 H       1  LIG1        0.0427
     35 H          -1.9789    0.2696    2.2535 H       1  LIG1        0.0287
     36 H          -1.9979   -1.2248    1.3039 H       1  LIG1        0.0287
     37 H           1.8476   -1.2461   -1.5070 H       1  LIG1        0.0289
     38 H           1.3358    0.4104   -1.6971 H       1  LIG1        0.0289
     39 H           3.3376    2.5592    0.0979 H       1  LIG1        0.0569
     40 H           1.1129    3.6619    1.9568 H       1  LIG1        0.0272
     41 H           1.7476    4.4898    0.5285 H       1  LIG1        0.0272
     42 H           2.8015    4.1669    1.9160 H       1  LIG1        0.0272
     43 H          -1.6091    2.9124    0.9893 H       1  LIG1        0.0621
     44 H          -3.0275    4.0477   -0.6934 H       1  LIG1        0.0619
     45 H          -3.5808    2.9177   -2.8260 H       1  LIG1        0.0655
     46 H          -2.5785   -0.3171   -3.6134 H       1  LIG1        0.2922
     47 H           0.5633   -2.9271   -1.8704 H       1  LIG1        0.0356
     48 H          -0.3769   -3.5719   -3.1888 H       1  LIG1        0.0356
     49 H          -1.2951   -3.5718   -0.2545 H       1  LIG1        0.0234
     50 H          -0.6511   -4.9604   -1.1474 H       1  LIG1        0.0234
     51 H          -2.2006   -4.2378   -1.6152 H       1  LIG1        0.0234
@<TRIPOS>BOND
     1     1     2    2
     2     2     3   am
     3     3     4    1
     4     4     5    1
     5     5     6    1
     6     6     7    1
     7     7     8    1
     8     8     9    1
     9     9    10    1
    10    10    11    1
    11     6    11    1
    12    11    12    1
    13    12    13    1
    14     8    14    1
    15     4    14    1
    16     7    15    2
    17    15    16    1
    18    13     5    1
    19     5    17    1
    20    17    18   ar
    21    18    19   ar
    22    19    20   ar
    23    20    21   ar
    24    21    22    1
    25    21    23   ar
    26    17    23   ar
    27     3    23    1
    28     2    24    1
    29    24    25    1
    30     4    26    1
    31     6    27    1
    32     8    28    1
    33     9    29    1
    34     9    30    1
    35    10    31    1
    36    10    32    1
    37    12    33    1
    38    12    34    1
    39    13    35    1
    40    13    36    1
    41    14    37    1
    42    14    38    1
    43    15    39    1
    44    16    40    1
    45    16    41    1
    46    16    42    1
    47    18    43    1
    48    19    44    1
    49    20    45    1
    50    22    46    1
    51    24    47    1
    52    24    48    1
    53    25    49    1
    54    25    50    1
    55    25    51    1
