@<TRIPOS>MOLECULE
NuBBE_145
 76 78 0 0 0
SMALL
GASTEIGER

@<TRIPOS>ATOM
      1 C          -0.8968   -2.8718   -2.8564 C.3     1  LIG1       -0.0594
      2 C          -0.2237   -1.5796   -3.3968 C.3     1  LIG1       -0.0282
      3 C          -1.0868   -1.1534   -4.6063 C.3     1  LIG1       -0.0594
      4 C           1.1809   -2.0770   -3.8565 C.3     1  LIG1       -0.0475
      5 C           2.1936   -1.0049   -4.2219 C.3     1  LIG1       -0.0520
      6 C           2.2856    0.0793   -3.1560 C.3     1  LIG1       -0.0469
      7 C           0.9262    0.7478   -2.8006 C.3     1  LIG1       -0.0200
      8 C           0.3952    1.4680   -4.0668 C.3     1  LIG1       -0.0588
      9 C          -0.0101   -0.4198   -2.3046 C.3     1  LIG1        0.0071
     10 H           0.5892   -0.9292   -1.5469 H       1  LIG1        0.0347
     11 C          -1.2618    0.1060   -1.5430 C.3     1  LIG1        0.1095
     12 H          -2.0137    0.4262   -2.2758 H       1  LIG1        0.0738
     13 O          -1.9211   -0.9302   -0.7519 O.3     1  LIG1       -0.4606
     14 C          -1.2328   -1.4480    0.3291 C.2     1  LIG1        0.3182
     15 C          -2.1954   -2.0530    1.3096 C.3     1  LIG1        0.1419
     16 C          -1.7046   -1.9552    2.7252 C.2     1  LIG1        0.3179
     17 O          -1.0934   -3.1280    3.0900 O.3     1  LIG1       -0.4643
     18 C          -0.6108   -3.1812    4.4495 C.3     1  LIG1        0.0925
     19 C          -1.7630   -3.5293    5.3921 C.3     1  LIG1       -0.0188
     20 C          -1.3533   -3.6325    6.8611 C.3     1  LIG1       -0.0528
     21 C          -0.8372   -2.3258    7.4451 C.3     1  LIG1       -0.0652
     22 O          -1.8159   -0.9692    3.4197 O.2     1  LIG1       -0.2502
     23 O          -0.0451   -1.4104    0.5089 O.2     1  LIG1       -0.2502
     24 C          -1.0290    1.3026   -0.5840 C.3     1  LIG1        0.0139
     25 C          -0.1412    2.4509   -1.0756 C.3     1  LIG1        0.0745
     26 C          -0.9388    3.3635   -2.0229 C.3     1  LIG1       -0.0354
     27 C           1.1538    1.8724   -1.7007 C.3     1  LIG1       -0.0061
     28 C           2.1194    1.4966   -0.5625 C.3     1  LIG1       -0.0442
     29 C           2.5045    2.7815    0.1442 C.3     1  LIG1       -0.0200
     30 C           1.2946    3.5170    0.7257 C.3     1  LIG1        0.0853
     31 C           1.5736    5.0315    0.6705 C.3     1  LIG1       -0.0322
     32 C           1.1250    3.1246    2.1859 C.2     1  LIG1       -0.0599
     33 C           0.0544    2.5505    2.7528 C.2     1  LIG1       -0.1000
     34 O           0.0576    3.3381    0.0429 O.3     1  LIG1       -0.3631
     35 H          -0.7092   -3.7040   -3.5558 H       1  LIG1        0.0235
     36 H          -1.9846   -2.7877   -2.7735 H       1  LIG1        0.0235
     37 H          -0.4807   -3.1842   -1.8955 H       1  LIG1        0.0235
     38 H          -1.5193   -2.0219   -5.1198 H       1  LIG1        0.0235
     39 H          -0.5213   -0.6241   -5.3736 H       1  LIG1        0.0235
     40 H          -1.9304   -0.5279   -4.2985 H       1  LIG1        0.0235
     41 H           1.0865   -2.7721   -4.7006 H       1  LIG1        0.0271
     42 H           1.6193   -2.6617   -3.0339 H       1  LIG1        0.0271
     43 H           1.9688   -0.5874   -5.2055 H       1  LIG1        0.0266
     44 H           3.1785   -1.4788   -4.3191 H       1  LIG1        0.0266
     45 H           3.0174    0.8362   -3.4581 H       1  LIG1        0.0271
     46 H           2.6919   -0.4183   -2.2656 H       1  LIG1        0.0271
     47 H           0.6892    0.9878   -4.9987 H       1  LIG1        0.0235
     48 H           0.7972    2.4834   -4.1534 H       1  LIG1        0.0235
     49 H          -0.6932    1.5331   -4.0800 H       1  LIG1        0.0235
     50 H          -2.3977   -3.0893    1.0237 H       1  LIG1        0.0493
     51 H          -3.1417   -1.4986    1.2799 H       1  LIG1        0.0493
     52 H          -0.1206   -2.2361    4.7154 H       1  LIG1        0.0697
     53 H           0.1536   -3.9619    4.4960 H       1  LIG1        0.0697
     54 H          -2.1939   -4.4878    5.0748 H       1  LIG1        0.0298
     55 H          -2.5737   -2.7989    5.2852 H       1  LIG1        0.0298
     56 H          -0.5913   -4.4107    6.9820 H       1  LIG1        0.0264
     57 H          -2.2267   -3.9516    7.4429 H       1  LIG1        0.0264
     58 H           0.1105   -2.0283    6.9870 H       1  LIG1        0.0230
     59 H          -0.6610   -2.4388    8.5198 H       1  LIG1        0.0230
     60 H          -1.5604   -1.5164    7.3038 H       1  LIG1        0.0230
     61 H          -0.5965    0.9397    0.3520 H       1  LIG1        0.0329
     62 H          -2.0059    1.6911   -0.2568 H       1  LIG1        0.0329
     63 H          -1.5159    2.8284   -2.7744 H       1  LIG1        0.0257
     64 H          -0.2704    4.0772   -2.5192 H       1  LIG1        0.0257
     65 H          -1.6570    3.9762   -1.4608 H       1  LIG1        0.0257
     66 H           1.6560    2.7031   -2.2181 H       1  LIG1        0.0334
     67 H           3.0506    1.0643   -0.9340 H       1  LIG1        0.0270
     68 H           1.6827    0.7773    0.1372 H       1  LIG1        0.0270
     69 H           3.0154    3.4238   -0.5877 H       1  LIG1        0.0296
     70 H           3.2621    2.5780    0.9122 H       1  LIG1        0.0296
     71 H           1.6270    5.3711   -0.3721 H       1  LIG1        0.0260
     72 H           2.5163    5.2979    1.1622 H       1  LIG1        0.0260
     73 H           0.7653    5.6083    1.1355 H       1  LIG1        0.0260
     74 H           1.9750    3.3401    2.8327 H       1  LIG1        0.0594
     75 H          -0.8350    2.3118    2.1813 H       1  LIG1        0.0533
     76 H           0.0440    2.2995    3.8081 H       1  LIG1        0.0533
@<TRIPOS>BOND
     1     1     2    1
     2     2     3    1
     3     2     4    1
     4     4     5    1
     5     5     6    1
     6     6     7    1
     7     7     8    1
     8     7     9    1
     9     9    10    1
    10     2     9    1
    11     9    11    1
    12    11    12    1
    13    11    13    1
    14    13    14    1
    15    14    15    1
    16    15    16    1
    17    16    17    1
    18    17    18    1
    19    18    19    1
    20    19    20    1
    21    20    21    1
    22    16    22    2
    23    14    23    2
    24    11    24    1
    25    24    25    1
    26    25    26    1
    27    25    27    1
    28     7    27    1
    29    27    28    1
    30    28    29    1
    31    29    30    1
    32    32    33    2
    33    30    34    1
    34    25    34    1
    35    30    32    1
    36    30    31    1
    37     1    35    1
    38     1    36    1
    39     1    37    1
    40     3    38    1
    41     3    39    1
    42     3    40    1
    43     4    41    1
    44     4    42    1
    45     5    43    1
    46     5    44    1
    47     6    45    1
    48     6    46    1
    49     8    47    1
    50     8    48    1
    51     8    49    1
    52    15    50    1
    53    15    51    1
    54    18    52    1
    55    18    53    1
    56    19    54    1
    57    19    55    1
    58    20    56    1
    59    20    57    1
    60    21    58    1
    61    21    59    1
    62    21    60    1
    63    24    61    1
    64    24    62    1
    65    26    63    1
    66    26    64    1
    67    26    65    1
    68    27    66    1
    69    28    67    1
    70    28    68    1
    71    29    69    1
    72    29    70    1
    73    31    71    1
    74    31    72    1
    75    31    73    1
    76    32    74    1
    77    33    75    1
    78    33    76    1
