REMARK  Name = NuBBE_1186
REMARK  15 active torsions:
REMARK  status: ('A' for Active; 'I' for Inactive)
REMARK    1  A    between atoms: O_1  and  C_2
REMARK    2  A    between atoms: C_2  and  C_3
REMARK    3  A    between atoms: C_6  and  C_17
REMARK    4  A    between atoms: C_8  and  O_16
REMARK    5  A    between atoms: C_10  and  O_15
REMARK    6  A    between atoms: C_12  and  O_14
REMARK    7  A    between atoms: C_17  and  O_18
REMARK    8  A    between atoms: O_18  and  C_19
REMARK    9  A    between atoms: C_20  and  O_39
REMARK   10  A    between atoms: C_28  and  O_29
REMARK   11  A    between atoms: O_29  and  C_30
REMARK   12  A    between atoms: C_31  and  O_32
REMARK   13  A    between atoms: C_34  and  C_35
REMARK   14  A    between atoms: C_35  and  O_36
REMARK   15  A    between atoms: O_39  and  C_40
REMARK                            x       y       z     vdW  Elec       q    Type
REMARK                         _______ _______ _______ _____ _____    ______ ____
ROOT
ATOM      1  C   LIG A   1       1.307  -1.384  -0.233  0.00  0.00    +0.208 A 
ATOM      2  C   LIG A   1       0.474  -1.192  -1.372  0.00  0.00    +0.169 A 
ATOM      3  C   LIG A   1       0.504  -0.023  -2.098  0.00  0.00    +0.099 A 
ATOM      4  C   LIG A   1       1.429   0.926  -1.829  0.00  0.00    +0.178 A 
ATOM      5  O   LIG A   1       1.336   1.989  -2.663  0.00  0.00    -0.448 OA
ATOM      6  C   LIG A   1       2.036   3.064  -2.247  0.00  0.00    +0.175 A 
ATOM      7  C   LIG A   1       3.031   2.948  -1.282  0.00  0.00    +0.212 A 
ATOM      8  O   LIG A   1       3.304   1.758  -0.629  0.00  0.00    -0.441 OA
ATOM      9  C   LIG A   1       2.359   0.760  -0.814  0.00  0.00    +0.216 A 
ATOM     10  C   LIG A   1       2.333  -0.411  -0.002  0.00  0.00    +0.212 A 
ATOM     11  C   LIG A   1       3.738   4.087  -0.945  0.00  0.00    +0.164 A 
ATOM     12  C   LIG A   1       3.418   5.317  -1.526  0.00  0.00    +0.064 A 
ATOM     13  C   LIG A   1       2.372   5.410  -2.453  0.00  0.00    +0.066 A 
ATOM     14  C   LIG A   1       1.680   4.269  -2.834  0.00  0.00    +0.065 A 
ENDROOT
BRANCH  10  15
ATOM     15  O   LIG A   1       3.375  -0.456   0.899  0.00  0.00    -0.488 OA
ATOM     16  C   LIG A   1       3.580  -1.604   1.707  0.00  0.00    +0.277 C 
ENDBRANCH  10  15
BRANCH  11  17
ATOM     17  O   LIG A   1       4.743   4.025  -0.026  0.00  0.00    -0.503 OA
ATOM     18  H   LIG A   1       4.804   3.088   0.247  0.00  0.00    +0.292 HD
ENDBRANCH  11  17
BRANCH  13  19
ATOM     19  C   LIG A   1       2.023   6.726  -3.041  0.00  0.00    +0.337 C 
ATOM     20  O   LIG A   1       2.754   7.644  -3.178  0.00  0.00    -0.245 OA
BRANCH  19  21
ATOM     21  O   LIG A   1       0.707   6.785  -3.375  0.00  0.00    -0.477 OA
ATOM     22  H   LIG A   1       0.595   7.702  -3.698  0.00  0.00    +0.295 HD
ENDBRANCH  19  21
ENDBRANCH  13  19
BRANCH   2  23
ATOM     23  O   LIG A   1      -0.364  -1.968  -2.111  0.00  0.00    -0.491 OA
ATOM     24  C   LIG A   1      -0.898  -3.130  -1.592  0.00  0.00    +0.277 C 
ENDBRANCH   2  23
BRANCH   1  25
ATOM     25  O   LIG A   1       1.280  -2.575   0.458  0.00  0.00    -0.482 OA
BRANCH  25  26
ATOM     26  C   LIG A   1       0.410  -2.702   1.612  0.00  0.00    +0.263 C 
BRANCH  26  29
ATOM     27  C   LIG A   1      -3.090  -1.670   0.673  0.00  0.00    +0.175 C 
ATOM     28  O   LIG A   1      -1.639  -1.661   0.685  0.00  0.00    -0.362 OA
ATOM     29  C   LIG A   1      -1.105  -2.838   1.344  0.00  0.00    +0.187 C 
ATOM     30  C   LIG A   1      -1.877  -3.030   2.652  0.00  0.00    +0.177 C 
ATOM     31  C   LIG A   1      -2.493  -1.653   3.072  0.00  0.00    +0.176 C 
ATOM     32  C   LIG A   1      -3.607  -1.300   2.077  0.00  0.00    +0.176 C 
BRANCH  32  33
ATOM     33  O   LIG A   1      -4.773  -2.069   2.421  0.00  0.00    -0.387 OA
ATOM     34  H   LIG A   1      -5.102  -1.697   3.263  0.00  0.00    +0.210 HD
ENDBRANCH  32  33
BRANCH  31  35
ATOM     35  O   LIG A   1      -1.534  -0.587   3.140  0.00  0.00    -0.387 OA
ATOM     36  H   LIG A   1      -1.099  -0.493   2.266  0.00  0.00    +0.210 HD
ENDBRANCH  31  35
BRANCH  30  37
ATOM     37  O   LIG A   1      -2.881  -4.039   2.415  0.00  0.00    -0.387 OA
ATOM     38  H   LIG A   1      -3.718  -3.765   2.840  0.00  0.00    +0.210 HD
ENDBRANCH  30  37
BRANCH  27  39
ATOM     39  C   LIG A   1      -3.600  -0.680  -0.368  0.00  0.00    +0.190 C 
BRANCH  39  40
ATOM     40  O   LIG A   1      -5.021  -0.625  -0.371  0.00  0.00    -0.392 OA
ATOM     41  H   LIG A   1      -5.354  -1.539  -0.310  0.00  0.00    +0.209 HD
ENDBRANCH  39  40
ENDBRANCH  27  39
ENDBRANCH  26  29
ENDBRANCH  25  26
ENDBRANCH   1  25
TORSDOF 13
