REMARK  Name = NuBBE_1874
REMARK  10 active torsions:
REMARK  status: ('A' for Active; 'I' for Inactive)
REMARK    1  A    between atoms: C_4  and  O_26
REMARK    2  A    between atoms: C_5  and  O_6
REMARK    3  A    between atoms: C_7  and  O_24
REMARK    4  A    between atoms: C_11  and  C_12
REMARK    5  A    between atoms: C_15  and  O_19
REMARK    6  A    between atoms: C_16  and  O_17
REMARK    7  A    between atoms: O_19  and  C_20
REMARK    8  A    between atoms: C_21  and  O_22
REMARK    9  A    between atoms: O_22  and  C_23
REMARK   10  A    between atoms: O_24  and  C_25
REMARK                            x       y       z     vdW  Elec       q    Type
REMARK                         _______ _______ _______ _____ _____    ______ ____
ROOT
ATOM      1  O   LIG A   1      -3.522  -0.780  -0.082  0.00  0.00    -0.283 OA
ATOM      2  C   LIG A   1      -2.293  -0.644  -0.019  0.00  0.00    +0.238 A 
ATOM      3  C   LIG A   1      -1.484  -1.860   0.060  0.00  0.00    +0.113 A 
ATOM      4  C   LIG A   1      -2.076  -3.115   0.029  0.00  0.00    +0.177 A 
ATOM      5  C   LIG A   1      -1.294  -4.263   0.085  0.00  0.00    +0.202 A 
ATOM      6  C   LIG A   1       0.100  -4.178   0.172  0.00  0.00    +0.169 A 
ATOM      7  C   LIG A   1       0.689  -2.903   0.210  0.00  0.00    +0.096 A 
ATOM      8  C   LIG A   1      -0.105  -1.749   0.156  0.00  0.00    +0.147 A 
ATOM      9  O   LIG A   1       0.522  -0.535   0.200  0.00  0.00    -0.451 OA
ATOM     10  C   LIG A   1      -0.244   0.616   0.089  0.00  0.00    +0.181 A 
ATOM     11  C   LIG A   1      -1.590   0.667  -0.030  0.00  0.00    +0.211 A 
ENDROOT
BRANCH  10  12
ATOM     12  C   LIG A   1       0.593   1.822   0.110  0.00  0.00    +0.025 A 
ATOM     13  C   LIG A   1       1.093   2.351  -1.088  0.00  0.00    +0.015 A 
ATOM     14  C   LIG A   1       1.999   3.418  -1.072  0.00  0.00    +0.050 A 
ATOM     15  C   LIG A   1       2.425   3.955   0.142  0.00  0.00    +0.161 A 
ATOM     16  C   LIG A   1       1.912   3.422   1.331  0.00  0.00    +0.159 A 
ATOM     17  C   LIG A   1       0.992   2.380   1.327  0.00  0.00    +0.060 A 
BRANCH  16  18
ATOM     18  O   LIG A   1       2.346   3.887   2.544  0.00  0.00    -0.503 OA
ATOM     19  H   LIG A   1       3.069   4.508   2.334  0.00  0.00    +0.292 HD
ENDBRANCH  16  18
BRANCH  15  20
ATOM     20  O   LIG A   1       3.333   4.971   0.296  0.00  0.00    -0.491 OA
ATOM     21  C   LIG A   1       3.881   5.511  -0.903  0.00  0.00    +0.277 C 
ENDBRANCH  15  20
ENDBRANCH  10  12
BRANCH   5  22
ATOM     22  O   LIG A   1      -1.978  -5.449   0.045  0.00  0.00    -0.501 OA
ATOM     23  H   LIG A   1      -2.921  -5.197  -0.032  0.00  0.00    +0.292 HD
ENDBRANCH   5  22
BRANCH  11  24
ATOM     24  O   LIG A   1      -2.241   1.888  -0.148  0.00  0.00    -0.488 OA
ATOM     25  C   LIG A   1      -3.657   1.871  -0.300  0.00  0.00    +0.277 C 
ENDBRANCH  11  24
BRANCH   6  26
ATOM     26  O   LIG A   1       0.979  -5.230   0.223  0.00  0.00    -0.491 OA
ATOM     27  C   LIG A   1       0.392  -6.530   0.161  0.00  0.00    +0.277 C 
ENDBRANCH   6  26
BRANCH   4  28
ATOM     28  O   LIG A   1      -3.434  -3.325  -0.061  0.00  0.00    -0.503 OA
ATOM     29  H   LIG A   1      -3.867  -2.441  -0.074  0.00  0.00    +0.292 HD
ENDBRANCH   4  28
TORSDOF 7
