@<TRIPOS>MOLECULE
NuBBE_2108
 41 40 0 0 0
SMALL
GASTEIGER

@<TRIPOS>ATOM
      1 C          -1.9702    4.4125    2.6381 C.3     1  LIG1       -0.0653
      2 C          -2.3766    4.7283    1.2078 C.3     1  LIG1       -0.0559
      3 C          -1.1775    4.8635    0.2610 C.3     1  LIG1       -0.0533
      4 C          -0.2810    3.6254    0.1900 C.3     1  LIG1       -0.0531
      5 C          -1.0254    2.3931   -0.3250 C.3     1  LIG1       -0.0531
      6 C          -0.0998    1.1821   -0.3805 C.3     1  LIG1       -0.0531
      7 C          -0.8528   -0.0539   -0.8662 C.3     1  LIG1       -0.0531
      8 C           0.0373   -1.2866   -1.0000 C.3     1  LIG1       -0.0531
      9 C           0.6660   -1.7450    0.3201 C.3     1  LIG1       -0.0531
     10 C           1.5625   -2.9756    0.1458 C.3     1  LIG1       -0.0531
     11 C           0.8027   -4.2033   -0.3629 C.3     1  LIG1       -0.0533
     12 C           1.6866   -5.4340   -0.5544 C.3     1  LIG1       -0.0559
     13 C           2.7765   -5.2336   -1.5977 C.3     1  LIG1       -0.0653
     14 H          -2.8278    4.5310    3.3081 H       1  LIG1        0.0230
     15 H          -1.1738    5.0816    2.9799 H       1  LIG1        0.0230
     16 H          -1.6174    3.3812    2.7334 H       1  LIG1        0.0230
     17 H          -2.9363    5.6694    1.1925 H       1  LIG1        0.0263
     18 H          -3.0645    3.9570    0.8443 H       1  LIG1        0.0263
     19 H          -0.5672    5.7172    0.5812 H       1  LIG1        0.0265
     20 H          -1.5450    5.1038   -0.7439 H       1  LIG1        0.0265
     21 H           0.1546    3.4189    1.1734 H       1  LIG1        0.0265
     22 H           0.5612    3.8441   -0.4790 H       1  LIG1        0.0265
     23 H          -1.4357    2.5971   -1.3191 H       1  LIG1        0.0265
     24 H          -1.8679    2.1544    0.3341 H       1  LIG1        0.0265
     25 H           0.3089    1.0075    0.6195 H       1  LIG1        0.0265
     26 H           0.7470    1.3890   -1.0501 H       1  LIG1        0.0265
     27 H          -1.2969    0.1561   -1.8476 H       1  LIG1        0.0265
     28 H          -1.6838   -0.2763   -0.1863 H       1  LIG1        0.0265
     29 H           0.8268   -1.0917   -1.7363 H       1  LIG1        0.0265
     30 H          -0.5900   -2.0830   -1.4094 H       1  LIG1        0.0265
     31 H          -0.1193   -1.9579    1.0555 H       1  LIG1        0.0265
     32 H           1.2887   -0.9462    0.7378 H       1  LIG1        0.0265
     33 H           2.0256   -3.2123    1.1107 H       1  LIG1        0.0265
     34 H           2.3737   -2.7125   -0.5395 H       1  LIG1        0.0265
     35 H           0.3183   -3.9877   -1.3208 H       1  LIG1        0.0265
     36 H           0.0041   -4.4485    0.3481 H       1  LIG1        0.0265
     37 H           1.0502   -6.2691   -0.8719 H       1  LIG1        0.0263
     38 H           2.1388   -5.7221    0.4004 H       1  LIG1        0.0263
     39 H           2.3500   -4.9422   -2.5615 H       1  LIG1        0.0230
     40 H           3.3362   -6.1645   -1.7392 H       1  LIG1        0.0230
     41 H           3.4932   -4.4669   -1.2903 H       1  LIG1        0.0230
@<TRIPOS>BOND
     1     1     2    1
     2     2     3    1
     3     3     4    1
     4     4     5    1
     5     5     6    1
     6     6     7    1
     7     7     8    1
     8     8     9    1
     9     9    10    1
    10    10    11    1
    11    11    12    1
    12    12    13    1
    13     1    14    1
    14     1    15    1
    15     1    16    1
    16     2    17    1
    17     2    18    1
    18     3    19    1
    19     3    20    1
    20     4    21    1
    21     4    22    1
    22     5    23    1
    23     5    24    1
    24     6    25    1
    25     6    26    1
    26     7    27    1
    27     7    28    1
    28     8    29    1
    29     8    30    1
    30     9    31    1
    31     9    32    1
    32    10    33    1
    33    10    34    1
    34    11    35    1
    35    11    36    1
    36    12    37    1
    37    12    38    1
    38    13    39    1
    39    13    40    1
    40    13    41    1
