@<TRIPOS>MOLECULE
NuBBE_1904
 40 42 0 0 0
SMALL
GASTEIGER

@<TRIPOS>ATOM
      1 O          -2.9172   -0.3127   -2.3056 O.2     1  LIG1       -0.2511
      2 C          -2.6429    0.4017   -1.3545 C.2     1  LIG1        0.3046
      3 C          -3.4238    1.6050   -0.9235 C.3     1  LIG1        0.0333
      4 O          -1.5903    0.2313   -0.5148 O.3     1  LIG1       -0.4528
      5 C          -0.5563   -0.6725   -0.9530 C.3     1  LIG1        0.1679
      6 C           0.5057    0.1089   -1.7663 C.3     1  LIG1        0.1703
      7 C           1.2328    1.0044   -0.8499 C.ar    1  LIG1        0.0180
      8 C           1.5719    0.7034    0.4542 C.ar    1  LIG1       -0.0144
      9 C           2.2383    1.6999    1.1842 C.ar    1  LIG1       -0.0429
     10 C           2.6343    1.4885    2.6189 C.3     1  LIG1       -0.0391
     11 C           2.4964    2.9579    0.5720 C.ar    1  LIG1       -0.0575
     12 C           2.0609    3.2435   -0.7305 C.ar    1  LIG1       -0.0471
     13 C           1.4130    2.2363   -1.4115 C.ar    1  LIG1        0.0664
     14 C           0.6820    2.2502   -2.6798 C.2     1  LIG1        0.3403
     15 O           0.0371    1.0263   -2.7691 O.3     1  LIG1       -0.4489
     16 O           0.5946    3.1768   -3.4598 O.2     1  LIG1       -0.2449
     17 C           1.0946   -0.5994    0.9499 C.2     1  LIG1       -0.0484
     18 C           0.0782   -1.2622    0.3324 C.2     1  LIG1        0.0056
     19 C          -0.5239   -2.5624    0.8760 C.3     1  LIG1        0.0852
     20 C          -0.3732   -3.7384   -0.0984 C.3     1  LIG1       -0.0323
     21 O           0.1539   -2.9342    2.0860 O.3     1  LIG1       -0.3847
     22 C          -1.9975   -2.4094    1.2675 C.3     1  LIG1       -0.0323
     23 H          -4.0361    1.9614   -1.7555 H       1  LIG1        0.0342
     24 H          -2.7317    2.4092   -0.6537 H       1  LIG1        0.0342
     25 H          -4.0582    1.3525   -0.0717 H       1  LIG1        0.0342
     26 H          -0.9684   -1.4615   -1.5902 H       1  LIG1        0.0825
     27 H           1.2055   -0.5890   -2.2423 H       1  LIG1        0.0827
     28 H           1.7549    1.2375    3.2209 H       1  LIG1        0.0278
     29 H           3.0778    2.3923    3.0500 H       1  LIG1        0.0278
     30 H           3.3724    0.6844    2.6941 H       1  LIG1        0.0278
     31 H           2.9991    3.7425    1.1369 H       1  LIG1        0.0621
     32 H           2.1947    4.2281   -1.1692 H       1  LIG1        0.0626
     33 H           1.5363   -0.9642    1.8714 H       1  LIG1        0.0625
     34 H           0.6820   -3.9469   -0.3081 H       1  LIG1        0.0260
     35 H          -0.8891   -3.5688   -1.0474 H       1  LIG1        0.0260
     36 H          -0.7847   -4.6549    0.3429 H       1  LIG1        0.0260
     37 H           1.0119   -3.3187    1.8412 H       1  LIG1        0.2106
     38 H          -2.6337   -2.1601    0.4133 H       1  LIG1        0.0260
     39 H          -2.1257   -1.6429    2.0405 H       1  LIG1        0.0260
     40 H          -2.3754   -3.3438    1.7024 H       1  LIG1        0.0260
@<TRIPOS>BOND
     1     1     2    2
     2     2     3    1
     3     2     4    1
     4     4     5    1
     5     5     6    1
     6     6     7    1
     7     7     8   ar
     8     8     9   ar
     9     9    10    1
    10     9    11   ar
    11    11    12   ar
    12    12    13   ar
    13     7    13   ar
    14    13    14    1
    15    14    15    1
    16     6    15    1
    17    14    16    2
    18     8    17    1
    19    17    18    2
    20     5    18    1
    21    18    19    1
    22    19    20    1
    23    19    21    1
    24    19    22    1
    25     3    23    1
    26     3    24    1
    27     3    25    1
    28     5    26    1
    29     6    27    1
    30    10    28    1
    31    10    29    1
    32    10    30    1
    33    11    31    1
    34    12    32    1
    35    17    33    1
    36    20    34    1
    37    20    35    1
    38    20    36    1
    39    21    37    1
    40    22    38    1
    41    22    39    1
    42    22    40    1
