@<TRIPOS>MOLECULE
NuBBE_939
 34 35 0 0 0
SMALL
GASTEIGER

@<TRIPOS>ATOM
      1 C          -1.5587    0.3070    1.4980 C.2     1  LIG1       -0.0421
      2 C          -2.7028    0.3308    0.7952 C.2     1  LIG1        0.0232
      3 C          -2.9518    0.1951   -0.6527 C.2     1  LIG1        0.3317
      4 O          -4.0331   -0.1662   -1.0990 O.2     1  LIG1       -0.2456
      5 O          -1.8424    0.4858   -1.3712 O.3     1  LIG1       -0.4649
      6 C          -1.9028    0.0497   -2.7280 C.3     1  LIG1        0.0820
      7 C          -0.1573    0.1151    1.0500 C.ar    1  LIG1        0.0501
      8 C           0.4155   -1.1890    1.1254 C.ar    1  LIG1        0.1418
      9 O          -0.4448   -2.1955    1.5568 O.3     1  LIG1       -0.4937
     10 C           0.0551   -3.5254    1.5515 C.3     1  LIG1        0.0788
     11 C           1.7756   -1.3601    0.7557 C.ar    1  LIG1        0.0820
     12 C           2.4431   -0.2247    0.3020 C.ar    1  LIG1        0.2313
     13 N           1.9692    1.0162    0.2114 N.ar    1  LIG1       -0.2046
     14 C           0.6704    1.1532    0.5944 C.ar    1  LIG1        0.1620
     15 C           0.1684    2.5581    0.4221 C.2     1  LIG1        0.3583
     16 O          -0.7450    3.0905    1.0491 O.2     1  LIG1       -0.2432
     17 O           0.8479    3.1085   -0.6154 O.3     1  LIG1       -0.4634
     18 C           0.2485    4.2394   -1.2368 C.3     1  LIG1        0.0820
     19 O           3.7130   -0.5331   -0.0776 O.2     1  LIG1       -0.4449
     20 C           3.8953   -1.8510    0.1587 C.ar    1  LIG1        0.0952
     21 C           2.7568   -2.3984    0.6995 C.ar    1  LIG1       -0.0109
     22 H          -1.6492    0.3757    2.5823 H       1  LIG1        0.0627
     23 H          -3.6407    0.3884    1.3512 H       1  LIG1        0.0689
     24 H          -2.8224    0.3585   -3.2382 H       1  LIG1        0.0661
     25 H          -1.8045   -1.0395   -2.7450 H       1  LIG1        0.0661
     26 H          -1.0501    0.4824   -3.2561 H       1  LIG1        0.0661
     27 H          -0.7531   -4.1990    1.8494 H       1  LIG1        0.0660
     28 H           0.8547   -3.6362    2.2902 H       1  LIG1        0.0660
     29 H           0.3780   -3.8305    0.5498 H       1  LIG1        0.0660
     30 H           0.4287    5.1487   -0.6580 H       1  LIG1        0.0661
     31 H          -0.8198    4.0704   -1.3902 H       1  LIG1        0.0661
     32 H           0.7168    4.3519   -2.2207 H       1  LIG1        0.0661
     33 H           4.8697   -2.2437   -0.0989 H       1  LIG1        0.1030
     34 H           2.6718   -3.4330    0.9950 H       1  LIG1        0.0657
@<TRIPOS>BOND
     1     1     2    2
     2     2     3    1
     3     3     4    2
     4     3     5    1
     5     5     6    1
     6     1     7    1
     7     7     8   ar
     8     8     9    1
     9     9    10    1
    10     8    11   ar
    11    11    12   ar
    12    12    13   ar
    13    13    14   ar
    14     7    14   ar
    15    14    15    1
    16    15    16    2
    17    15    17    1
    18    17    18    1
    19    12    19   ar
    20    19    20   ar
    21    20    21   ar
    22    11    21   ar
    23     1    22    1
    24     2    23    1
    25     6    24    1
    26     6    25    1
    27     6    26    1
    28    10    27    1
    29    10    28    1
    30    10    29    1
    31    18    30    1
    32    18    31    1
    33    18    32    1
    34    20    33    1
    35    21    34    1
