REMARK  Name = NuBBE_1387
REMARK  11 active torsions:
REMARK  status: ('A' for Active; 'I' for Inactive)
REMARK    1  A    between atoms: C_1  and  C_2
REMARK    2  A    between atoms: C_6  and  C_8
REMARK    3  A    between atoms: C_8  and  C_10
REMARK    4  A    between atoms: C_8  and  C_18
REMARK    5  A    between atoms: C_10  and  C_11
REMARK    6  A    between atoms: C_11  and  C_12
REMARK    7  A    between atoms: C_12  and  C_14
REMARK    8  A    between atoms: C_12  and  C_15
REMARK    9  A    between atoms: C_15  and  C_16
REMARK   10  A    between atoms: C_15  and  C_17
REMARK   11  A    between atoms: C_23  and  C_32
REMARK                            x       y       z     vdW  Elec       q    Type
REMARK                         _______ _______ _______ _____ _____    ______ ____
ROOT
ATOM      1  C   LIG A   1      -2.135  -0.062   1.560  0.00  0.00    +0.012 C 
ATOM      2  C   LIG A   1      -0.655  -0.112   1.126  0.00  0.00    -0.026 C 
ATOM      3  C   LIG A   1       0.264  -0.325   2.370  0.00  0.00    -0.001 C 
ATOM      4  C   LIG A   1       1.488  -1.004   1.756  0.00  0.00    +0.004 C 
ATOM      5  C   LIG A   1       0.900  -2.013   0.780  0.00  0.00    +0.004 C 
ATOM      6  C   LIG A   1      -0.424  -1.413   0.244  0.00  0.00    -0.002 C 
ATOM      7  C   LIG A   1       0.650   0.927   3.215  0.00  0.00    -0.003 C 
ATOM      8  C   LIG A   1       0.997   2.182   2.354  0.00  0.00    +0.002 C 
ATOM      9  C   LIG A   1       1.270   3.470   3.220  0.00  0.00    -0.007 C 
ATOM     10  C   LIG A   1       0.094   3.662   4.169  0.00  0.00    -0.060 C 
ATOM     11  C   LIG A   1      -0.177   2.502   5.094  0.00  0.00    +0.032 C 
ATOM     12  C   LIG A   1      -0.424   1.224   4.289  0.00  0.00    +0.008 C 
ATOM     13  C   LIG A   1      -0.723   4.728   4.158  0.00  0.00    +0.046 C 
ATOM     14  C   LIG A   1      -0.606   5.802   3.146  0.00  0.00    +0.156 C 
ATOM     15  C   LIG A   1       0.327   5.588   1.984  0.00  0.00    +0.080 C 
ATOM     16  C   LIG A   1       1.539   4.745   2.360  0.00  0.00    +0.019 C 
ATOM     17  O   LIG A   1      -1.342   6.778   3.218  0.00  0.00    -0.293 OA
ATOM     18  C   LIG A   1       2.579   3.260   4.033  0.00  0.00    +0.016 C 
ATOM     19  C   LIG A   1      -0.085   2.393   1.292  0.00  0.00    +0.005 C 
ATOM     20  C   LIG A   1      -0.248   1.180   0.393  0.00  0.00    +0.007 C 
ENDROOT
BRANCH   6  21
ATOM     21  C   LIG A   1      -0.430  -1.282  -1.322  0.00  0.00    -0.010 C 
ATOM     22  C   LIG A   1      -1.717  -0.651  -1.885  0.00  0.00    +0.008 C 
BRANCH  21  23
ATOM     23  C   LIG A   1      -0.239  -2.666  -2.018  0.00  0.00    +0.004 C 
BRANCH  23  24
ATOM     24  C   LIG A   1      -0.102  -2.564  -3.551  0.00  0.00    +0.004 C 
BRANCH  24  25
ATOM     25  C   LIG A   1       0.059  -3.922  -4.278  0.00  0.00    -0.011 C 
ATOM     26  C   LIG A   1      -1.156  -4.827  -4.034  0.00  0.00    +0.007 C 
BRANCH  25  27
ATOM     27  C   LIG A   1       0.370  -3.718  -5.796  0.00  0.00    -0.014 C 
ATOM     28  C   LIG A   1       0.543  -5.048  -6.541  0.00  0.00    +0.007 C 
ATOM     29  C   LIG A   1      -0.656  -2.855  -6.540  0.00  0.00    +0.007 C 
ENDBRANCH  25  27
ENDBRANCH  24  25
ENDBRANCH  23  24
ENDBRANCH  21  23
ENDBRANCH   6  21
TORSDOF 5
