@<TRIPOS>MOLECULE
NuBBE_1993
 59 60 0 0 0
SMALL
GASTEIGER

@<TRIPOS>ATOM
      1 O          -1.6149   -0.3342   -4.2961 O.3     1  LIG1       -0.4811
      2 C          -2.9655   -0.8958   -4.3456 C.3     1  LIG1        0.1079
      3 C          -3.3919   -1.6708   -5.6136 C.2     1  LIG1       -0.0542
      4 C          -3.2451   -1.4497   -6.9279 C.2     1  LIG1       -0.0995
      5 C          -1.1896    0.2883   -3.1084 C.ar    1  LIG1        0.2041
      6 C          -0.2341    1.3489   -3.1686 C.ar    1  LIG1        0.1655
      7 O           0.5088    1.6688   -4.2933 O.3     1  LIG1       -0.4913
      8 C           1.3383    2.8418   -4.0901 C.3     1  LIG1        0.0790
      9 C           0.0133    2.1160   -1.9876 C.ar    1  LIG1       -0.0126
     10 C          -0.3529    1.8672   -0.7506 C.ar    1  LIG1       -0.0371
     11 C          -1.2379    0.7762   -0.6596 C.ar    1  LIG1       -0.0126
     12 C          -1.6399    0.0068   -1.8126 C.ar    1  LIG1        0.1655
     13 O          -2.4463   -1.0970   -1.6017 O.3     1  LIG1       -0.4913
     14 C          -3.2813   -1.0482   -0.4505 C.3     1  LIG1        0.0790
     15 C           0.1843    2.7186    0.3856 C.3     1  LIG1       -0.0145
     16 C           1.6012    2.2544    0.9506 C.3     1  LIG1       -0.0209
     17 C           1.6972    0.9344    1.7042 C.ar    1  LIG1       -0.0397
     18 C           2.8980    0.4870    2.2539 C.ar    1  LIG1       -0.0129
     19 C           2.9284   -0.6823    3.0532 C.ar    1  LIG1        0.1654
     20 O           4.1729   -1.0097    3.5683 O.3     1  LIG1       -0.4913
     21 C           4.4514   -2.4112    3.6886 C.3     1  LIG1        0.0790
     22 C           1.7456   -1.4006    3.3875 C.ar    1  LIG1        0.2035
     23 C           0.5760   -1.0357    2.7397 C.ar    1  LIG1        0.1654
     24 C           0.5878    0.1286    1.9505 C.ar    1  LIG1       -0.0129
     25 O          -0.6503   -1.6388    2.7018 O.3     1  LIG1       -0.4913
     26 C          -1.2252   -1.9775    3.9377 C.3     1  LIG1        0.0790
     27 O           1.9457   -2.2160    4.4467 O.3     1  LIG1       -0.4885
     28 C           1.2683   -3.3433    4.9375 C.3     1  LIG1        0.0791
     29 C           0.3505    4.2449    0.0063 C.3     1  LIG1       -0.0581
     30 H          -3.7124   -0.1163   -4.1420 H       1  LIG1        0.0742
     31 H          -3.0634   -1.6705   -3.5831 H       1  LIG1        0.0742
     32 H          -3.9584   -2.5807   -5.3829 H       1  LIG1        0.0600
     33 H          -2.7702   -0.5735   -7.3469 H       1  LIG1        0.0533
     34 H          -3.6229   -2.1822   -7.6518 H       1  LIG1        0.0533
     35 H           2.0284    2.7337   -3.2250 H       1  LIG1        0.0660
     36 H           0.6722    3.7074   -3.9404 H       1  LIG1        0.0660
     37 H           1.9782    3.0631   -4.9339 H       1  LIG1        0.0660
     38 H           0.5579    3.0581   -2.0734 H       1  LIG1        0.0658
     39 H          -1.6456    0.5374    0.2912 H       1  LIG1        0.0658
     40 H          -2.7179   -1.2789    0.4615 H       1  LIG1        0.0660
     41 H          -4.0508   -1.8123   -0.5678 H       1  LIG1        0.0660
     42 H          -3.7815   -0.0756   -0.3665 H       1  LIG1        0.0660
     43 H          -0.5322    2.7234    1.2122 H       1  LIG1        0.0349
     44 H           1.9436    3.0261    1.6590 H       1  LIG1        0.0319
     45 H           2.3385    2.2540    0.1338 H       1  LIG1        0.0319
     46 H           3.8086    1.0674    2.1112 H       1  LIG1        0.0658
     47 H           4.4428   -2.9026    2.7116 H       1  LIG1        0.0660
     48 H           3.8073   -2.9649    4.3676 H       1  LIG1        0.0660
     49 H           5.4264   -2.5259    4.1645 H       1  LIG1        0.0660
     50 H          -0.3734    0.4457    1.6046 H       1  LIG1        0.0658
     51 H          -2.1403   -2.5515    3.7799 H       1  LIG1        0.0660
     52 H          -1.3585   -1.1289    4.6095 H       1  LIG1        0.0660
     53 H          -0.6267   -2.6881    4.4369 H       1  LIG1        0.0660
     54 H           0.7155   -3.8999    4.1757 H       1  LIG1        0.0660
     55 H           0.6738   -3.0107    5.7983 H       1  LIG1        0.0660
     56 H           1.9881   -4.0556    5.3477 H       1  LIG1        0.0660
     57 H           1.2236    4.4424   -0.6332 H       1  LIG1        0.0236
     58 H           0.4887    4.8672    0.8986 H       1  LIG1        0.0236
     59 H          -0.5323    4.6213   -0.5232 H       1  LIG1        0.0236
@<TRIPOS>BOND
     1     1     2    1
     2     2     3    1
     3     3     4    2
     4     1     5    1
     5     5     6   ar
     6     6     7    1
     7     7     8    1
     8     6     9   ar
     9     9    10   ar
    10    10    11   ar
    11    11    12   ar
    12     5    12   ar
    13    12    13    1
    14    13    14    1
    15    10    15    1
    16    15    16    1
    17    16    17    1
    18    17    18   ar
    19    18    19   ar
    20    19    20    1
    21    20    21    1
    22    19    22   ar
    23    22    23   ar
    24    23    24   ar
    25    17    24   ar
    26    23    25    1
    27    25    26    1
    28    22    27    1
    29    27    28    1
    30    15    29    1
    31     2    30    1
    32     2    31    1
    33     3    32    1
    34     4    33    1
    35     4    34    1
    36     8    35    1
    37     8    36    1
    38     8    37    1
    39     9    38    1
    40    11    39    1
    41    14    40    1
    42    14    41    1
    43    14    42    1
    44    15    43    1
    45    16    44    1
    46    16    45    1
    47    18    46    1
    48    21    47    1
    49    21    48    1
    50    21    49    1
    51    24    50    1
    52    26    51    1
    53    26    52    1
    54    26    53    1
    55    28    54    1
    56    28    55    1
    57    28    56    1
    58    29    57    1
    59    29    58    1
    60    29    59    1
