REMARK  Name = NuBBE_2422
REMARK  9 active torsions:
REMARK  status: ('A' for Active; 'I' for Inactive)
REMARK    1  A    between atoms: O_1  and  C_2
REMARK    2  A    between atoms: O_1  and  C_3
REMARK    3  A    between atoms: C_12  and  O_17
REMARK    4  A    between atoms: C_13  and  O_15
REMARK    5  A    between atoms: O_15  and  C_16
REMARK    6  A    between atoms: O_17  and  C_18
REMARK    7  A    between atoms: N_19  and  C_20
REMARK    8  A    between atoms: C_25  and  O_26
REMARK    9  A    between atoms: O_26  and  C_27
REMARK                            x       y       z     vdW  Elec       q    Type
REMARK                         _______ _______ _______ _____ _____    ______ ____
ROOT
ATOM      1  C   LIG A   1      -0.595   1.911   0.275  0.00  0.00    +0.170 A 
ATOM      2  C   LIG A   1       0.038   0.636   0.182  0.00  0.00    +0.033 A 
ATOM      3  C   LIG A   1       1.461   0.583   0.206  0.00  0.00    -0.015 A 
ATOM      4  C   LIG A   1       2.156  -0.788   0.169  0.00  0.00    +0.092 C 
ATOM      5  C   LIG A   1       1.356  -1.726   1.112  0.00  0.00    +0.059 C 
ATOM      6  C   LIG A   1      -0.068  -1.829   0.603  0.00  0.00    -0.034 A 
ATOM      7  C   LIG A   1      -0.688  -0.666   0.103  0.00  0.00    -0.007 A 
ATOM      8  C   LIG A   1      -1.940  -0.822  -0.519  0.00  0.00    +0.058 A 
ATOM      9  C   LIG A   1      -2.591  -2.066  -0.587  0.00  0.00    +0.162 A 
ATOM     10  C   LIG A   1      -1.968  -3.200  -0.042  0.00  0.00    +0.162 A 
ATOM     11  C   LIG A   1      -0.725  -3.071   0.574  0.00  0.00    +0.053 A 
ATOM     12  N   LIG A   1       3.604  -0.735   0.519  0.00  0.00    -0.298 NA
ATOM     13  C   LIG A   1       4.285  -1.990   0.183  0.00  0.00    +0.105 C 
ATOM     14  C   LIG A   1       4.254   0.366  -0.214  0.00  0.00    +0.089 C 
ATOM     15  C   LIG A   1       3.720   1.714   0.264  0.00  0.00    +0.051 C 
ATOM     16  C   LIG A   1       2.217   1.761   0.239  0.00  0.00    -0.037 A 
ATOM     17  C   LIG A   1       1.576   2.996   0.330  0.00  0.00    +0.053 A 
ATOM     18  C   LIG A   1       0.184   3.087   0.383  0.00  0.00    +0.162 A 
ENDROOT
BRANCH   1  19
ATOM     19  O   LIG A   1      -1.969   1.903   0.376  0.00  0.00    -0.491 OA
ATOM     20  C   LIG A   1      -2.677   2.992  -0.206  0.00  0.00    +0.277 C 
ENDBRANCH   1  19
BRANCH  10  21
ATOM     21  O   LIG A   1      -2.468  -4.482  -0.029  0.00  0.00    -0.491 OA
ATOM     22  C   LIG A   1      -3.354  -4.831  -1.088  0.00  0.00    +0.277 C 
ENDBRANCH  10  21
BRANCH   9  23
ATOM     23  O   LIG A   1      -3.797  -2.225  -1.210  0.00  0.00    -0.491 OA
ATOM     24  C   LIG A   1      -4.664  -1.101  -1.281  0.00  0.00    +0.277 C 
ENDBRANCH   9  23
BRANCH  18  25
ATOM     25  O   LIG A   1      -0.447   4.299   0.514  0.00  0.00    -0.491 OA
ATOM     26  C   LIG A   1       0.248   5.304   1.248  0.00  0.00    +0.277 C 
ENDBRANCH  18  25
TORSDOF 4
