@<TRIPOS>MOLECULE
NuBBE_952
 69 74 0 0 0
SMALL
GASTEIGER

@<TRIPOS>ATOM
      1 O          -3.4833   -2.7251    4.0019 O.2     1  LIG1       -0.2456
      2 C          -2.5005   -2.4714    3.3213 C.2     1  LIG1        0.3322
      3 C          -2.2246   -1.1020    2.8497 C.2     1  LIG1        0.0191
      4 C          -1.2476   -0.6780    2.0294 C.2     1  LIG1       -0.0705
      5 C          -0.1925   -1.5052    1.3051 C.3     1  LIG1        0.0004
      6 C           0.9408   -1.7994    2.3241 C.3     1  LIG1       -0.0553
      7 C          -0.8495   -2.8139    0.7359 C.3     1  LIG1        0.0144
      8 C          -1.2918   -3.8951    1.7975 C.3     1  LIG1        0.1122
      9 C          -2.5380   -4.7240    1.4270 C.3     1  LIG1       -0.0248
     10 C          -0.1474   -4.9220    1.9763 C.3     1  LIG1       -0.0248
     11 O          -1.4937   -3.3416    3.1172 O.3     1  LIG1       -0.4552
     12 C          -1.9860   -2.4175   -0.2211 C.3     1  LIG1        0.0137
     13 C          -1.5376   -1.5507   -1.3680 C.2     1  LIG1        0.1429
     14 C          -0.4529   -0.4574   -1.1808 C.3     1  LIG1        0.0657
     15 C           0.3866   -0.6200   -2.4897 C.3     1  LIG1       -0.0496
     16 C           0.4795   -0.7384    0.0557 C.3     1  LIG1        0.0202
     17 C           1.2939    0.5175    0.5045 C.3     1  LIG1        0.1083
     18 H           0.8737    0.8774    1.4478 H       1  LIG1        0.0737
     19 O           2.6737    0.2217    0.8634 O.3     1  LIG1       -0.4612
     20 C           3.6064    0.0238   -0.1077 C.2     1  LIG1        0.3042
     21 C           4.9803    0.2375    0.4486 C.3     1  LIG1        0.0332
     22 O           3.3713   -0.2276   -1.2799 O.2     1  LIG1       -0.2512
     23 C           1.2647    1.7275   -0.4221 C.3     1  LIG1       -0.0035
     24 C          -0.1469    2.1912   -0.7989 C.3     1  LIG1        0.0455
     25 C          -0.7576    2.9769    0.3902 C.3     1  LIG1       -0.0529
     26 C          -1.0335    0.9808   -1.1727 C.3     1  LIG1        0.1285
     27 O          -2.3924    1.0657   -0.7223 O.3     1  LIG1       -0.3512
     28 C          -2.1774    1.3368   -2.1194 C.3     1  LIG1        0.1861
     29 H          -2.5452    0.6111   -2.8315 H       1  LIG1        0.0743
     30 C          -2.4288    2.7380   -2.5296 C.2     1  LIG1        0.3398
     31 O          -1.3747    3.5950   -2.4393 O.3     1  LIG1       -0.4539
     32 C          -0.0636    3.1090   -2.0756 C.3     1  LIG1        0.1392
     33 H           0.2892    2.5121   -2.9292 H       1  LIG1        0.0793
     34 C           0.8687    4.2963   -1.9602 C.ar    1  LIG1        0.0310
     35 C           2.2235    4.3525   -2.2403 C.ar    1  LIG1        0.0984
     36 O           2.7068    5.6107   -2.0722 O.2     1  LIG1       -0.4706
     37 C           1.6627    6.3890   -1.6963 C.ar    1  LIG1        0.0921
     38 C           0.5178    5.6350   -1.6037 C.ar    1  LIG1       -0.0172
     39 O          -3.5220    3.0915   -2.9302 O.2     1  LIG1       -0.2478
     40 O          -2.1167   -1.6901   -2.4535 O.2     1  LIG1       -0.2967
     41 H          -2.9243   -0.3772    3.2615 H       1  LIG1        0.0686
     42 H          -1.2361    0.3918    1.8638 H       1  LIG1        0.0580
     43 H           0.6202   -2.3890    3.1851 H       1  LIG1        0.0238
     44 H           1.3444   -0.8805    2.7627 H       1  LIG1        0.0238
     45 H           1.7679   -2.3347    1.8460 H       1  LIG1        0.0238
     46 H          -0.0973   -3.3028    0.0984 H       1  LIG1        0.0352
     47 H          -2.7677   -5.4487    2.2184 H       1  LIG1        0.0268
     48 H          -2.3938   -5.2788    0.4943 H       1  LIG1        0.0268
     49 H          -3.4320   -4.0993    1.3311 H       1  LIG1        0.0268
     50 H           0.0469   -5.4718    1.0491 H       1  LIG1        0.0268
     51 H          -0.3927   -5.6472    2.7615 H       1  LIG1        0.0268
     52 H           0.7874   -4.4519    2.2905 H       1  LIG1        0.0268
     53 H          -2.8198   -1.9163    0.2787 H       1  LIG1        0.0346
     54 H          -2.3931   -3.3218   -0.6897 H       1  LIG1        0.0346
     55 H           0.7452   -1.6512   -2.6002 H       1  LIG1        0.0240
     56 H           1.2530    0.0345   -2.5383 H       1  LIG1        0.0240
     57 H          -0.2090   -0.3889   -3.3816 H       1  LIG1        0.0240
     58 H           1.2211   -1.4697   -0.3016 H       1  LIG1        0.0355
     59 H           5.0183    1.2023    0.9639 H       1  LIG1        0.0342
     60 H           5.7019    0.2729   -0.3733 H       1  LIG1        0.0342
     61 H           5.2431   -0.5747    1.1274 H       1  LIG1        0.0342
     62 H           1.8387    1.5345   -1.3292 H       1  LIG1        0.0308
     63 H           1.8230    2.5372    0.0679 H       1  LIG1        0.0308
     64 H          -1.0090    2.3216    1.2251 H       1  LIG1        0.0237
     65 H          -1.6842    3.4903    0.1132 H       1  LIG1        0.0237
     66 H          -0.0667    3.7331    0.7764 H       1  LIG1        0.0237
     67 H           2.9581    3.6267   -2.5642 H       1  LIG1        0.1033
     68 H           1.8854    7.4370   -1.5465 H       1  LIG1        0.1029
     69 H          -0.4643    6.0051   -1.3421 H       1  LIG1        0.0653
@<TRIPOS>BOND
     1     1     2    2
     2     2     3    1
     3     3     4    2
     4     4     5    1
     5     5     6    1
     6     5     7    1
     7     7     8    1
     8     8     9    1
     9     8    10    1
    10     8    11    1
    11     2    11    1
    12     7    12    1
    13    12    13    1
    14    13    14    1
    15    14    15    1
    16    14    16    1
    17     5    16    1
    18    16    17    1
    19    17    18    1
    20    17    19    1
    21    19    20    1
    22    20    21    1
    23    20    22    2
    24    17    23    1
    25    23    24    1
    26    24    25    1
    27    24    26    1
    28    26    27    1
    29    14    26    1
    30    26    28    1
    31    28    29    1
    32    27    28    1
    33    28    30    1
    34    30    31    1
    35    31    32    1
    36    24    32    1
    37    34    35   ar
    38    35    36   ar
    39    36    37   ar
    40    37    38   ar
    41    34    38   ar
    42    30    39    2
    43    13    40    2
    44    32    34    1
    45    32    33    1
    46     3    41    1
    47     4    42    1
    48     6    43    1
    49     6    44    1
    50     6    45    1
    51     7    46    1
    52     9    47    1
    53     9    48    1
    54     9    49    1
    55    10    50    1
    56    10    51    1
    57    10    52    1
    58    12    53    1
    59    12    54    1
    60    15    55    1
    61    15    56    1
    62    15    57    1
    63    16    58    1
    64    21    59    1
    65    21    60    1
    66    21    61    1
    67    23    62    1
    68    23    63    1
    69    25    64    1
    70    25    65    1
    71    25    66    1
    72    35    67    1
    73    37    68    1
    74    38    69    1
