REMARK  Name = NuBBE_2319
REMARK  14 active torsions:
REMARK  status: ('A' for Active; 'I' for Inactive)
REMARK    1  A    between atoms: C_1  and  O_31
REMARK    2  A    between atoms: C_3  and  C_28
REMARK    3  A    between atoms: C_5  and  O_8
REMARK    4  A    between atoms: O_8  and  C_9
REMARK    5  A    between atoms: C_10  and  C_27
REMARK    6  A    between atoms: C_12  and  O_15
REMARK    7  A    between atoms: O_15  and  C_16
REMARK    8  A    between atoms: C_16  and  C_17
REMARK    9  A    between atoms: C_20  and  O_25
REMARK   10  A    between atoms: C_21  and  O_23
REMARK   11  A    between atoms: O_23  and  C_24
REMARK   12  A    between atoms: O_25  and  C_26
REMARK   13  A    between atoms: C_28  and  C_29
REMARK   14  A    between atoms: O_31  and  C_32
REMARK                            x       y       z     vdW  Elec       q    Type
REMARK                         _______ _______ _______ _____ _____    ______ ____
ROOT
ATOM      1  C   LIG A   1       0.567  -0.309   1.162  0.00  0.00    +0.203 C 
ATOM      2  C   LIG A   1      -0.128  -0.773   0.115  0.00  0.00    +0.153 C 
ATOM      3  C   LIG A   1      -0.207  -2.219  -0.228  0.00  0.00    +0.046 C 
ATOM      4  C   LIG A   1       1.205  -2.844  -0.139  0.00  0.00    +0.055 C 
ATOM      5  C   LIG A   1       2.256  -2.098   0.721  0.00  0.00    +0.193 C 
ATOM      6  C   LIG A   1       1.579  -1.204   1.760  0.00  0.00    +0.229 C 
ATOM      7  O   LIG A   1       1.898  -1.072   2.903  0.00  0.00    -0.286 OA
ATOM      8  C   LIG A   1      -0.851  -2.097  -1.636  0.00  0.00    +0.069 C 
ATOM      9  C   LIG A   1      -0.531  -0.651  -2.049  0.00  0.00    +0.311 C 
ATOM     10  O   LIG A   1      -0.848  -0.018  -0.804  0.00  0.00    -0.463 OA
ATOM     11  C   LIG A   1      -0.568  -3.207  -2.619  0.00  0.00    +0.015 C 
ENDROOT
BRANCH   5  12
ATOM     12  O   LIG A   1       3.183  -3.034   1.245  0.00  0.00    -0.372 OA
ATOM     13  C   LIG A   1       4.217  -2.431   2.022  0.00  0.00    +0.195 C 
ENDBRANCH   5  12
BRANCH   1  14
ATOM     14  O   LIG A   1       0.542   0.898   1.766  0.00  0.00    -0.489 OA
ATOM     15  C   LIG A   1      -0.578   1.582   1.341  0.00  0.00    +0.277 C 
ENDBRANCH   1  14
BRANCH   9  16
ATOM     16  O   LIG A   1       0.829  -0.382  -2.404  0.00  0.00    -0.337 OA
BRANCH  16  17
ATOM     17  C   LIG A   1       1.087   0.946  -2.937  0.00  0.00    +0.199 C 
BRANCH  17  18
ATOM     18  C   LIG A   1       0.815   2.172  -2.055  0.00  0.00    -0.018 A 
ATOM     19  C   LIG A   1       1.818   2.866  -1.383  0.00  0.00    +0.010 A 
ATOM     20  C   LIG A   1       1.480   3.847  -0.415  0.00  0.00    +0.050 A 
ATOM     21  C   LIG A   1       0.136   4.154  -0.038  0.00  0.00    +0.162 A 
ATOM     22  C   LIG A   1      -0.881   3.559  -0.804  0.00  0.00    +0.162 A 
ATOM     23  C   LIG A   1      -0.500   2.627  -1.836  0.00  0.00    +0.055 A 
BRANCH  22  24
ATOM     24  O   LIG A   1      -2.248   3.537  -0.709  0.00  0.00    -0.491 OA
ATOM     25  C   LIG A   1      -3.013   3.692   0.471  0.00  0.00    +0.277 C 
ENDBRANCH  22  24
BRANCH  21  26
ATOM     26  O   LIG A   1       0.099   4.954   1.082  0.00  0.00    -0.491 OA
ATOM     27  C   LIG A   1      -0.808   4.782   2.174  0.00  0.00    +0.277 C 
ENDBRANCH  21  26
ENDBRANCH  17  18
ENDBRANCH  16  17
ENDBRANCH   9  16
BRANCH   3  28
ATOM     28  C   LIG A   1      -1.246  -2.766   0.810  0.00  0.00    +0.042 C 
BRANCH  28  29
ATOM     29  C   LIG A   1      -1.587  -4.215   0.681  0.00  0.00    -0.034 C 
ATOM     30  C   LIG A   1      -2.777  -4.714   1.035  0.00  0.00    +0.004 C 
ENDBRANCH  28  29
ENDBRANCH   3  28
TORSDOF 9
