@<TRIPOS>MOLECULE
NuBBE_8
 53 56 0 0 0
SMALL
GASTEIGER

@<TRIPOS>ATOM
      1 O           0.7090   -1.6058   -2.0244 O.2     1  LIG1       -0.2830
      2 C           1.1278   -1.4352   -0.8877 C.ar    1  LIG1        0.2382
      3 C           1.6045   -2.5989   -0.1473 C.ar    1  LIG1        0.1092
      4 C           1.3571   -3.9004   -0.6028 C.ar    1  LIG1        0.1348
      5 C           1.7694   -4.9935    0.1478 C.ar    1  LIG1        0.0223
      6 C           2.4460   -4.7692    1.3427 C.ar    1  LIG1        0.1239
      7 C           2.7044   -3.4743    1.7970 C.ar    1  LIG1        0.0231
      8 C           2.2690   -2.3820    1.0478 C.ar    1  LIG1        0.1465
      9 O           2.5241   -1.1209    1.5182 O.2     1  LIG1       -0.4507
     10 C           1.8420   -0.0361    0.9568 C.ar    1  LIG1        0.1810
     11 C           2.0425    1.2192    1.7398 C.ar    1  LIG1        0.0247
     12 C           2.1261    2.4822    1.1225 C.ar    1  LIG1       -0.0057
     13 C           2.4236    3.6169    1.8763 C.ar    1  LIG1        0.1589
     14 O           2.5345    4.8559    1.3053 O.3     1  LIG1       -0.5033
     15 C           2.6455    3.5184    3.2446 C.ar    1  LIG1        0.1583
     16 C           2.5626    2.2936    3.8827 C.ar    1  LIG1       -0.0159
     17 C           2.2641    1.1500    3.1319 C.ar    1  LIG1       -0.0473
     18 O           2.9673    4.6302    3.9678 O.3     1  LIG1       -0.5033
     19 C           1.0959   -0.1231   -0.1685 C.ar    1  LIG1        0.2138
     20 O           0.3142    0.9321   -0.6292 O.3     1  LIG1       -0.4532
     21 C          -0.8770    0.6079   -1.3688 C.3     1  LIG1        0.2311
     22 H          -0.6039    0.0457   -2.2597 H       1  LIG1        0.1084
     23 O          -1.4534    1.8360   -1.8643 O.3     1  LIG1       -0.3313
     24 C          -2.6747    1.6659   -2.6276 C.3     1  LIG1        0.1140
     25 H          -2.4480    2.0286   -3.6381 H       1  LIG1        0.0647
     26 C          -3.1652    0.2117   -2.7319 C.3     1  LIG1        0.1120
     27 H          -2.4696   -0.3196   -3.3943 H       1  LIG1        0.0647
     28 C          -3.1512   -0.5057   -1.3790 C.3     1  LIG1        0.1152
     29 H          -3.1490   -1.5866   -1.5668 H       1  LIG1        0.0648
     30 O          -4.3878   -0.2531   -0.6917 O.3     1  LIG1       -0.3864
     31 O          -4.4522    0.1010   -3.3353 O.3     1  LIG1       -0.3865
     32 C          -3.7263    2.6118   -2.0305 C.3     1  LIG1        0.0731
     33 O          -3.2595    3.9606   -2.1065 O.3     1  LIG1       -0.3924
     34 C          -1.9566   -0.0956   -0.5018 C.3     1  LIG1        0.1454
     35 H          -2.2890    0.6173    0.2634 H       1  LIG1        0.0683
     36 O          -1.5220   -1.2519    0.2292 O.3     1  LIG1       -0.3829
     37 O           2.8783   -5.8119    2.1076 O.3     1  LIG1       -0.5065
     38 O           0.6983   -4.1692   -1.7727 O.3     1  LIG1       -0.5058
     39 H           1.5580   -5.9961   -0.2112 H       1  LIG1        0.0691
     40 H           3.2321   -3.3269    2.7352 H       1  LIG1        0.0691
     41 H           1.9838    2.5805    0.0511 H       1  LIG1        0.0662
     42 H           2.3759    4.7664    0.3496 H       1  LIG1        0.2923
     43 H           2.7451    2.2229    4.9508 H       1  LIG1        0.0655
     44 H           2.2230    0.1948    3.6523 H       1  LIG1        0.0626
     45 H           2.9897    5.3537    3.3098 H       1  LIG1        0.2923
     46 H          -4.3278   -0.7091    0.1712 H       1  LIG1        0.2100
     47 H          -5.0917    0.0347   -2.5946 H       1  LIG1        0.2100
     48 H          -4.6768    2.5554   -2.5685 H       1  LIG1        0.0584
     49 H          -3.9025    2.3942   -0.9731 H       1  LIG1        0.0584
     50 H          -2.3314    3.9385   -1.8056 H       1  LIG1        0.2095
     51 H          -1.3781   -1.9840   -0.3983 H       1  LIG1        0.2102
     52 H           2.6500   -6.6461    1.6619 H       1  LIG1        0.2921
     53 H           0.6301   -3.3310   -2.2830 H       1  LIG1        0.2922
@<TRIPOS>BOND
     1     1     2    2
     2     2     3   ar
     3     3     4   ar
     4     4     5   ar
     5     5     6   ar
     6     6     7   ar
     7     7     8   ar
     8     3     8   ar
     9     8     9   ar
    10     9    10   ar
    11    10    11    1
    12    11    12   ar
    13    12    13   ar
    14    13    14    1
    15    13    15   ar
    16    15    16   ar
    17    16    17   ar
    18    11    17   ar
    19    15    18    1
    20    10    19   ar
    21     2    19   ar
    22    19    20    1
    23    20    21    1
    24    21    22    1
    25    21    23    1
    26    23    24    1
    27    24    26    1
    28    26    28    1
    29    32    33    1
    30    21    34    1
    31    28    34    1
    32     6    37    1
    33     4    38    1
    34    24    32    1
    35    24    25    1
    36    26    31    1
    37    26    27    1
    38    28    30    1
    39    28    29    1
    40    34    36    1
    41    34    35    1
    42     5    39    1
    43     7    40    1
    44    12    41    1
    45    14    42    1
    46    16    43    1
    47    17    44    1
    48    18    45    1
    49    30    46    1
    50    31    47    1
    51    32    48    1
    52    32    49    1
    53    33    50    1
    54    36    51    1
    55    37    52    1
    56    38    53    1
