@<TRIPOS>MOLECULE
NuBBE_198
 64 69 0 0 0
SMALL
GASTEIGER

@<TRIPOS>ATOM
      1 O          -3.4595   -1.3323    4.2218 O.3     1  LIG1       -0.5065
      2 C          -2.5931   -2.1662    3.5786 C.ar    1  LIG1        0.1239
      3 C          -2.6725   -3.5464    3.7327 C.ar    1  LIG1        0.0223
      4 C          -1.7533   -4.3595    3.0643 C.ar    1  LIG1        0.1347
      5 O          -1.8467   -5.7149    3.2122 O.3     1  LIG1       -0.5058
      6 C          -0.7630   -3.7921    2.2475 C.ar    1  LIG1        0.1055
      7 C           0.2475   -4.6123    1.5278 C.ar    1  LIG1        0.1966
      8 C           1.1673   -3.8621    0.6431 C.ar    1  LIG1        0.0288
      9 C           1.0920   -2.5256    0.5264 C.ar    1  LIG1        0.1392
     10 C           1.9732   -1.6993   -0.3771 C.ar    1  LIG1        0.0182
     11 C           1.8751   -0.2662   -0.4199 C.ar    1  LIG1       -0.0396
     12 C           2.7188    0.6315   -1.1695 C.ar    1  LIG1        0.0313
     13 C           2.4749    2.1989   -1.1764 C.ar    1  LIG1        0.0704
     14 C           3.4671    3.2411   -1.3121 C.ar    1  LIG1        0.1349
     15 O           4.8162    3.0086   -1.5063 O.3     1  LIG1       -0.4943
     16 C           5.7343    4.0078   -1.0098 C.3     1  LIG1        0.0788
     17 C           3.0926    4.6112   -1.3138 C.ar    1  LIG1        0.0231
     18 C           1.8092    5.0583   -1.1572 C.ar    1  LIG1        0.1347
     19 O           1.5850    6.4007   -1.1284 O.3     1  LIG1       -0.5058
     20 C           0.8170    4.1223   -1.0516 C.ar    1  LIG1        0.1061
     21 C           1.1267    2.7334   -1.0419 C.ar    1  LIG1        0.1541
     22 O           0.0775    1.8427   -0.9064 O.2     1  LIG1       -0.4537
     23 C          -1.2212    2.3055   -0.7575 C.ar    1  LIG1        0.1393
     24 C          -2.2342    1.2590   -0.5778 C.ar    1  LIG1        0.0176
     25 C          -1.9750   -0.0028   -1.0939 C.ar    1  LIG1       -0.0476
     26 C          -2.9148   -1.0093   -0.9776 C.ar    1  LIG1       -0.0193
     27 C          -4.1368   -0.7878   -0.3413 C.ar    1  LIG1        0.1201
     28 O          -5.1018   -1.7549   -0.2176 O.3     1  LIG1       -0.4951
     29 C          -4.7278   -3.0098   -0.7930 C.3     1  LIG1        0.0788
     30 C          -4.4045    0.4693    0.1996 C.ar    1  LIG1       -0.0193
     31 C          -3.4515    1.4870    0.0886 C.ar    1  LIG1       -0.0476
     32 C          -1.5959    3.5809   -0.8348 C.ar    1  LIG1        0.0288
     33 C          -0.5804    4.6045   -0.9962 C.ar    1  LIG1        0.1966
     34 O          -0.9388    5.7595   -1.0784 O.2     1  LIG1       -0.2869
     35 C           3.7058   -0.0655   -1.9003 C.ar    1  LIG1        0.1248
     36 O           4.6527    0.6011   -2.6272 O.3     1  LIG1       -0.5062
     37 C           3.7772   -1.4846   -1.9548 C.ar    1  LIG1       -0.0189
     38 C           2.9220   -2.2928   -1.2071 C.ar    1  LIG1       -0.0476
     39 O           0.1864   -1.7680    1.2680 O.2     1  LIG1       -0.4544
     40 O           0.3475   -5.8054    1.6033 O.2     1  LIG1       -0.2869
     41 C          -0.7146   -2.4085    2.0864 C.ar    1  LIG1        0.1462
     42 C          -1.6261   -1.5913    2.7603 C.ar    1  LIG1        0.0231
     43 H          -4.0701   -1.8568    4.7660 H       1  LIG1        0.2921
     44 H          -3.4379   -3.9847    4.3636 H       1  LIG1        0.0691
     45 H          -2.5979   -5.9516    3.7776 H       1  LIG1        0.2922
     46 H           1.8788   -4.4919    0.1263 H       1  LIG1        0.0693
     47 H           1.0732    0.1546    0.1797 H       1  LIG1        0.0632
     48 H           5.4730    5.0632   -1.1416 H       1  LIG1        0.0660
     49 H           6.6852    3.9368   -1.5448 H       1  LIG1        0.0660
     50 H           5.8823    3.8399    0.0576 H       1  LIG1        0.0660
     51 H           3.7971    5.4079   -1.4785 H       1  LIG1        0.0691
     52 H           2.4025    6.9011   -1.2758 H       1  LIG1        0.2922
     53 H          -1.0470   -0.2310   -1.6115 H       1  LIG1        0.0626
     54 H          -2.6466   -1.9630   -1.4121 H       1  LIG1        0.0654
     55 H          -5.5100   -3.7464   -0.6078 H       1  LIG1        0.0660
     56 H          -3.8079   -3.3894   -0.3296 H       1  LIG1        0.0660
     57 H          -4.6060   -2.9125   -1.8801 H       1  LIG1        0.0660
     58 H          -5.3428    0.6786    0.7081 H       1  LIG1        0.0654
     59 H          -3.6775    2.4569    0.5278 H       1  LIG1        0.0626
     60 H          -2.6133    3.9407   -0.7925 H       1  LIG1        0.0693
     61 H           5.2555   -0.0457   -3.0291 H       1  LIG1        0.2922
     62 H           4.5079   -1.9884   -2.5876 H       1  LIG1        0.0654
     63 H           3.0369   -3.3723   -1.2911 H       1  LIG1        0.0626
     64 H          -1.5900   -0.5117    2.6426 H       1  LIG1        0.0691
@<TRIPOS>BOND
     1     1     2    1
     2     2     3   ar
     3     3     4   ar
     4     4     5    1
     5     4     6   ar
     6     6     7   ar
     7     7     8   ar
     8     8     9   ar
     9     9    10    1
    10    10    11   ar
    11    11    12   ar
    12    12    13    1
    13    13    14   ar
    14    14    15    1
    15    15    16    1
    16    14    17   ar
    17    17    18   ar
    18    18    19    1
    19    18    20   ar
    20    20    21   ar
    21    13    21   ar
    22    21    22   ar
    23    22    23   ar
    24    23    24    1
    25    24    25   ar
    26    25    26   ar
    27    26    27   ar
    28    27    28    1
    29    28    29    1
    30    27    30   ar
    31    30    31   ar
    32    24    31   ar
    33    23    32   ar
    34    32    33   ar
    35    20    33   ar
    36    33    34    2
    37    12    35   ar
    38    35    36    1
    39    35    37   ar
    40    37    38   ar
    41    10    38   ar
    42     9    39   ar
    43     7    40    2
    44     6    41   ar
    45    39    41   ar
    46    41    42   ar
    47     2    42   ar
    48     1    43    1
    49     3    44    1
    50     5    45    1
    51     8    46    1
    52    11    47    1
    53    16    48    1
    54    16    49    1
    55    16    50    1
    56    17    51    1
    57    19    52    1
    58    25    53    1
    59    26    54    1
    60    29    55    1
    61    29    56    1
    62    29    57    1
    63    30    58    1
    64    31    59    1
    65    32    60    1
    66    36    61    1
    67    37    62    1
    68    38    63    1
    69    42    64    1
