@<TRIPOS>MOLECULE
NuBBE_1884
 61 63 0 0 0
SMALL
GASTEIGER

@<TRIPOS>ATOM
      1 O          -4.0840   -0.8368    0.0216 O.2     1  LIG1       -0.2830
      2 C          -2.9006   -0.8080   -0.1621 C.ar    1  LIG1        0.2382
      3 C          -2.0476   -2.0203   -0.0736 C.ar    1  LIG1        0.1131
      4 C          -2.3979   -3.2827   -0.5516 C.ar    1  LIG1        0.1797
      5 C          -1.5258   -4.3847   -0.3025 C.ar    1  LIG1        0.2045
      6 O          -1.9282   -5.5926   -0.8301 O.3     1  LIG1       -0.4885
      7 C          -1.6208   -6.7615   -0.0762 C.3     1  LIG1        0.0791
      8 C          -0.2876   -4.1657    0.3428 C.ar    1  LIG1        0.1687
      9 C           0.0784   -2.8617    0.6973 C.ar    1  LIG1        0.0270
     10 C          -0.7973   -1.8047    0.4676 C.ar    1  LIG1        0.1468
     11 O          -0.3485   -0.5304    0.7377 O.2     1  LIG1       -0.4505
     12 C          -0.9275    0.4865   -0.0286 C.ar    1  LIG1        0.1844
     13 C           0.0137    1.6017   -0.2022 C.ar    1  LIG1        0.0663
     14 C           0.9419    1.5308   -1.2592 C.ar    1  LIG1       -0.0020
     15 C           2.0029    2.4453   -1.3571 C.ar    1  LIG1        0.1628
     16 O           2.8356    2.2149   -2.4264 O.3     1  LIG1       -0.4886
     17 C           4.1905    2.6629   -2.3320 C.3     1  LIG1        0.0870
     18 C           4.9526    1.8949   -1.2620 C.3     1  LIG1       -0.0307
     19 C           2.1149    3.4537   -0.3886 C.ar    1  LIG1        0.1650
     20 C           1.1439    3.5492    0.6128 C.ar    1  LIG1        0.0261
     21 C           0.1113    2.6252    0.7446 C.ar    1  LIG1        0.1349
     22 O          -0.8358    2.7144    1.7384 O.3     1  LIG1       -0.4914
     23 C          -0.3983    3.3130    2.9653 C.3     1  LIG1        0.0868
     24 C          -1.5701    3.4467    3.9190 C.3     1  LIG1       -0.0307
     25 O           3.0926    4.4076   -0.4805 O.3     1  LIG1       -0.4913
     26 C           3.6514    4.8902    0.7417 C.3     1  LIG1        0.0790
     27 C          -2.1606    0.4295   -0.5474 C.ar    1  LIG1        0.2108
     28 O          -2.7220    1.4248   -1.3375 O.3     1  LIG1       -0.4883
     29 C          -3.6506    0.9892   -2.3293 C.3     1  LIG1        0.0791
     30 O           0.5820   -5.2172    0.4904 O.3     1  LIG1       -0.4912
     31 C           1.4831   -5.1442    1.5931 C.3     1  LIG1        0.0790
     32 O          -3.5300   -3.5564   -1.2858 O.3     1  LIG1       -0.4905
     33 C          -3.9071   -2.5476   -2.2234 C.3     1  LIG1        0.0790
     34 H          -1.8055   -6.6209    0.9941 H       1  LIG1        0.0660
     35 H          -0.5977   -7.1003   -0.2641 H       1  LIG1        0.0660
     36 H          -2.2790   -7.5654   -0.4236 H       1  LIG1        0.0660
     37 H           1.0589   -2.6323    1.0980 H       1  LIG1        0.0692
     38 H           0.8648    0.7261   -1.9900 H       1  LIG1        0.0663
     39 H           4.2540    3.7477   -2.2190 H       1  LIG1        0.0694
     40 H           4.6692    2.4706   -3.3006 H       1  LIG1        0.0694
     41 H           4.3808    1.7888   -0.3354 H       1  LIG1        0.0262
     42 H           5.9009    2.3854   -1.0285 H       1  LIG1        0.0262
     43 H           5.1592    0.8786   -1.6126 H       1  LIG1        0.0262
     44 H           1.1676    4.3997    1.2717 H       1  LIG1        0.0692
     45 H          -0.0101    4.3254    2.8181 H       1  LIG1        0.0694
     46 H           0.3781    2.6839    3.4155 H       1  LIG1        0.0694
     47 H          -2.4094    3.9586    3.4371 H       1  LIG1        0.0262
     48 H          -1.2731    4.0198    4.8039 H       1  LIG1        0.0262
     49 H          -1.9224    2.4636    4.2410 H       1  LIG1        0.0262
     50 H           4.1851    5.8160    0.5115 H       1  LIG1        0.0660
     51 H           4.3640    4.1656    1.1476 H       1  LIG1        0.0660
     52 H           2.9194    5.1505    1.5088 H       1  LIG1        0.0660
     53 H          -4.0411    1.8667   -2.8550 H       1  LIG1        0.0660
     54 H          -4.5171    0.4747   -1.9041 H       1  LIG1        0.0660
     55 H          -3.1583    0.3559   -3.0771 H       1  LIG1        0.0660
     56 H           2.0090   -6.1016    1.6618 H       1  LIG1        0.0660
     57 H           0.9434   -4.9872    2.5333 H       1  LIG1        0.0660
     58 H           2.2434   -4.3721    1.4413 H       1  LIG1        0.0660
     59 H          -3.9698   -2.9772   -3.2252 H       1  LIG1        0.0660
     60 H          -3.1808   -1.7391   -2.3175 H       1  LIG1        0.0660
     61 H          -4.8879   -2.1476   -1.9470 H       1  LIG1        0.0660
@<TRIPOS>BOND
     1     1     2    2
     2     2     3   ar
     3     3     4   ar
     4     4     5   ar
     5     5     6    1
     6     6     7    1
     7     5     8   ar
     8     8     9   ar
     9     9    10   ar
    10     3    10   ar
    11    10    11   ar
    12    11    12   ar
    13    12    13    1
    14    13    14   ar
    15    14    15   ar
    16    15    16    1
    17    16    17    1
    18    17    18    1
    19    15    19   ar
    20    19    20   ar
    21    20    21   ar
    22    13    21   ar
    23    21    22    1
    24    22    23    1
    25    23    24    1
    26    19    25    1
    27    25    26    1
    28    12    27   ar
    29     2    27   ar
    30    27    28    1
    31    28    29    1
    32     8    30    1
    33    30    31    1
    34     4    32    1
    35    32    33    1
    36     7    34    1
    37     7    35    1
    38     7    36    1
    39     9    37    1
    40    14    38    1
    41    17    39    1
    42    17    40    1
    43    18    41    1
    44    18    42    1
    45    18    43    1
    46    20    44    1
    47    23    45    1
    48    23    46    1
    49    24    47    1
    50    24    48    1
    51    24    49    1
    52    26    50    1
    53    26    51    1
    54    26    52    1
    55    29    53    1
    56    29    54    1
    57    29    55    1
    58    31    56    1
    59    31    57    1
    60    31    58    1
    61    33    59    1
    62    33    60    1
    63    33    61    1
