@<TRIPOS>MOLECULE
NuBBE_2461
 53 55 0 0 0
SMALL
GASTEIGER

@<TRIPOS>ATOM
      1 C          -3.3923    4.7902    0.6020 C.3     1  LIG1        0.0790
      2 O          -3.2076    3.5746    1.3201 O.3     1  LIG1       -0.4914
      3 C          -2.5545    2.5848    0.6323 C.ar    1  LIG1        0.1615
      4 C          -2.8714    1.2824    1.0106 C.ar    1  LIG1        0.1587
      5 O          -3.7791    1.0522    2.0073 O.3     1  LIG1       -0.5033
      6 C          -2.2723    0.1907    0.4001 C.ar    1  LIG1       -0.0125
      7 C          -1.2882    0.3821   -0.5904 C.ar    1  LIG1       -0.0328
      8 C          -0.5382   -0.8382   -1.1191 C.3     1  LIG1        0.0149
      9 H          -1.3273   -1.5628   -1.3753 H       1  LIG1        0.0401
     10 C           0.2905   -1.5371   -0.0364 C.ar    1  LIG1       -0.0359
     11 C           0.5408   -2.9029   -0.1131 C.ar    1  LIG1       -0.0543
     12 C           1.2353   -3.5592    0.9094 C.ar    1  LIG1       -0.0160
     13 C           1.6831   -2.8548    2.0393 C.ar    1  LIG1        0.1615
     14 O           2.3861   -3.4514    3.0586 O.3     1  LIG1       -0.4915
     15 C           2.0855   -4.8195    3.3121 C.3     1  LIG1        0.0790
     16 C           1.4605   -1.4753    2.1227 C.ar    1  LIG1        0.1618
     17 O           1.9127   -0.8063    3.2375 O.3     1  LIG1       -0.4914
     18 C           1.5691    0.5740    3.3397 C.3     1  LIG1        0.0790
     19 C           0.7735   -0.8358    1.0844 C.ar    1  LIG1       -0.0125
     20 C           0.2731   -0.5619   -2.4180 C.3     1  LIG1       -0.0018
     21 H           1.0361   -1.3407   -2.5518 H       1  LIG1        0.0335
     22 C          -0.6784   -0.7048   -3.6273 C.3     1  LIG1        0.0482
     23 O          -0.0072   -0.4785   -4.8600 O.3     1  LIG1       -0.3947
     24 C           0.9928    0.8155   -2.4243 C.3     1  LIG1       -0.0081
     25 H           1.3561    0.9976   -3.4453 H       1  LIG1        0.0330
     26 C           2.2624    0.8618   -1.5626 C.3     1  LIG1        0.0477
     27 O           3.1884   -0.1146   -2.0240 O.3     1  LIG1       -0.3947
     28 C           0.0392    1.9675   -2.0799 C.3     1  LIG1       -0.0220
     29 C          -0.9501    1.6907   -0.9756 C.ar    1  LIG1       -0.0396
     30 C          -1.5966    2.7848   -0.3624 C.ar    1  LIG1       -0.0128
     31 H          -4.0790    5.4160    1.1801 H       1  LIG1        0.0660
     32 H          -3.8495    4.6060   -0.3763 H       1  LIG1        0.0660
     33 H          -2.4503    5.3377    0.5014 H       1  LIG1        0.0660
     34 H          -4.0330    1.9390    2.3282 H       1  LIG1        0.2923
     35 H          -2.5359   -0.8103    0.7338 H       1  LIG1        0.0658
     36 H           0.1915   -3.4849   -0.9649 H       1  LIG1        0.0622
     37 H           1.4198   -4.6167    0.7858 H       1  LIG1        0.0655
     38 H           2.7436   -5.1674    4.1132 H       1  LIG1        0.0660
     39 H           2.2848   -5.4621    2.4487 H       1  LIG1        0.0660
     40 H           1.0490   -4.9317    3.6485 H       1  LIG1        0.0660
     41 H           1.9086    0.9476    4.3091 H       1  LIG1        0.0660
     42 H           0.4830    0.7250    3.2950 H       1  LIG1        0.0660
     43 H           2.0755    1.1607    2.5630 H       1  LIG1        0.0660
     44 H           0.5894    0.2280    1.1363 H       1  LIG1        0.0658
     45 H          -1.0978   -1.7165   -3.6651 H       1  LIG1        0.0560
     46 H          -1.5155   -0.0030   -3.5689 H       1  LIG1        0.0560
     47 H           0.6793   -1.1627   -4.9507 H       1  LIG1        0.2094
     48 H           2.7456    1.8415   -1.6451 H       1  LIG1        0.0560
     49 H           2.0666    0.6891   -0.5076 H       1  LIG1        0.0560
     50 H           3.9397   -0.1098   -1.4051 H       1  LIG1        0.2094
     51 H          -0.5455    2.2169   -2.9747 H       1  LIG1        0.0317
     52 H           0.6228    2.8632   -1.8309 H       1  LIG1        0.0317
     53 H          -1.3148    3.7892   -0.6642 H       1  LIG1        0.0658
@<TRIPOS>BOND
     1     1     2    1
     2     2     3    1
     3     3     4   ar
     4     4     5    1
     5     4     6   ar
     6     6     7   ar
     7     7     8    1
     8     8     9    1
     9     8    10    1
    10    10    11   ar
    11    11    12   ar
    12    12    13   ar
    13    13    14    1
    14    14    15    1
    15    13    16   ar
    16    16    17    1
    17    17    18    1
    18    16    19   ar
    19    10    19   ar
    20     8    20    1
    21    22    23    1
    22    20    24    1
    23    26    27    1
    24    24    28    1
    25     7    29   ar
    26    28    29    1
    27    29    30   ar
    28     3    30   ar
    29    20    22    1
    30    20    21    1
    31    24    26    1
    32    24    25    1
    33     1    31    1
    34     1    32    1
    35     1    33    1
    36     5    34    1
    37     6    35    1
    38    11    36    1
    39    12    37    1
    40    15    38    1
    41    15    39    1
    42    15    40    1
    43    18    41    1
    44    18    42    1
    45    18    43    1
    46    19    44    1
    47    22    45    1
    48    22    46    1
    49    23    47    1
    50    26    48    1
    51    26    49    1
    52    27    50    1
    53    28    51    1
    54    28    52    1
    55    30    53    1
