@<TRIPOS>MOLECULE
NuBBE_629
 30 30 0 0 0
SMALL
GASTEIGER

@<TRIPOS>ATOM
      1 O          -0.4701   -1.9418   -0.8305 O.2     1  LIG1       -0.2450
      2 C          -0.3117   -1.0429   -0.0215 C.2     1  LIG1        0.3394
      3 O          -1.2640   -0.2134    0.4645 O.3     1  LIG1       -0.4609
      4 C          -2.5609   -0.3315   -0.1386 C.3     1  LIG1        0.0951
      5 C          -2.6036    0.4339   -1.4692 C.3     1  LIG1       -0.0123
      6 C          -3.9817    0.3149   -2.1121 C.3     1  LIG1       -0.0596
      7 C          -2.2232    1.9045   -1.2811 C.3     1  LIG1       -0.0596
      8 C           1.0042   -0.7075    0.5736 C.ar    1  LIG1        0.0661
      9 C           2.0119   -1.6863    0.5406 C.ar    1  LIG1       -0.0023
     10 C           3.2704   -1.3845    1.0454 C.ar    1  LIG1        0.1628
     11 O           4.2889   -2.2947    1.0466 O.3     1  LIG1       -0.5032
     12 C           3.5294   -0.1204    1.5646 C.ar    1  LIG1        0.2006
     13 O           4.7751    0.1937    2.0455 O.3     1  LIG1       -0.5009
     14 C           2.5322    0.8466    1.5947 C.ar    1  LIG1        0.1628
     15 O           2.7945    2.0877    2.0947 O.3     1  LIG1       -0.5032
     16 C           1.2638    0.5636    1.1083 C.ar    1  LIG1       -0.0023
     17 H          -3.2817    0.0929    0.5699 H       1  LIG1        0.0700
     18 H          -2.8299   -1.3869   -0.2692 H       1  LIG1        0.0700
     19 H          -1.8670   -0.0059   -2.1528 H       1  LIG1        0.0328
     20 H          -4.7478    0.8101   -1.5060 H       1  LIG1        0.0233
     21 H          -4.2670   -0.7355   -2.2317 H       1  LIG1        0.0233
     22 H          -3.9835    0.7768   -3.1049 H       1  LIG1        0.0233
     23 H          -2.8914    2.3994   -0.5682 H       1  LIG1        0.0233
     24 H          -2.2807    2.4443   -2.2321 H       1  LIG1        0.0233
     25 H          -1.1982    2.0041   -0.9093 H       1  LIG1        0.0233
     26 H           1.7977   -2.6640    0.1162 H       1  LIG1        0.0663
     27 H           3.9557   -3.1299    0.6735 H       1  LIG1        0.2923
     28 H           5.2980   -0.6208    1.9025 H       1  LIG1        0.2924
     29 H           3.7368    2.0554    2.3574 H       1  LIG1        0.2923
     30 H           0.5037    1.3381    1.1291 H       1  LIG1        0.0663
@<TRIPOS>BOND
     1     1     2    2
     2     2     3    1
     3     3     4    1
     4     4     5    1
     5     5     6    1
     6     5     7    1
     7     2     8    1
     8     8     9   ar
     9     9    10   ar
    10    10    11    1
    11    10    12   ar
    12    12    13    1
    13    12    14   ar
    14    14    15    1
    15    14    16   ar
    16     8    16   ar
    17     4    17    1
    18     4    18    1
    19     5    19    1
    20     6    20    1
    21     6    21    1
    22     6    22    1
    23     7    23    1
    24     7    24    1
    25     7    25    1
    26     9    26    1
    27    11    27    1
    28    13    28    1
    29    15    29    1
    30    16    30    1
