@<TRIPOS>MOLECULE
NuBBE_2280
 41 44 0 0 0
SMALL
GASTEIGER

@<TRIPOS>ATOM
      1 O          -2.2817    1.1958    0.2965 O.3     1  LIG1       -0.5052
      2 C          -0.9133    1.1496    0.1607 C.ar    1  LIG1        0.1418
      3 C          -0.2263   -0.0711    0.0677 C.ar    1  LIG1        0.1066
      4 C           1.1591   -0.0794   -0.0679 C.ar    1  LIG1        0.1454
      5 O           1.8926   -1.2336   -0.1665 O.2     1  LIG1       -0.4618
      6 C           1.2156   -2.4276   -0.1305 C.ar    1  LIG1        0.1038
      7 C          -0.1088   -2.5982    0.0041 C.ar    1  LIG1        0.0644
      8 C          -0.6992   -3.9500    0.0116 C.ar    1  LIG1       -0.0110
      9 C          -1.7969   -4.2526   -0.8089 C.ar    1  LIG1       -0.0504
     10 C          -2.3602   -5.5325   -0.8111 C.ar    1  LIG1       -0.0196
     11 C          -1.8246   -6.5162    0.0114 C.ar    1  LIG1        0.1169
     12 O          -2.3413   -7.7769    0.0420 O.3     1  LIG1       -0.5068
     13 C          -0.7415   -6.2403    0.8353 C.ar    1  LIG1       -0.0196
     14 C          -0.1814   -4.9603    0.8386 C.ar    1  LIG1       -0.0504
     15 C          -0.9338   -1.3633    0.1071 C.ar    1  LIG1        0.2037
     16 O          -2.1564   -1.3804    0.2223 O.2     1  LIG1       -0.2863
     17 C           1.8653    1.1207   -0.1116 C.ar    1  LIG1        0.0239
     18 C           1.1845    2.3370   -0.0218 C.ar    1  LIG1        0.1359
     19 C          -0.2077    2.3641    0.1153 C.ar    1  LIG1        0.0588
     20 C          -0.8823    3.6525    0.2082 C.2     1  LIG1       -0.0478
     21 C          -0.1442    4.7636    0.1424 C.2     1  LIG1       -0.0408
     22 C           1.3564    4.7549   -0.0217 C.3     1  LIG1        0.1235
     23 C           1.7279    5.4638   -1.3294 C.3     1  LIG1       -0.0215
     24 C           1.9988    5.4862    1.1628 C.3     1  LIG1       -0.0215
     25 O           1.9731    3.4517   -0.0748 O.3     1  LIG1       -0.4814
     26 H          -2.6240    0.2734    0.3209 H       1  LIG1        0.2922
     27 H           1.9230   -3.2418   -0.2387 H       1  LIG1        0.1037
     28 H          -2.2297   -3.4899   -1.4540 H       1  LIG1        0.0625
     29 H          -3.2106   -5.7353   -1.4545 H       1  LIG1        0.0654
     30 H          -3.1076   -7.8122   -0.5539 H       1  LIG1        0.2921
     31 H          -0.3375   -7.0167    1.4789 H       1  LIG1        0.0654
     32 H           0.6557   -4.7615    1.5041 H       1  LIG1        0.0625
     33 H           2.9471    1.1148   -0.2170 H       1  LIG1        0.0691
     34 H          -1.9602    3.6842    0.3250 H       1  LIG1        0.0624
     35 H          -0.6391    5.7292    0.2069 H       1  LIG1        0.0611
     36 H           1.3616    6.4960   -1.3558 H       1  LIG1        0.0271
     37 H           1.3149    4.9301   -2.1940 H       1  LIG1        0.0271
     38 H           2.8152    5.4807   -1.4693 H       1  LIG1        0.0271
     39 H           1.6459    6.5199    1.2482 H       1  LIG1        0.0271
     40 H           3.0909    5.5024    1.0662 H       1  LIG1        0.0271
     41 H           1.7811    4.9693    2.1053 H       1  LIG1        0.0271
@<TRIPOS>BOND
     1     1     2    1
     2     2     3   ar
     3     3     4   ar
     4     4     5   ar
     5     5     6   ar
     6     6     7   ar
     7     7     8    1
     8     8     9   ar
     9     9    10   ar
    10    10    11   ar
    11    11    12    1
    12    11    13   ar
    13    13    14   ar
    14     8    14   ar
    15     7    15   ar
    16     3    15   ar
    17    15    16    2
    18     4    17   ar
    19    17    18   ar
    20    18    19   ar
    21     2    19   ar
    22    19    20    1
    23    20    21    2
    24    21    22    1
    25    22    23    1
    26    22    24    1
    27    22    25    1
    28    18    25    1
    29     1    26    1
    30     6    27    1
    31     9    28    1
    32    10    29    1
    33    12    30    1
    34    13    31    1
    35    14    32    1
    36    17    33    1
    37    20    34    1
    38    21    35    1
    39    23    36    1
    40    23    37    1
    41    23    38    1
    42    24    39    1
    43    24    40    1
    44    24    41    1
