@<TRIPOS>MOLECULE
NuBBE_2356
 54 56 0 0 0
SMALL
GASTEIGER

@<TRIPOS>ATOM
      1 C          -1.6345    2.4300   -3.4341 C.3     1  LIG1       -0.0585
      2 C          -2.3966    2.0508   -2.1619 C.3     1  LIG1       -0.0178
      3 C          -3.9079    2.2378   -2.3753 C.3     1  LIG1       -0.0585
      4 C          -1.9664    0.6736   -1.6399 C.ar    1  LIG1        0.0003
      5 C          -2.5968   -0.5100   -2.0729 C.ar    1  LIG1        0.1234
      6 O          -3.4942   -0.5030   -3.1044 O.3     1  LIG1       -0.5062
      7 C          -2.3275   -1.7492   -1.4962 C.ar    1  LIG1       -0.0085
      8 C          -3.0323   -3.0086   -1.9136 C.3     1  LIG1       -0.0362
      9 C          -1.3505   -1.8226   -0.5020 C.ar    1  LIG1       -0.0514
     10 C          -0.6212   -0.6943   -0.0740 C.ar    1  LIG1       -0.0373
     11 C          -0.9227    0.5588   -0.6650 C.ar    1  LIG1       -0.0367
     12 C          -0.1466    1.7721   -0.2070 C.3     1  LIG1       -0.0267
     13 C           1.2719    1.3991    0.1950 C.3     1  LIG1       -0.0444
     14 C           1.2553    0.4344    1.3898 C.3     1  LIG1       -0.0158
     15 H           0.6855    0.9648    2.1678 H       1  LIG1        0.0320
     16 C           0.4115   -0.8606    1.0786 C.3     1  LIG1       -0.0029
     17 C          -0.4384   -1.2088    2.3354 C.3     1  LIG1       -0.0552
     18 C           1.3817   -2.0230    0.7530 C.3     1  LIG1       -0.0433
     19 C           2.3960   -2.3386    1.8502 C.3     1  LIG1       -0.0512
     20 C           2.8090   -1.1467    2.7040 C.3     1  LIG1       -0.0372
     21 C           2.7208    0.2030    1.9678 C.3     1  LIG1        0.0684
     22 C           3.0397    1.2986    2.9878 C.2     1  LIG1        0.3110
     23 O           4.2605    1.1629    3.5605 O.3     1  LIG1       -0.4802
     24 O           2.3219    2.2377    3.3202 O.2     1  LIG1       -0.2504
     25 C           3.8331    0.2610    0.8921 C.3     1  LIG1       -0.0491
     26 H          -1.8974    3.4455   -3.7512 H       1  LIG1        0.0235
     27 H          -1.8640    1.7513   -4.2617 H       1  LIG1        0.0235
     28 H          -0.5513    2.4027   -3.2771 H       1  LIG1        0.0235
     29 H          -2.1548    2.7916   -1.3902 H       1  LIG1        0.0345
     30 H          -4.2692    1.7494   -3.2854 H       1  LIG1        0.0235
     31 H          -4.1434    3.3029   -2.4863 H       1  LIG1        0.0235
     32 H          -4.4821    1.8565   -1.5244 H       1  LIG1        0.0235
     33 H          -3.0195   -0.1270   -3.8671 H       1  LIG1        0.2922
     34 H          -3.8809   -2.8181   -2.5771 H       1  LIG1        0.0279
     35 H          -3.4263   -3.5269   -1.0326 H       1  LIG1        0.0279
     36 H          -2.3347   -3.6706   -2.4363 H       1  LIG1        0.0279
     37 H          -1.1719   -2.7946   -0.0473 H       1  LIG1        0.0624
     38 H          -0.6774    2.2451    0.6279 H       1  LIG1        0.0313
     39 H          -0.0572    2.5107   -1.0085 H       1  LIG1        0.0313
     40 H           1.8150    2.3149    0.4571 H       1  LIG1        0.0272
     41 H           1.7846    0.9475   -0.6642 H       1  LIG1        0.0272
     42 H          -1.2253   -0.4602    2.4939 H       1  LIG1        0.0238
     43 H           0.1486   -1.2438    3.2545 H       1  LIG1        0.0238
     44 H          -0.9318   -2.1825    2.2391 H       1  LIG1        0.0238
     45 H           1.9148   -1.7881   -0.1777 H       1  LIG1        0.0274
     46 H           0.8508   -2.9574    0.5399 H       1  LIG1        0.0274
     47 H           3.2844   -2.7789    1.3804 H       1  LIG1        0.0266
     48 H           1.9941   -3.1172    2.5105 H       1  LIG1        0.0266
     49 H           3.8265   -1.3299    3.0755 H       1  LIG1        0.0276
     50 H           2.1984   -1.1085    3.6135 H       1  LIG1        0.0276
     51 H           4.3118    1.9268    4.1803 H       1  LIG1        0.2951
     52 H           3.6496   -0.4239    0.0600 H       1  LIG1        0.0240
     53 H           4.8096   -0.0082    1.3136 H       1  LIG1        0.0240
     54 H           3.9474    1.2714    0.4849 H       1  LIG1        0.0240
@<TRIPOS>BOND
     1     1     2    1
     2     2     3    1
     3     2     4    1
     4     4     5   ar
     5     5     6    1
     6     5     7   ar
     7     7     8    1
     8     7     9   ar
     9     9    10   ar
    10    10    11   ar
    11     4    11   ar
    12    11    12    1
    13    12    13    1
    14    13    14    1
    15    14    15    1
    16    14    16    1
    17    10    16    1
    18    16    17    1
    19    16    18    1
    20    18    19    1
    21    19    20    1
    22    20    21    1
    23    14    21    1
    24    21    22    1
    25    22    23    1
    26    22    24    2
    27    21    25    1
    28     1    26    1
    29     1    27    1
    30     1    28    1
    31     2    29    1
    32     3    30    1
    33     3    31    1
    34     3    32    1
    35     6    33    1
    36     8    34    1
    37     8    35    1
    38     8    36    1
    39     9    37    1
    40    12    38    1
    41    12    39    1
    42    13    40    1
    43    13    41    1
    44    17    42    1
    45    17    43    1
    46    17    44    1
    47    18    45    1
    48    18    46    1
    49    19    47    1
    50    19    48    1
    51    20    49    1
    52    20    50    1
    53    23    51    1
    54    25    52    1
    55    25    53    1
    56    25    54    1
