@<TRIPOS>MOLECULE
NuBBE_1194
 85 88 0 0 0
SMALL
GASTEIGER

@<TRIPOS>ATOM
      1 C          -1.8398   -2.6722    2.1266 C.3     1  LIG1       -0.0355
      2 C          -1.0405   -1.5017    2.7241 C.3     1  LIG1        0.0704
      3 O           0.2093   -1.5068    2.0119 O.3     1  LIG1       -0.3673
      4 C           1.2924   -1.8914    2.8862 C.3     1  LIG1        0.0876
      5 C           2.3575   -2.6734    2.0797 C.3     1  LIG1        0.0865
      6 C           1.8093   -3.9460    1.4275 C.3     1  LIG1       -0.0339
      7 O           2.8075   -1.8271    1.0072 O.3     1  LIG1       -0.3866
      8 C           3.5821   -2.9933    2.9344 C.3     1  LIG1       -0.0339
      9 H           1.7372   -0.9498    3.2358 H       1  LIG1        0.0625
     10 C           0.6400   -2.6115    4.0476 C.3     1  LIG1       -0.0213
     11 C          -0.6671   -1.8586    4.1805 C.3     1  LIG1       -0.0213
     12 C          -1.7928   -0.1120    2.6567 C.3     1  LIG1       -0.0088
     13 H          -2.6606   -0.2776    3.3170 H       1  LIG1        0.0331
     14 C          -1.0144    1.0680    3.2860 C.3     1  LIG1       -0.0468
     15 C          -1.3409    2.3323    2.4840 C.3     1  LIG1       -0.0464
     16 C          -1.7101    1.8905    1.0483 C.3     1  LIG1       -0.0209
     17 C          -2.7864    2.8773    0.5072 C.3     1  LIG1       -0.0587
     18 C          -0.4749    1.7798   -0.0141 C.3     1  LIG1        0.0029
     19 C          -0.8817    0.8362   -1.2181 C.3     1  LIG1       -0.0268
     20 C          -1.4213   -0.5044   -0.6715 C.3     1  LIG1       -0.0488
     21 C          -2.6786   -0.3078    0.1413 C.3     1  LIG1       -0.0491
     22 C          -2.4222    0.5257    1.3713 C.3     1  LIG1       -0.0296
     23 C           0.8014    1.2991    0.7053 C.3     1  LIG1       -0.0564
     24 C          -0.1031    3.1384   -0.6825 C.3     1  LIG1        0.0619
     25 H          -0.9202    3.4870   -1.3258 H       1  LIG1        0.0599
     26 O           0.1123    4.1489    0.3022 O.3     1  LIG1       -0.3912
     27 C           1.1664    3.0186   -1.5248 C.3     1  LIG1       -0.0193
     28 C           1.1255    1.9381   -2.6270 C.3     1  LIG1       -0.0124
     29 C           0.1700    0.6534   -2.4069 C.3     1  LIG1       -0.0216
     30 C           0.9533   -0.6711   -2.2443 C.3     1  LIG1       -0.0587
     31 C          -0.6323    0.5065   -3.7792 C.3     1  LIG1       -0.0367
     32 C          -1.6656   -0.6200   -3.8959 C.3     1  LIG1        0.0453
     33 C          -2.3401   -0.6473   -5.2414 C.2     1  LIG1        0.3047
     34 O          -3.2413   -1.6508   -5.3174 O.3     1  LIG1       -0.4806
     35 O          -2.1798    0.1150   -6.1680 O.2     1  LIG1       -0.2510
     36 C           2.5694    1.7499   -3.1528 C.2     1  LIG1       -0.0760
     37 C           3.5313    0.7868   -2.4998 C.3     1  LIG1       -0.0438
     38 C           3.0539    2.5435   -4.1269 C.2     1  LIG1       -0.0994
     39 H          -1.4011   -3.6369    2.4084 H       1  LIG1        0.0257
     40 H          -1.7942   -2.6840    1.0348 H       1  LIG1        0.0257
     41 H          -2.8819   -2.6691    2.4550 H       1  LIG1        0.0257
     42 H           2.5709   -4.4143    0.7929 H       1  LIG1        0.0258
     43 H           0.9629   -3.7212    0.7690 H       1  LIG1        0.0258
     44 H           1.4898   -4.6848    2.1675 H       1  LIG1        0.0258
     45 H           1.9919   -1.4488    0.6248 H       1  LIG1        0.2102
     46 H           4.3534   -3.4950    2.3383 H       1  LIG1        0.0258
     47 H           3.3318   -3.6349    3.7842 H       1  LIG1        0.0258
     48 H           4.0407   -2.0726    3.3135 H       1  LIG1        0.0258
     49 H           1.2453   -2.5791    4.9575 H       1  LIG1        0.0292
     50 H           0.4359   -3.6609    3.8180 H       1  LIG1        0.0292
     51 H          -0.4901   -0.9669    4.7894 H       1  LIG1        0.0294
     52 H          -1.4410   -2.4442    4.6869 H       1  LIG1        0.0294
     53 H           0.0636    0.8941    3.3034 H       1  LIG1        0.0269
     54 H          -1.3157    1.2101    4.3313 H       1  LIG1        0.0269
     55 H          -0.5255    3.0585    2.5264 H       1  LIG1        0.0271
     56 H          -2.2030    2.8166    2.9638 H       1  LIG1        0.0271
     57 H          -2.4223    3.9090    0.4927 H       1  LIG1        0.0235
     58 H          -3.6829    2.8836    1.1393 H       1  LIG1        0.0235
     59 H          -3.1149    2.6158   -0.5026 H       1  LIG1        0.0235
     60 H          -1.7394    1.3364   -1.6910 H       1  LIG1        0.0312
     61 H          -0.6492   -0.9993   -0.0866 H       1  LIG1        0.0268
     62 H          -1.6762   -1.2106   -1.4594 H       1  LIG1        0.0268
     63 H          -3.1543   -1.2563    0.3969 H       1  LIG1        0.0268
     64 H          -3.4220    0.1997   -0.4893 H       1  LIG1        0.0268
     65 H          -3.4381    0.7882    1.7144 H       1  LIG1        0.0310
     66 H           0.6154    0.4295    1.3011 H       1  LIG1        0.0236
     67 H           1.2099    2.0666    1.3722 H       1  LIG1        0.0236
     68 H           1.6046    1.0139    0.0285 H       1  LIG1        0.0236
     69 H           0.3034    4.9801   -0.1656 H       1  LIG1        0.2098
     70 H           2.0455    2.9007   -0.8780 H       1  LIG1        0.0296
     71 H           1.3465    3.9965   -1.9980 H       1  LIG1        0.0296
     72 H           0.6200    2.4883   -3.4370 H       1  LIG1        0.0352
     73 H           1.5938   -0.6631   -1.3638 H       1  LIG1        0.0235
     74 H           1.5495   -0.8900   -3.1338 H       1  LIG1        0.0235
     75 H           0.3117   -1.5491   -2.1368 H       1  LIG1        0.0235
     76 H          -1.1598    1.4499   -3.9783 H       1  LIG1        0.0276
     77 H           0.0937    0.3933   -4.5964 H       1  LIG1        0.0276
     78 H          -2.4720   -0.4662   -3.1746 H       1  LIG1        0.0378
     79 H          -1.1980   -1.5965   -3.7436 H       1  LIG1        0.0378
     80 H          -3.6396   -1.5457   -6.2066 H       1  LIG1        0.2951
     81 H           4.5665    1.1409   -2.5608 H       1  LIG1        0.0274
     82 H           3.5101   -0.1855   -3.0019 H       1  LIG1        0.0274
     83 H           3.3196    0.6538   -1.4372 H       1  LIG1        0.0274
     84 H           4.0849    2.4578   -4.4616 H       1  LIG1        0.0534
     85 H           2.4551    3.3192   -4.5915 H       1  LIG1        0.0534
@<TRIPOS>BOND
     1     2     3    1
     2     3     4    1
     3     5     6    1
     4     5     7    1
     5     5     8    1
     6     4    10    1
     7    10    11    1
     8     2    11    1
     9    12    14    1
    10    14    15    1
    11    15    16    1
    12    16    18    1
    13    18    19    1
    14    19    20    1
    15    20    21    1
    16    21    22    1
    17    16    22    1
    18    12    22    1
    19    18    24    1
    20    24    27    1
    21    27    28    1
    22    28    29    1
    23    19    29    1
    24    31    32    1
    25    32    33    1
    26    33    34    1
    27    33    35    2
    28    36    37    1
    29    36    38    2
    30    12    13    1
    31    16    17    1
    32    18    23    1
    33    28    36    1
    34     4     9    1
    35     4     5    1
    36     2    12    1
    37     2     1    1
    38    24    26    1
    39    24    25    1
    40    29    31    1
    41    29    30    1
    42     1    39    1
    43     1    40    1
    44     1    41    1
    45     6    42    1
    46     6    43    1
    47     6    44    1
    48     7    45    1
    49     8    46    1
    50     8    47    1
    51     8    48    1
    52    10    49    1
    53    10    50    1
    54    11    51    1
    55    11    52    1
    56    14    53    1
    57    14    54    1
    58    15    55    1
    59    15    56    1
    60    17    57    1
    61    17    58    1
    62    17    59    1
    63    19    60    1
    64    20    61    1
    65    20    62    1
    66    21    63    1
    67    21    64    1
    68    22    65    1
    69    23    66    1
    70    23    67    1
    71    23    68    1
    72    26    69    1
    73    27    70    1
    74    27    71    1
    75    28    72    1
    76    30    73    1
    77    30    74    1
    78    30    75    1
    79    31    76    1
    80    31    77    1
    81    32    78    1
    82    32    79    1
    83    34    80    1
    84    37    81    1
    85    37    82    1
    86    37    83    1
    87    38    84    1
    88    38    85    1
