@<TRIPOS>MOLECULE
NuBBE_168
 77 77 0 0 0
SMALL
GASTEIGER

@<TRIPOS>ATOM
      1 O           6.3683    3.3940    0.7855 O.3     1  LIG1       -0.3900
      2 C           5.4114    4.0769   -0.0235 C.3     1  LIG1        0.0737
      3 H           5.9125    4.9698   -0.4138 H       1  LIG1        0.0612
      4 C           4.9207    3.1970   -1.2049 C.3     1  LIG1        0.0525
      5 H           4.2488    3.8140   -1.8186 H       1  LIG1        0.0524
      6 C           6.0590    2.8047   -2.1529 C.3     1  LIG1       -0.0439
      7 N           4.0566    2.0953   -0.6930 N.am    1  LIG1       -0.2591
      8 C           4.5646    0.8763   -0.2670 C.2     1  LIG1        0.4039
      9 O           5.9039    0.7644   -0.4248 O.3     1  LIG1       -0.4445
     10 C           6.6212   -0.4263   -0.0119 C.3     1  LIG1        0.1068
     11 C           6.5373   -0.6043    1.5071 C.3     1  LIG1       -0.0253
     12 C           6.0980   -1.6521   -0.7618 C.3     1  LIG1       -0.0253
     13 C           8.0926   -0.2055   -0.4157 C.3     1  LIG1       -0.0253
     14 O           3.8800   -0.0043    0.2649 O.2     1  LIG1       -0.2262
     15 C           2.8489    2.6172   -0.0283 C.3     1  LIG1        0.0296
     16 H           2.4259    3.3591   -0.7201 H       1  LIG1        0.0501
     17 C           1.6746    1.6811    0.3213 C.3     1  LIG1       -0.0342
     18 C           1.0413    0.9562   -0.8669 C.3     1  LIG1       -0.0514
     19 C          -0.1603    0.0755   -0.4792 C.3     1  LIG1       -0.0530
     20 C          -1.3263    0.8296    0.1787 C.3     1  LIG1       -0.0531
     21 C          -2.5173   -0.0644    0.5597 C.3     1  LIG1       -0.0531
     22 C          -3.0767   -0.8646   -0.6215 C.3     1  LIG1       -0.0531
     23 C          -4.2717   -1.7249   -0.2012 C.3     1  LIG1       -0.0531
     24 C          -4.8311   -2.5396   -1.3754 C.3     1  LIG1       -0.0531
     25 C          -6.0421   -3.4227   -1.0132 C.3     1  LIG1       -0.0530
     26 C          -7.2526   -2.6206   -0.5034 C.3     1  LIG1       -0.0527
     27 C          -8.4754   -3.4870   -0.1635 C.3     1  LIG1       -0.0464
     28 C          -9.6875   -2.6870    0.3346 C.3     1  LIG1        0.0055
     29 C          -9.4642   -1.8745    1.6005 C.2     1  LIG1        0.1303
     30 C          -9.8048   -2.5185    2.9209 C.3     1  LIG1       -0.0061
     31 O          -9.0734   -0.7073    1.5511 O.2     1  LIG1       -0.2977
     32 C           3.3111    3.3600    1.2440 C.3     1  LIG1       -0.0318
     33 C           4.2449    4.5187    0.8731 C.3     1  LIG1       -0.0234
     34 H           6.1002    2.4586    0.8237 H       1  LIG1        0.2099
     35 H           6.4351    3.6925   -2.6722 H       1  LIG1        0.0248
     36 H           5.7163    2.0874   -2.9053 H       1  LIG1        0.0248
     37 H           6.9238    2.3806   -1.6357 H       1  LIG1        0.0248
     38 H           6.7658    0.3298    2.0334 H       1  LIG1        0.0268
     39 H           7.2260   -1.3803    1.8556 H       1  LIG1        0.0268
     40 H           5.5305   -0.8989    1.8178 H       1  LIG1        0.0268
     41 H           5.0372   -1.8294   -0.5708 H       1  LIG1        0.0268
     42 H           6.6378   -2.5567   -0.4694 H       1  LIG1        0.0268
     43 H           6.1938   -1.5096   -1.8439 H       1  LIG1        0.0268
     44 H           8.5128    0.6899    0.0570 H       1  LIG1        0.0268
     45 H           8.1856   -0.0534   -1.4981 H       1  LIG1        0.0268
     46 H           8.7172   -1.0640   -0.1431 H       1  LIG1        0.0268
     47 H           1.9419    0.9717    1.1115 H       1  LIG1        0.0283
     48 H           0.9074    2.3310    0.7579 H       1  LIG1        0.0283
     49 H           1.7825    0.3158   -1.3595 H       1  LIG1        0.0266
     50 H           0.7174    1.6908   -1.6132 H       1  LIG1        0.0266
     51 H           0.1716   -0.7389    0.1762 H       1  LIG1        0.0265
     52 H          -0.5142   -0.3892   -1.4060 H       1  LIG1        0.0265
     53 H          -1.6772    1.6143   -0.5015 H       1  LIG1        0.0265
     54 H          -0.9861    1.3308    1.0922 H       1  LIG1        0.0265
     55 H          -3.3111    0.5744    0.9717 H       1  LIG1        0.0265
     56 H          -2.2260   -0.7460    1.3688 H       1  LIG1        0.0265
     57 H          -2.3016   -1.5178   -1.0345 H       1  LIG1        0.0265
     58 H          -3.3797   -0.1722   -1.4163 H       1  LIG1        0.0265
     59 H          -5.0429   -1.0610    0.2001 H       1  LIG1        0.0265
     60 H          -3.9666   -2.4033    0.6046 H       1  LIG1        0.0265
     61 H          -4.0362   -3.1875   -1.7692 H       1  LIG1        0.0265
     62 H          -5.1082   -1.8597   -2.1902 H       1  LIG1        0.0265
     63 H          -5.7375   -4.1591   -0.2597 H       1  LIG1        0.0265
     64 H          -6.3275   -3.9917   -1.9082 H       1  LIG1        0.0265
     65 H          -7.5325   -1.8787   -1.2603 H       1  LIG1        0.0265
     66 H          -6.9574   -2.0802    0.3992 H       1  LIG1        0.0265
     67 H          -8.1998   -4.2406    0.5828 H       1  LIG1        0.0269
     68 H          -8.7869   -4.0319   -1.0645 H       1  LIG1        0.0269
     69 H         -10.5210   -3.3730    0.5285 H       1  LIG1        0.0341
     70 H         -10.0373   -1.9997   -0.4447 H       1  LIG1        0.0341
     71 H          -9.4874   -3.5631    2.9242 H       1  LIG1        0.0306
     72 H         -10.8826   -2.4549    3.0964 H       1  LIG1        0.0306
     73 H          -9.2816   -1.9969    3.7284 H       1  LIG1        0.0306
     74 H           3.8298    2.6693    1.9228 H       1  LIG1        0.0284
     75 H           2.4507    3.7594    1.7925 H       1  LIG1        0.0284
     76 H           4.6245    4.9761    1.7940 H       1  LIG1        0.0291
     77 H           3.6555    5.2790    0.3458 H       1  LIG1        0.0291
@<TRIPOS>BOND
     1     1     2    1
     2     2     3    1
     3     2     4    1
     4     4     5    1
     5     4     6    1
     6     4     7    1
     7     7     8   am
     8     8     9    1
     9     9    10    1
    10    10    11    1
    11    10    12    1
    12    10    13    1
    13     8    14    2
    14     7    15    1
    15    17    18    1
    16    18    19    1
    17    19    20    1
    18    20    21    1
    19    21    22    1
    20    22    23    1
    21    23    24    1
    22    24    25    1
    23    25    26    1
    24    26    27    1
    25    27    28    1
    26    28    29    1
    27    29    30    1
    28    29    31    2
    29    15    32    1
    30    32    33    1
    31     2    33    1
    32    15    17    1
    33    15    16    1
    34     1    34    1
    35     6    35    1
    36     6    36    1
    37     6    37    1
    38    11    38    1
    39    11    39    1
    40    11    40    1
    41    12    41    1
    42    12    42    1
    43    12    43    1
    44    13    44    1
    45    13    45    1
    46    13    46    1
    47    17    47    1
    48    17    48    1
    49    18    49    1
    50    18    50    1
    51    19    51    1
    52    19    52    1
    53    20    53    1
    54    20    54    1
    55    21    55    1
    56    21    56    1
    57    22    57    1
    58    22    58    1
    59    23    59    1
    60    23    60    1
    61    24    61    1
    62    24    62    1
    63    25    63    1
    64    25    64    1
    65    26    65    1
    66    26    66    1
    67    27    67    1
    68    27    68    1
    69    28    69    1
    70    28    70    1
    71    30    71    1
    72    30    72    1
    73    30    73    1
    74    32    74    1
    75    32    75    1
    76    33    76    1
    77    33    77    1
