@<TRIPOS>MOLECULE
NuBBE_587
 44 48 0 0 0
SMALL
GASTEIGER

@<TRIPOS>ATOM
      1 O           1.0887    0.2715   -1.9075 O.3     1  LIG1       -0.3789
      2 C           0.6995   -0.1625   -0.5913 C.3     1  LIG1        0.1233
      3 C           1.3833   -1.5507   -0.3713 C.3     1  LIG1        0.0031
      4 H           0.8814   -2.3041   -0.9939 H       1  LIG1        0.0339
      5 C           2.8497   -1.5664   -0.8678 C.3     1  LIG1       -0.0585
      6 C           1.3365   -2.0347    1.0911 C.3     1  LIG1        0.0251
      7 H           2.0556   -2.8601    1.1876 H       1  LIG1        0.0382
      8 C          -0.0190   -2.5838    1.5311 C.3     1  LIG1       -0.0550
      9 C           1.7839   -0.9682    2.0725 C.2     1  LIG1        0.1668
     10 O           2.1411   -1.2641    3.2112 O.2     1  LIG1       -0.2917
     11 C           1.2257    0.8501    0.4115 C.ar    1  LIG1        0.0445
     12 C           1.7340    0.4624    1.6658 C.ar    1  LIG1        0.0276
     13 C           2.1987    1.4259    2.5936 C.ar    1  LIG1       -0.0472
     14 C           2.1575    2.7885    2.2961 C.ar    1  LIG1       -0.0155
     15 C           1.6444    3.1544    1.0745 C.ar    1  LIG1        0.1666
     16 C           1.1931    2.2215    0.1665 C.ar    1  LIG1        0.1731
     17 O           0.7065    2.8156   -0.9636 O.3     1  LIG1       -0.4522
     18 C           0.9230    4.2115   -0.6664 C.3     1  LIG1        0.2332
     19 O           1.5096    4.4313    0.6295 O.3     1  LIG1       -0.4526
     20 C          -0.8362   -0.2710   -0.6470 C.ar    1  LIG1       -0.0076
     21 C          -1.6910    0.3320    0.3129 C.ar    1  LIG1       -0.0518
     22 C          -3.0852    0.2186    0.2297 C.ar    1  LIG1       -0.0158
     23 C          -3.6119   -0.4962   -0.8205 C.ar    1  LIG1        0.1662
     24 O          -4.9335   -0.7062   -1.0585 O.3     1  LIG1       -0.4526
     25 C          -4.8686   -1.4950   -2.2650 C.3     1  LIG1        0.2332
     26 O          -3.5210   -1.7375   -2.7196 O.3     1  LIG1       -0.4526
     27 C          -2.8082   -1.0832   -1.7644 C.ar    1  LIG1        0.1666
     28 C          -1.4333   -0.9884   -1.7081 C.ar    1  LIG1       -0.0099
     29 H           0.6819    1.1488   -2.0397 H       1  LIG1        0.2111
     30 H           3.4680   -0.8224   -0.3563 H       1  LIG1        0.0234
     31 H           2.9068   -1.3742   -1.9441 H       1  LIG1        0.0234
     32 H           3.3031   -2.5498   -0.7006 H       1  LIG1        0.0234
     33 H          -0.7355   -1.7927    1.7623 H       1  LIG1        0.0237
     34 H           0.0955   -3.1693    2.4511 H       1  LIG1        0.0237
     35 H          -0.4489   -3.2448    0.7724 H       1  LIG1        0.0237
     36 H           2.5914    1.1080    3.5592 H       1  LIG1        0.0626
     37 H           2.5088    3.5308    3.0043 H       1  LIG1        0.0655
     38 H          -0.0409    4.7313   -0.7095 H       1  LIG1        0.1166
     39 H           1.5856    4.6337   -1.4305 H       1  LIG1        0.1166
     40 H          -1.2879    0.8958    1.1514 H       1  LIG1        0.0622
     41 H          -3.7308    0.6787    0.9697 H       1  LIG1        0.0655
     42 H          -5.4165   -0.9707   -3.0564 H       1  LIG1        0.1166
     43 H          -5.3553   -2.4595   -2.0800 H       1  LIG1        0.1166
     44 H          -0.8297   -1.4549   -2.4821 H       1  LIG1        0.0659
@<TRIPOS>BOND
     1     2     3    1
     2     3     6    1
     3     6     9    1
     4     9    10    2
     5     2    11    1
     6    11    12   ar
     7     9    12    1
     8    12    13   ar
     9    13    14   ar
    10    14    15   ar
    11    15    16   ar
    12    11    16   ar
    13    16    17    1
    14    17    18    1
    15    18    19    1
    16    15    19    1
    17    20    21   ar
    18    21    22   ar
    19    22    23   ar
    20    23    24    1
    21    24    25    1
    22    25    26    1
    23    26    27    1
    24    23    27   ar
    25    27    28   ar
    26    20    28   ar
    27     2    20    1
    28     2     1    1
    29     6     8    1
    30     6     7    1
    31     3     5    1
    32     3     4    1
    33     1    29    1
    34     5    30    1
    35     5    31    1
    36     5    32    1
    37     8    33    1
    38     8    34    1
    39     8    35    1
    40    13    36    1
    41    14    37    1
    42    18    38    1
    43    18    39    1
    44    21    40    1
    45    22    41    1
    46    25    42    1
    47    25    43    1
    48    28    44    1
