REMARK  Name = NuBBE_739
REMARK  2 active torsions:
REMARK  status: ('A' for Active; 'I' for Inactive)
REMARK    1  A    between atoms: C_2  and  C_3
REMARK    2  A    between atoms: C_4  and  C_5
REMARK                            x       y       z     vdW  Elec       q    Type
REMARK                         _______ _______ _______ _____ _____    ______ ____
ROOT
ATOM      1  C   LIG A   1      -0.109  -0.468  -0.374  0.00  0.00    -0.021 A 
ATOM      2  C   LIG A   1      -0.482   0.869  -0.583  0.00  0.00    +0.057 A 
ATOM      3  C   LIG A   1       0.088   1.840   0.216  0.00  0.00    +0.167 A 
ATOM      4  O   LIG A   1      -0.171   3.174   0.152  0.00  0.00    -0.453 OA
ATOM      5  C   LIG A   1       0.689   3.668   1.201  0.00  0.00    +0.466 C 
ATOM      6  O   LIG A   1       1.444   2.630   1.860  0.00  0.00    -0.453 OA
ATOM      7  C   LIG A   1       1.009   1.532   1.188  0.00  0.00    +0.166 A 
ATOM      8  C   LIG A   1       1.416   0.237   1.412  0.00  0.00    +0.050 A 
ATOM      9  C   LIG A   1       0.855  -0.769   0.617  0.00  0.00    +0.012 A 
ENDROOT
BRANCH   1  11
ATOM     10  C   LIG A   1      -0.922  -2.767  -0.826  0.00  0.00    +0.043 C 
ATOM     11  C   LIG A   1      -0.699  -1.509  -1.232  0.00  0.00    +0.011 C 
BRANCH  10  13
ATOM     12  O   LIG A   1      -1.746  -4.901  -1.387  0.00  0.00    -0.296 OA
ATOM     13  C   LIG A   1      -1.528  -3.751  -1.744  0.00  0.00    +0.251 C 
ENDBRANCH  10  13
ENDBRANCH   1  11
TORSDOF 2
