REMARK  Name = NuBBE_1733
REMARK  4 active torsions:
REMARK  status: ('A' for Active; 'I' for Inactive)
REMARK    1  A    between atoms: C_1  and  C_14
REMARK    2  A    between atoms: C_1  and  C_15
REMARK    3  A    between atoms: C_5  and  C_13
REMARK    4  A    between atoms: C_9  and  C_12
REMARK                            x       y       z     vdW  Elec       q    Type
REMARK                         _______ _______ _______ _____ _____    ______ ____
ROOT
ATOM      1  C   LIG A   1      -2.033  -0.627   1.515  0.00  0.00    -0.076 C 
ATOM      2  C   LIG A   1      -1.508   0.279   0.647  0.00  0.00    -0.067 C 
ATOM      3  C   LIG A   1      -1.631   0.157  -0.865  0.00  0.00    +0.035 C 
ATOM      4  C   LIG A   1      -0.705  -0.853  -1.591  0.00  0.00    +0.034 C 
ATOM      5  C   LIG A   1       0.696  -1.199  -1.086  0.00  0.00    -0.076 C 
ATOM      6  C   LIG A   1       1.837  -1.022  -1.794  0.00  0.00    -0.027 C 
ATOM      7  C   LIG A   1       2.675   0.256  -1.865  0.00  0.00    +0.031 C 
ATOM      8  C   LIG A   1       2.773   1.138  -0.595  0.00  0.00    +0.034 C 
ATOM      9  C   LIG A   1       1.470   1.797  -0.206  0.00  0.00    -0.076 C 
ATOM     10  C   LIG A   1       0.755   1.289   0.798  0.00  0.00    -0.024 C 
ATOM     11  C   LIG A   1      -0.708   1.515   1.070  0.00  0.00    +0.057 C 
ATOM     12  C   LIG A   1       1.022   2.943  -1.078  0.00  0.00    +0.038 C 
ATOM     13  C   LIG A   1       0.749  -2.151   0.081  0.00  0.00    +0.038 C 
ATOM     14  C   LIG A   1      -2.877  -1.816   1.104  0.00  0.00    +0.038 C 
ATOM     15  C   LIG A   1      -1.765  -0.629   3.002  0.00  0.00    +0.038 C 
ENDROOT
TORSDOF 0
