@<TRIPOS>MOLECULE
NuBBE_2234
 51 54 0 0 0
SMALL
GASTEIGER

@<TRIPOS>ATOM
      1 O           1.2290   -2.8573   -0.0956 O.2     1  LIG1       -0.2971
      2 C           0.3586   -2.2476    0.5015 C.2     1  LIG1        0.1380
      3 C           0.0418   -0.7769    0.1703 C.3     1  LIG1        0.0291
      4 H          -0.8407   -0.8710   -0.4670 H       1  LIG1        0.0388
      5 C          -0.5163   -0.0753    1.5103 C.3     1  LIG1       -0.0150
      6 C           0.4391   -0.2044    2.7292 C.3     1  LIG1       -0.0254
      7 C          -0.9841    1.3660    1.3164 C.3     1  LIG1       -0.0461
      8 C          -0.1140    2.1413    0.3821 C.3     1  LIG1       -0.0487
      9 C           0.3367    1.3770   -0.8548 C.3     1  LIG1       -0.0298
     10 H           1.0832    2.1286   -1.1531 H       1  LIG1        0.0311
     11 C          -0.6917    1.1116   -2.1273 C.3     1  LIG1       -0.0315
     12 C          -0.8346   -0.2630   -2.9551 C.3     1  LIG1       -0.0595
     13 C          -2.1572    1.4230   -1.8175 C.3     1  LIG1       -0.0595
     14 C           0.0860    1.9418   -3.1409 C.3     1  LIG1       -0.0476
     15 C           1.5270    1.2721   -3.1683 C.3     1  LIG1       -0.0520
     16 C           1.7619   -0.0275   -2.1487 C.3     1  LIG1       -0.0467
     17 C           1.1549    0.1140   -0.6333 C.3     1  LIG1       -0.0187
     18 C           2.4251    0.1989    0.2432 C.3     1  LIG1       -0.0586
     19 C          -0.6066   -2.9714    1.4599 C.3     1  LIG1        0.0127
     20 C          -1.1230   -2.0964    2.6013 C.3     1  LIG1       -0.0129
     21 H          -1.8299   -2.6304    3.2466 H       1  LIG1        0.0350
     22 C          -1.7535   -0.8474    2.0252 C.3     1  LIG1       -0.0395
     23 C           0.0264   -1.5042    3.3691 C.2     1  LIG1       -0.0726
     24 C           0.5868   -2.0154    4.4666 C.2     1  LIG1       -0.0992
     25 H           0.2978    0.6138    3.4558 H       1  LIG1        0.0316
     26 H           1.4938   -0.2649    2.4828 H       1  LIG1        0.0316
     27 H          -1.0219    1.8992    2.2746 H       1  LIG1        0.0271
     28 H          -2.0124    1.3834    0.9477 H       1  LIG1        0.0271
     29 H           0.7815    2.4524    0.9403 H       1  LIG1        0.0268
     30 H          -0.5960    3.0820    0.0917 H       1  LIG1        0.0268
     31 H          -0.1146   -0.3714   -3.7936 H       1  LIG1        0.0235
     32 H          -1.7871   -0.2939   -3.4996 H       1  LIG1        0.0235
     33 H          -0.7703   -1.1775   -2.3724 H       1  LIG1        0.0235
     34 H          -2.3203    2.1532   -1.0321 H       1  LIG1        0.0235
     35 H          -2.6542    0.4959   -1.4821 H       1  LIG1        0.0235
     36 H          -2.6936    1.7563   -2.7096 H       1  LIG1        0.0235
     37 H           0.1332    2.9962   -2.8321 H       1  LIG1        0.0271
     38 H          -0.3794    1.9519   -4.1382 H       1  LIG1        0.0271
     39 H           2.2566    2.0543   -2.9089 H       1  LIG1        0.0266
     40 H           1.7695    0.9836   -4.1969 H       1  LIG1        0.0266
     41 H           2.8584   -0.1061   -2.1220 H       1  LIG1        0.0271
     42 H           1.4694   -0.9699   -2.6159 H       1  LIG1        0.0271
     43 H           3.3066    0.5618   -0.2962 H       1  LIG1        0.0235
     44 H           2.7057   -0.8007    0.6070 H       1  LIG1        0.0235
     45 H           2.3209    0.8734    1.0876 H       1  LIG1        0.0235
     46 H          -1.4552   -3.3299    0.8650 H       1  LIG1        0.0347
     47 H          -0.0902   -3.8425    1.8794 H       1  LIG1        0.0347
     48 H          -2.2744   -0.2766    2.8092 H       1  LIG1        0.0277
     49 H          -2.4859   -1.0537    1.2366 H       1  LIG1        0.0277
     50 H           0.2392   -2.9450    4.9086 H       1  LIG1        0.0534
     51 H           1.4177   -1.5114    4.9533 H       1  LIG1        0.0534
@<TRIPOS>BOND
     1     2     3    1
     2     3     5    1
     3     5     6    1
     4     5     7    1
     5     7     8    1
     6     8     9    1
     7     9    11    1
     8    11    14    1
     9    14    15    1
    10    15    16    1
    11    16    17    1
    12     9    17    1
    13     3    17    1
    14     2    19    1
    15    19    20    1
    16    20    22    1
    17     5    22    1
    18    20    23    1
    19     6    23    1
    20     1     2    2
    21     3     4    1
    22     9    10    1
    23    11    12    1
    24    11    13    1
    25    17    18    1
    26    20    21    1
    27    23    24    2
    28     6    25    1
    29     6    26    1
    30     7    27    1
    31     7    28    1
    32     8    29    1
    33     8    30    1
    34    12    31    1
    35    12    32    1
    36    12    33    1
    37    13    34    1
    38    13    35    1
    39    13    36    1
    40    14    37    1
    41    14    38    1
    42    15    39    1
    43    15    40    1
    44    16    41    1
    45    16    42    1
    46    18    43    1
    47    18    44    1
    48    18    45    1
    49    19    46    1
    50    19    47    1
    51    22    48    1
    52    22    49    1
    53    24    50    1
    54    24    51    1
