REMARK  Name = NuBBE_206
REMARK  12 active torsions:
REMARK  status: ('A' for Active; 'I' for Inactive)
REMARK    1  A    between atoms: C_2  and  O_3
REMARK    2  A    between atoms: C_2  and  C_5
REMARK    3  A    between atoms: O_3  and  C_4
REMARK    4  A    between atoms: C_10  and  C_11
REMARK    5  A    between atoms: C_11  and  O_12
REMARK    6  A    between atoms: C_17  and  O_19
REMARK    7  A    between atoms: O_19  and  C_20
REMARK    8  A    between atoms: C_23  and  C_25
REMARK    9  A    between atoms: C_25  and  O_26
REMARK   10  A    between atoms: C_27  and  O_29
REMARK   11  A    between atoms: C_30  and  O_32
REMARK   12  A    between atoms: C_33  and  O_35
REMARK                            x       y       z     vdW  Elec       q    Type
REMARK                         _______ _______ _______ _____ _____    ______ ____
ROOT
ATOM      1  C   LIG A   1       1.825   0.044  -2.216  0.00  0.00    +0.075 C 
ATOM      2  C   LIG A   1       0.515  -0.409  -2.814  0.00  0.00    +0.046 C 
ATOM      3  C   LIG A   1      -0.238  -1.353  -1.846  0.00  0.00    +0.093 C 
ATOM      4  C   LIG A   1       0.247  -2.723  -2.301  0.00  0.00    -0.039 C 
ATOM      5  C   LIG A   1       0.748  -2.658  -3.546  0.00  0.00    -0.024 C 
ATOM      6  C   LIG A   1       0.712  -1.262  -4.084  0.00  0.00    +0.036 C 
ATOM      7  C   LIG A   1       2.179  -0.238  -0.956  0.00  0.00    +0.201 C 
ATOM      8  O   LIG A   1       1.390  -0.882  -0.039  0.00  0.00    -0.470 OA
ATOM      9  C   LIG A   1      -0.007  -0.924  -0.380  0.00  0.00    +0.317 C 
ENDROOT
BRANCH   1  11
ATOM     10  O   LIG A   1       3.977   0.929  -2.793  0.00  0.00    -0.245 OA
ATOM     11  C   LIG A   1       2.782   0.879  -2.990  0.00  0.00    +0.338 C 
BRANCH  11  12
ATOM     12  O   LIG A   1       2.062   1.631  -3.869  0.00  0.00    -0.465 OA
ATOM     13  C   LIG A   1       2.740   2.764  -4.410  0.00  0.00    +0.280 C 
ENDBRANCH  11  12
ENDBRANCH   1  11
BRANCH   4  14
ATOM     14  C   LIG A   1       0.047  -3.961  -1.498  0.00  0.00    +0.187 C 
BRANCH  14  15
ATOM     15  O   LIG A   1       0.684  -3.838  -0.239  0.00  0.00    -0.391 OA
ATOM     16  H   LIG A   1       1.618  -3.620  -0.410  0.00  0.00    +0.210 HD
ENDBRANCH  14  15
ENDBRANCH   4  14
BRANCH   9  17
ATOM     17  O   LIG A   1      -0.651   0.352  -0.157  0.00  0.00    -0.309 OA
BRANCH  17  18
ATOM     18  C   LIG A   1      -0.600   0.747   1.224  0.00  0.00    +0.286 C 
ATOM     19  O   LIG A   1      -1.286  -0.237   2.000  0.00  0.00    -0.340 OA
ATOM     20  C   LIG A   1      -1.241   0.027   3.399  0.00  0.00    +0.178 C 
ATOM     21  C   LIG A   1      -2.028   1.306   3.712  0.00  0.00    +0.177 C 
ATOM     22  C   LIG A   1      -1.430   2.465   2.910  0.00  0.00    +0.179 C 
ATOM     23  C   LIG A   1      -1.274   2.133   1.416  0.00  0.00    +0.201 C 
BRANCH  21  24
ATOM     24  O   LIG A   1      -1.980   1.661   5.100  0.00  0.00    -0.387 OA
ATOM     25  H   LIG A   1      -2.139   0.833   5.608  0.00  0.00    +0.210 HD
ENDBRANCH  21  24
BRANCH  22  26
ATOM     26  O   LIG A   1      -2.258   3.635   3.054  0.00  0.00    -0.386 OA
ATOM     27  H   LIG A   1      -2.452   3.691   4.013  0.00  0.00    +0.210 HD
ENDBRANCH  22  26
BRANCH  23  28
ATOM     28  O   LIG A   1      -0.510   3.191   0.809  0.00  0.00    -0.384 OA
ATOM     29  H   LIG A   1      -0.968   4.015   1.071  0.00  0.00    +0.210 HD
ENDBRANCH  23  28
BRANCH  20  30
ATOM     30  C   LIG A   1      -1.823  -1.196   4.112  0.00  0.00    +0.190 C 
BRANCH  30  31
ATOM     31  O   LIG A   1      -1.768  -1.032   5.526  0.00  0.00    -0.392 OA
ATOM     32  H   LIG A   1      -1.096  -1.659   5.855  0.00  0.00    +0.209 HD
ENDBRANCH  30  31
ENDBRANCH  20  30
ENDBRANCH  17  18
ENDBRANCH   9  17
TORSDOF 11
