REMARK  Name = NuBBE_1315
REMARK  7 active torsions:
REMARK  status: ('A' for Active; 'I' for Inactive)
REMARK    1  A    between atoms: C_2  and  C_3
REMARK    2  A    between atoms: C_2  and  C_13
REMARK    3  A    between atoms: C_4  and  C_5
REMARK    4  A    between atoms: C_4  and  O_11
REMARK    5  A    between atoms: O_11  and  C_12
REMARK    6  A    between atoms: C_14  and  O_22
REMARK    7  A    between atoms: O_22  and  C_23
REMARK                            x       y       z     vdW  Elec       q    Type
REMARK                         _______ _______ _______ _____ _____    ______ ____
ROOT
ATOM      1  O   LIG A   1      -2.792  -1.010  -0.237  0.00  0.00    -0.287 OA
ATOM      2  C   LIG A   1      -1.589  -0.741  -0.338  0.00  0.00    +0.193 C 
ENDROOT
BRANCH   2   3
ATOM      3  C   LIG A   1      -0.931  -0.951  -1.663  0.00  0.00    +0.064 A 
ATOM      4  C   LIG A   1       0.038  -0.064  -2.208  0.00  0.00    +0.142 A 
ATOM      5  C   LIG A   1       0.663  -0.420  -3.430  0.00  0.00    +0.062 A 
ATOM      6  C   LIG A   1       0.250  -1.587  -4.070  0.00  0.00    +0.138 A 
ATOM      7  C   LIG A   1      -0.738  -2.443  -3.594  0.00  0.00    +0.048 A 
ATOM      8  C   LIG A   1      -1.330  -2.095  -2.380  0.00  0.00    +0.019 A 
ATOM      9  O   LIG A   1       0.946  -1.778  -5.223  0.00  0.00    -0.463 OA
ATOM     10  C   LIG A   1       1.817  -0.748  -5.338  0.00  0.00    +0.196 A 
ATOM     11  C   LIG A   1       1.700   0.099  -4.262  0.00  0.00    +0.053 A 
BRANCH   4  12
ATOM     12  O   LIG A   1       0.339   1.063  -1.466  0.00  0.00    -0.494 OA
ATOM     13  C   LIG A   1       0.777   2.209  -2.180  0.00  0.00    +0.277 C 
ENDBRANCH   4  12
ENDBRANCH   2   3
BRANCH   2  14
ATOM     14  C   LIG A   1      -0.729  -0.279   0.804  0.00  0.00    +0.097 C 
ATOM     15  C   LIG A   1      -1.001  -0.060   2.113  0.00  0.00    +0.131 C 
BRANCH  15  16
ATOM     16  C   LIG A   1       0.051   0.565   2.984  0.00  0.00    +0.017 A 
ATOM     17  C   LIG A   1       0.121   0.225   4.348  0.00  0.00    +0.011 A 
ATOM     18  C   LIG A   1       1.061   0.815   5.202  0.00  0.00    +0.001 A 
ATOM     19  C   LIG A   1       1.954   1.761   4.710  0.00  0.00    +0.000 A 
ATOM     20  C   LIG A   1       1.902   2.121   3.367  0.00  0.00    +0.001 A 
ATOM     21  C   LIG A   1       0.956   1.536   2.515  0.00  0.00    +0.011 A 
ENDBRANCH  15  16
BRANCH  15  22
ATOM     22  O   LIG A   1      -2.142  -0.331   2.820  0.00  0.00    -0.494 OA
ATOM     23  C   LIG A   1      -2.978  -1.418   2.451  0.00  0.00    +0.277 C 
ENDBRANCH  15  22
ENDBRANCH   2  14
TORSDOF 5
