@<TRIPOS>MOLECULE
NuBBE_2370
 52 55 0 0 0
SMALL
GASTEIGER

@<TRIPOS>ATOM
      1 C          -4.2512    0.8016    1.8763 C.ar    1  LIG1       -0.0160
      2 C          -4.3646    1.1136    0.5244 C.ar    1  LIG1        0.1621
      3 C          -3.3312    1.7983   -0.1158 C.ar    1  LIG1        0.1623
      4 C          -2.2034    2.1957    0.5970 C.ar    1  LIG1       -0.0131
      5 C          -2.0404    1.8292    1.9397 C.ar    1  LIG1       -0.0429
      6 C          -3.0958    1.1591    2.5817 C.ar    1  LIG1       -0.0549
      7 C          -0.7690    2.1438    2.7001 C.3     1  LIG1       -0.0143
      8 C           0.5100    2.1816    1.8451 C.3     1  LIG1        0.0666
      9 H           0.4545    2.9623    1.0793 H       1  LIG1        0.0420
     10 C           1.6822    2.4903    2.7394 C.2     1  LIG1        0.3109
     11 O           1.9273    3.5770    3.2224 O.2     1  LIG1       -0.2505
     12 O           2.4290    1.3691    2.9549 O.3     1  LIG1       -0.4641
     13 C           1.7946    0.2533    2.3349 C.3     1  LIG1        0.0963
     14 C           0.9299    0.8424    1.2356 C.3     1  LIG1        0.0105
     15 H           0.0778    0.1875    1.0239 H       1  LIG1        0.0345
     16 C           1.7276    1.0695   -0.0715 C.3     1  LIG1       -0.0209
     17 C           2.3010   -0.2060   -0.6390 C.ar    1  LIG1       -0.0433
     18 C           1.4527   -1.2625   -0.9961 C.ar    1  LIG1       -0.0131
     19 C           1.9664   -2.4750   -1.4674 C.ar    1  LIG1        0.1617
     20 C           3.3531   -2.6049   -1.6577 C.ar    1  LIG1        0.1615
     21 C           4.2041   -1.5593   -1.2793 C.ar    1  LIG1       -0.0160
     22 C           3.6819   -0.3664   -0.7784 C.ar    1  LIG1       -0.0549
     23 O           3.8174   -3.7882   -2.1789 O.3     1  LIG1       -0.4915
     24 C           5.0114   -3.6771   -2.9505 C.3     1  LIG1        0.0790
     25 O           1.1674   -3.5364   -1.8164 O.3     1  LIG1       -0.4914
     26 C          -0.0534   -3.6606   -1.0894 C.3     1  LIG1        0.0790
     27 O          -3.3379    2.1003   -1.4536 O.3     1  LIG1       -0.4849
     28 C          -4.3083    1.3114   -2.1494 C.3     1  LIG1        0.1237
     29 C          -5.6322    1.3333   -1.4035 C.3     1  LIG1        0.1237
     30 O          -5.5036    0.7050   -0.1208 O.3     1  LIG1       -0.4849
     31 H          -5.0570    0.2731    2.3792 H       1  LIG1        0.0655
     32 H          -1.4451    2.7637    0.0678 H       1  LIG1        0.0658
     33 H          -3.0259    0.8983    3.6366 H       1  LIG1        0.0621
     34 H          -0.6443    1.4050    3.5037 H       1  LIG1        0.0321
     35 H          -0.9038    3.1133    3.1973 H       1  LIG1        0.0321
     36 H           1.1942   -0.2658    3.0896 H       1  LIG1        0.0700
     37 H           2.5570   -0.4453    1.9807 H       1  LIG1        0.0700
     38 H           2.5334    1.7964    0.0923 H       1  LIG1        0.0317
     39 H           1.0710    1.5141   -0.8316 H       1  LIG1        0.0317
     40 H           0.3824   -1.1106   -0.9110 H       1  LIG1        0.0658
     41 H           5.2829   -1.6556   -1.3511 H       1  LIG1        0.0655
     42 H           4.3661    0.4295   -0.4909 H       1  LIG1        0.0621
     43 H           5.1042   -4.5778   -3.5644 H       1  LIG1        0.0660
     44 H           5.8897   -3.6267   -2.2984 H       1  LIG1        0.0660
     45 H           4.9814   -2.8159   -3.6285 H       1  LIG1        0.0660
     46 H          -0.5616   -4.5657   -1.4347 H       1  LIG1        0.0660
     47 H          -0.7353   -2.8264   -1.2818 H       1  LIG1        0.0660
     48 H           0.1373   -3.7676   -0.0155 H       1  LIG1        0.0660
     49 H          -3.9198    0.2903   -2.2565 H       1  LIG1        0.0731
     50 H          -4.4242    1.7386   -3.1500 H       1  LIG1        0.0731
     51 H          -6.3933    0.7867   -1.9684 H       1  LIG1        0.0731
     52 H          -5.9865    2.3602   -1.2518 H       1  LIG1        0.0731
@<TRIPOS>BOND
     1     1     2   ar
     2     2     3   ar
     3     3     4   ar
     4     4     5   ar
     5     5     6   ar
     6     1     6   ar
     7     5     7    1
     8     7     8    1
     9     8     9    1
    10     8    10    1
    11    10    11    2
    12    10    12    1
    13    12    13    1
    14    13    14    1
    15    14    15    1
    16     8    14    1
    17    14    16    1
    18    16    17    1
    19    17    18   ar
    20    18    19   ar
    21    19    20   ar
    22    20    21   ar
    23    21    22   ar
    24    17    22   ar
    25    20    23    1
    26    23    24    1
    27    19    25    1
    28    25    26    1
    29     3    27    1
    30    27    28    1
    31    28    29    1
    32    29    30    1
    33     2    30    1
    34     1    31    1
    35     4    32    1
    36     6    33    1
    37     7    34    1
    38     7    35    1
    39    13    36    1
    40    13    37    1
    41    16    38    1
    42    16    39    1
    43    18    40    1
    44    21    41    1
    45    22    42    1
    46    24    43    1
    47    24    44    1
    48    24    45    1
    49    26    46    1
    50    26    47    1
    51    26    48    1
    52    28    49    1
    53    28    50    1
    54    29    51    1
    55    29    52    1
