REMARK  Name = NuBBE_1199
REMARK  15 active torsions:
REMARK  status: ('A' for Active; 'I' for Inactive)
REMARK    1  A    between atoms: C_1  and  C_2
REMARK    2  A    between atoms: C_2  and  C_12
REMARK    3  A    between atoms: C_4  and  C_6
REMARK    4  A    between atoms: C_6  and  C_7
REMARK    5  A    between atoms: C_6  and  O_8
REMARK    6  A    between atoms: C_6  and  C_9
REMARK    7  A    between atoms: C_16  and  C_17
REMARK    8  A    between atoms: C_18  and  C_23
REMARK    9  A    between atoms: C_26  and  C_34
REMARK   10  A    between atoms: C_27  and  C_28
REMARK   11  A    between atoms: C_27  and  C_29
REMARK   12  A    between atoms: C_29  and  C_30
REMARK   13  A    between atoms: C_30  and  C_31
REMARK   14  A    between atoms: C_31  and  O_32
REMARK   15  A    between atoms: C_34  and  C_35
REMARK                            x       y       z     vdW  Elec       q    Type
REMARK                         _______ _______ _______ _____ _____    ______ ____
ROOT
ATOM      1  C   LIG A   1      -1.922  -0.334   2.636  0.00  0.00    +0.024 C 
ATOM      2  C   LIG A   1      -1.460   0.931   3.399  0.00  0.00    +0.007 C 
ATOM      3  C   LIG A   1      -1.565   2.163   2.474  0.00  0.00    +0.008 C 
ATOM      4  C   LIG A   1      -1.891   1.682   1.036  0.00  0.00    -0.023 C 
ATOM      5  C   LIG A   1      -2.991   2.622   0.466  0.00  0.00    +0.012 C 
ATOM      6  C   LIG A   1      -0.632   1.619   0.002  0.00  0.00    -0.023 C 
ATOM      7  C   LIG A   1      -0.939   0.600  -1.159  0.00  0.00    +0.002 C 
ATOM      8  C   LIG A   1      -1.507  -0.729  -0.660  0.00  0.00    +0.005 C 
ATOM      9  C   LIG A   1      -2.775  -0.568   0.144  0.00  0.00    +0.005 C 
ATOM     10  C   LIG A   1      -2.556   0.295   1.358  0.00  0.00    +0.001 C 
ATOM     11  C   LIG A   1       0.674   1.390   0.784  0.00  0.00    +0.012 C 
ATOM     12  C   LIG A   1      -0.379   2.942  -0.792  0.00  0.00    +0.008 C 
ATOM     13  C   LIG A   1       0.910   2.882  -1.629  0.00  0.00    +0.009 C 
ATOM     14  C   LIG A   1       1.061   1.675  -2.590  0.00  0.00    +0.020 C 
ATOM     15  C   LIG A   1       0.171   0.382  -2.288  0.00  0.00    -0.022 C 
ATOM     16  C   LIG A   1       1.050  -0.866  -1.947  0.00  0.00    +0.012 C 
ENDROOT
BRANCH   1  18
ATOM     17  C   LIG A   1      -1.427  -2.833   1.974  0.00  0.00    +0.042 C 
ATOM     18  C   LIG A   1      -0.915  -1.559   2.683  0.00  0.00    +0.070 C 
ATOM     19  O   LIG A   1       0.368  -1.260   2.104  0.00  0.00    -0.367 OA
ATOM     20  C   LIG A   1       1.429  -1.589   3.036  0.00  0.00    +0.150 C 
ATOM     21  C   LIG A   1       0.808  -2.514   4.063  0.00  0.00    +0.037 C 
ATOM     22  C   LIG A   1      -0.603  -1.973   4.142  0.00  0.00    +0.037 C 
BRANCH  20  23
ATOM     23  C   LIG A   1       2.665  -2.130   2.274  0.00  0.00    +0.086 C 
ATOM     24  C   LIG A   1       2.341  -3.317   1.361  0.00  0.00    +0.043 C 
ATOM     25  C   LIG A   1       3.807  -2.478   3.225  0.00  0.00    +0.043 C 
BRANCH  23  26
ATOM     26  O   LIG A   1       3.152  -1.080   1.424  0.00  0.00    -0.387 OA
ATOM     27  H   LIG A   1       2.362  -0.751   0.958  0.00  0.00    +0.210 HD
ENDBRANCH  23  26
ENDBRANCH  20  23
ENDBRANCH   1  18
BRANCH  14  28
ATOM     28  C   LIG A   1       2.547   1.450  -2.957  0.00  0.00    -0.076 C 
ATOM     29  C   LIG A   1       2.928   1.559  -4.413  0.00  0.00    +0.038 C 
ATOM     30  C   LIG A   1       3.531   1.245  -2.061  0.00  0.00    +0.007 C 
ENDBRANCH  14  28
BRANCH  15  31
ATOM     31  C   LIG A   1      -0.569  -0.045  -3.636  0.00  0.00    +0.018 C 
BRANCH  31  32
ATOM     32  C   LIG A   1      -1.578   0.963  -4.205  0.00  0.00    +0.121 C 
BRANCH  32  33
ATOM     33  C   LIG A   1      -2.225   0.415  -5.448  0.00  0.00    +0.305 C 
ATOM     34  O   LIG A   1      -1.752   0.535  -6.607  0.00  0.00    -0.251 OA
BRANCH  33  35
ATOM     35  O   LIG A   1      -3.389  -0.215  -5.256  0.00  0.00    -0.481 OA
ATOM     36  H   LIG A   1      -3.702  -0.436  -6.143  0.00  0.00    +0.295 HD
ENDBRANCH  33  35
ENDBRANCH  32  33
ENDBRANCH  31  32
ENDBRANCH  15  31
TORSDOF 8
