@<TRIPOS>MOLECULE
NuBBE_158
 45 46 0 0 0
SMALL
GASTEIGER

@<TRIPOS>ATOM
      1 O          -2.8449   -0.0519   -3.8505 O.2     1  LIG1       -0.2450
      2 C          -1.9173   -0.6419   -3.3149 C.2     1  LIG1        0.3389
      3 O          -1.4275   -1.8577   -3.6513 O.3     1  LIG1       -0.4645
      4 C          -2.1140   -2.5555   -4.6919 C.3     1  LIG1        0.0820
      5 C          -1.1380   -0.0890   -2.1802 C.ar    1  LIG1        0.0597
      6 C          -0.4298   -0.9220   -1.3068 C.ar    1  LIG1       -0.0408
      7 C           0.3102   -0.3820   -0.2431 C.ar    1  LIG1       -0.0009
      8 C           1.1018   -1.3197    0.6448 C.3     1  LIG1       -0.0058
      9 C           0.2962   -1.8434    1.8030 C.2     1  LIG1       -0.0809
     10 C          -0.0038   -3.1237    2.1030 C.2     1  LIG1       -0.0793
     11 C           0.4239   -4.3297    1.3122 C.3     1  LIG1       -0.0440
     12 C          -0.8417   -3.4460    3.3131 C.3     1  LIG1       -0.0440
     13 C           0.2968    1.0096   -0.0386 C.ar    1  LIG1        0.1279
     14 O           1.0148    1.4763    1.0308 O.3     1  LIG1       -0.4857
     15 C           1.2271    2.8948    1.1264 C.3     1  LIG1        0.1054
     16 C           2.4570    3.2746    0.2875 C.3     1  LIG1       -0.0252
     17 C           1.5405    3.1695    2.6042 C.3     1  LIG1       -0.0252
     18 C          -0.0291    3.6810    0.7299 C.3     1  LIG1       -0.0093
     19 C          -0.4550    3.3369   -0.6877 C.3     1  LIG1       -0.0206
     20 C          -0.4363    1.8494   -0.8908 C.ar    1  LIG1       -0.0045
     21 C          -1.1352    1.2943   -1.9732 C.ar    1  LIG1       -0.0411
     22 H          -1.3660   -3.0282   -5.3346 H       1  LIG1        0.0661
     23 H          -2.7434   -1.9098   -5.3107 H       1  LIG1        0.0661
     24 H          -2.7236   -3.3387   -4.2335 H       1  LIG1        0.0661
     25 H          -0.4449   -2.0009   -1.4478 H       1  LIG1        0.0630
     26 H           1.9922   -0.8066    1.0272 H       1  LIG1        0.0357
     27 H           1.4952   -2.1294    0.0220 H       1  LIG1        0.0357
     28 H          -0.0762   -1.0585    2.4626 H       1  LIG1        0.0575
     29 H           1.2516   -4.1302    0.6285 H       1  LIG1        0.0274
     30 H          -0.4206   -4.7095    0.7280 H       1  LIG1        0.0274
     31 H           0.7590   -5.1281    1.9839 H       1  LIG1        0.0274
     32 H          -1.1734   -2.5460    3.8412 H       1  LIG1        0.0274
     33 H          -0.2685   -4.0542    4.0210 H       1  LIG1        0.0274
     34 H          -1.7345   -4.0055    3.0159 H       1  LIG1        0.0274
     35 H           3.3468    2.7421    0.6429 H       1  LIG1        0.0268
     36 H           2.6560    4.3501    0.3347 H       1  LIG1        0.0268
     37 H           2.3413    2.9910   -0.7637 H       1  LIG1        0.0268
     38 H           2.4299    2.6142    2.9247 H       1  LIG1        0.0268
     39 H           0.7199    2.8290    3.2464 H       1  LIG1        0.0268
     40 H           1.7110    4.2346    2.7916 H       1  LIG1        0.0268
     41 H           0.1297    4.7619    0.8225 H       1  LIG1        0.0307
     42 H          -0.8513    3.4160    1.4093 H       1  LIG1        0.0307
     43 H           0.2175    3.8064   -1.4153 H       1  LIG1        0.0316
     44 H          -1.4611    3.7345   -0.8657 H       1  LIG1        0.0316
     45 H          -1.6826    1.9416   -2.6571 H       1  LIG1        0.0629
@<TRIPOS>BOND
     1     1     2    2
     2     2     3    1
     3     3     4    1
     4     2     5    1
     5     5     6   ar
     6     6     7   ar
     7     7     8    1
     8     8     9    1
     9     9    10    2
    10    10    11    1
    11    10    12    1
    12     7    13   ar
    13    13    14    1
    14    14    15    1
    15    15    16    1
    16    15    17    1
    17    15    18    1
    18    18    19    1
    19    13    20   ar
    20    19    20    1
    21    20    21   ar
    22     5    21   ar
    23     4    22    1
    24     4    23    1
    25     4    24    1
    26     6    25    1
    27     8    26    1
    28     8    27    1
    29     9    28    1
    30    11    29    1
    31    11    30    1
    32    11    31    1
    33    12    32    1
    34    12    33    1
    35    12    34    1
    36    16    35    1
    37    16    36    1
    38    16    37    1
    39    17    38    1
    40    17    39    1
    41    17    40    1
    42    18    41    1
    43    18    42    1
    44    19    43    1
    45    19    44    1
    46    21    45    1
