REMARK  Name = NuBBE_2416
REMARK  5 active torsions:
REMARK  status: ('A' for Active; 'I' for Inactive)
REMARK    1  A    between atoms: C_3  and  C_13
REMARK    2  A    between atoms: C_10  and  O_12
REMARK    3  A    between atoms: C_15  and  O_16
REMARK    4  A    between atoms: C_17  and  O_20
REMARK    5  A    between atoms: O_20  and  C_21
REMARK                            x       y       z     vdW  Elec       q    Type
REMARK                         _______ _______ _______ _____ _____    ______ ____
ROOT
ATOM      1  O   LIG A   1      -1.369  -1.490  -0.068  0.00  0.00    -0.286 OA
ATOM      2  C   LIG A   1      -0.148  -1.437  -0.127  0.00  0.00    +0.200 A 
ATOM      3  C   LIG A   1       0.615  -0.150  -0.208  0.00  0.00    +0.064 A 
ATOM      4  C   LIG A   1       1.954  -0.259  -0.249  0.00  0.00    +0.208 A 
ATOM      5  O   LIG A   1       2.700  -1.412  -0.249  0.00  0.00    -0.462 OA
ATOM      6  C   LIG A   1       2.031  -2.605  -0.187  0.00  0.00    +0.142 A 
ATOM      7  C   LIG A   1       0.644  -2.683  -0.120  0.00  0.00    +0.065 A 
ATOM      8  C   LIG A   1       0.013  -3.932  -0.048  0.00  0.00    +0.019 A 
ATOM      9  C   LIG A   1       0.779  -5.100  -0.047  0.00  0.00    +0.046 A 
ATOM     10  C   LIG A   1       2.167  -5.006  -0.119  0.00  0.00    +0.120 A 
ATOM     11  C   LIG A   1       2.799  -3.769  -0.189  0.00  0.00    +0.092 A 
ENDROOT
BRANCH   3  12
ATOM     12  C   LIG A   1      -0.043   1.182  -0.219  0.00  0.00    -0.008 A 
ATOM     13  C   LIG A   1      -1.226   1.419   0.498  0.00  0.00    +0.058 A 
ATOM     14  C   LIG A   1      -1.853   2.675   0.480  0.00  0.00    +0.159 A 
ATOM     15  C   LIG A   1      -1.298   3.734  -0.240  0.00  0.00    +0.161 A 
ATOM     16  C   LIG A   1      -0.131   3.503  -0.970  0.00  0.00    +0.050 A 
ATOM     17  C   LIG A   1       0.489   2.248  -0.963  0.00  0.00    +0.012 A 
BRANCH  14  18
ATOM     18  O   LIG A   1      -3.027   2.824   1.166  0.00  0.00    -0.503 OA
ATOM     19  H   LIG A   1      -3.330   1.949   1.463  0.00  0.00    +0.292 HD
ENDBRANCH  14  18
BRANCH  15  20
ATOM     20  O   LIG A   1      -1.783   5.006  -0.373  0.00  0.00    -0.491 OA
ATOM     21  C   LIG A   1      -2.605   5.493   0.680  0.00  0.00    +0.277 C 
ENDBRANCH  15  20
ENDBRANCH   3  12
BRANCH  10  22
ATOM     22  O   LIG A   1       2.953  -6.119  -0.122  0.00  0.00    -0.507 OA
ATOM     23  H   LIG A   1       2.388  -6.908  -0.071  0.00  0.00    +0.292 HD
ENDBRANCH  10  22
TORSDOF 4
