@<TRIPOS>MOLECULE
NuBBE_435
 35 38 0 0 0
SMALL
GASTEIGER

@<TRIPOS>ATOM
      1 H          -2.8763   -0.4575    0.2654 H       1  LIG1        0.0401
      2 C          -1.8838   -0.1483   -0.0860 C.3     1  LIG1        0.0246
      3 C          -1.3056   -1.2279   -0.9658 C.2     1  LIG1       -0.0758
      4 C          -0.1429   -1.7073   -0.5121 C.2     1  LIG1       -0.0409
      5 C           0.2478   -1.0722    0.7769 C.3     1  LIG1        0.1716
      6 C           1.4770   -0.2001    0.8411 C.3     1  LIG1        0.1377
      7 H           1.7860    0.2113   -0.1264 H       1  LIG1        0.0694
      8 C           2.4749   -1.0908    1.4740 C.2     1  LIG1        0.0652
      9 C           3.8069   -0.9465    1.3802 C.2     1  LIG1       -0.0745
     10 C           4.8732   -1.8088    1.9729 C.3     1  LIG1       -0.0460
     11 O           1.1346    0.8638    1.7368 O.3     1  LIG1       -0.3286
     12 O           0.4034   -2.0740    1.7820 O.3     1  LIG1       -0.4470
     13 C           1.7151   -2.1694    2.1520 C.2     1  LIG1        0.3384
     14 O           2.1539   -3.0060    2.9146 O.2     1  LIG1       -0.2452
     15 C          -0.9151   -0.1361    1.1086 C.3     1  LIG1        0.0784
     16 H          -1.4312   -0.5014    2.0080 H       1  LIG1        0.0414
     17 C          -0.2335    1.1905    1.4391 C.3     1  LIG1        0.2093
     18 H          -0.6749    1.6315    2.3395 H       1  LIG1        0.1060
     19 O          -0.2181    2.2080    0.4440 O.2     1  LIG1       -0.4701
     20 C          -1.1802    2.1875   -0.5116 C.2     1  LIG1        0.0984
     21 C          -1.9793    1.1569   -0.8049 C.2     1  LIG1        0.0781
     22 C          -2.9935    1.2839   -1.8852 C.2     1  LIG1        0.3384
     23 O          -2.6630    2.2905   -2.7321 O.3     1  LIG1       -0.4646
     24 C          -3.5320    2.4699   -3.8507 C.3     1  LIG1        0.0820
     25 O          -3.9510    0.5348   -1.9984 O.2     1  LIG1       -0.2452
     26 H          -1.7964   -1.5780   -1.8670 H       1  LIG1        0.0576
     27 H           0.4270   -2.4907   -0.9942 H       1  LIG1        0.0609
     28 H           4.1855   -0.0925    0.8186 H       1  LIG1        0.0575
     29 H           4.4951   -2.5824    2.6419 H       1  LIG1        0.0272
     30 H           5.5663   -1.1859    2.5476 H       1  LIG1        0.0272
     31 H           5.4402   -2.2954    1.1732 H       1  LIG1        0.0272
     32 H          -1.1842    3.1346   -1.0403 H       1  LIG1        0.1029
     33 H          -3.3691    3.4801   -4.2373 H       1  LIG1        0.0661
     34 H          -4.5851    2.3757   -3.5704 H       1  LIG1        0.0661
     35 H          -3.2719    1.7523   -4.6339 H       1  LIG1        0.0661
@<TRIPOS>BOND
     1     2     3    1
     2     3     4    2
     3     4     5    1
     4     5     6    1
     5     6     8    1
     6     9    10    1
     7     6    11    1
     8     5    12    1
     9    12    13    1
    10     8    13    1
    11     2    15    1
    12     5    15    1
    13    15    17    1
    14    11    17    1
    15    17    19    1
    16    19    20    1
    17    20    21    2
    18     2    21    1
    19    22    23    1
    20    23    24    1
    21    22    25    2
    22     1     2    1
    23     6     7    1
    24     8     9    2
    25    13    14    2
    26    15    16    1
    27    17    18    1
    28    21    22    1
    29     3    26    1
    30     4    27    1
    31     9    28    1
    32    10    29    1
    33    10    30    1
    34    10    31    1
    35    20    32    1
    36    24    33    1
    37    24    34    1
    38    24    35    1
