REMARK  Name = NuBBE_1190
REMARK  11 active torsions:
REMARK  status: ('A' for Active; 'I' for Inactive)
REMARK    1  A    between atoms: C_1  and  O_2
REMARK    2  A    between atoms: C_1  and  C_15
REMARK    3  A    between atoms: O_2  and  C_3
REMARK    4  A    between atoms: C_3  and  C_5
REMARK    5  A    between atoms: C_6  and  C_7
REMARK    6  A    between atoms: C_9  and  O_10
REMARK    7  A    between atoms: C_11  and  O_14
REMARK    8  A    between atoms: C_17  and  O_19
REMARK    9  A    between atoms: C_20  and  O_22
REMARK   10  A    between atoms: C_23  and  O_29
REMARK   11  A    between atoms: C_25  and  O_28
REMARK                            x       y       z     vdW  Elec       q    Type
REMARK                         _______ _______ _______ _____ _____    ______ ____
ROOT
ATOM      1  C   LIG A   1      -2.658   0.923   1.291  0.00  0.00    +0.267 C 
ENDROOT
BRANCH   1   2
ATOM      2  C   LIG A   1      -3.119   0.464  -0.103  0.00  0.00    +0.190 C 
ATOM      3  C   LIG A   1      -2.817  -1.018  -0.384  0.00  0.00    +0.178 C 
ATOM      4  C   LIG A   1      -3.219  -1.384  -1.810  0.00  0.00    +0.179 C 
ATOM      5  C   LIG A   1      -2.552  -0.427  -2.790  0.00  0.00    +0.201 C 
ATOM      6  C   LIG A   1      -2.909   1.021  -2.409  0.00  0.00    +0.279 C 
ATOM      7  O   LIG A   1      -2.472   1.294  -1.081  0.00  0.00    -0.340 OA
BRANCH   3   8
ATOM      8  O   LIG A   1      -3.510  -1.886   0.515  0.00  0.00    -0.386 OA
ATOM      9  H   LIG A   1      -2.985  -1.899   1.348  0.00  0.00    +0.210 HD
ENDBRANCH   3   8
BRANCH   4  10
ATOM     10  O   LIG A   1      -2.795  -2.726  -2.104  0.00  0.00    -0.386 OA
ATOM     11  H   LIG A   1      -3.064  -3.254  -1.323  0.00  0.00    +0.210 HD
ENDBRANCH   4  10
BRANCH   6  12
ATOM     12  O   LIG A   1      -2.264   1.924  -3.300  0.00  0.00    -0.365 OA
ATOM     13  H   LIG A   1      -2.085   1.412  -4.110  0.00  0.00    +0.213 HD
ENDBRANCH   6  12
BRANCH   5  14
ATOM     14  O   LIG A   1      -2.963  -0.724  -4.130  0.00  0.00    -0.384 OA
ATOM     15  H   LIG A   1      -2.890  -1.699  -4.200  0.00  0.00    +0.210 HD
ENDBRANCH   5  14
ENDBRANCH   1   2
BRANCH   1  16
ATOM     16  O   LIG A   1      -1.234   0.782   1.448  0.00  0.00    -0.459 OA
BRANCH  16  17
ATOM     17  C   LIG A   1      -0.787  -0.410   1.893  0.00  0.00    +0.332 C 
ATOM     18  O   LIG A   1      -1.490  -1.365   2.217  0.00  0.00    -0.246 OA
BRANCH  17  19
ATOM     19  C   LIG A   1       0.679  -0.478   1.900  0.00  0.00    +0.092 C 
ATOM     20  C   LIG A   1       1.468   0.454   1.341  0.00  0.00    +0.015 C 
BRANCH  20  21
ATOM     21  C   LIG A   1       2.933   0.422   1.433  0.00  0.00    -0.021 A 
ATOM     22  C   LIG A   1       3.700   0.984   0.402  0.00  0.00    +0.057 A 
ATOM     23  C   LIG A   1       5.087   1.002   0.514  0.00  0.00    +0.159 A 
ATOM     24  C   LIG A   1       5.712   0.480   1.643  0.00  0.00    +0.158 A 
ATOM     25  C   LIG A   1       4.970  -0.062   2.678  0.00  0.00    +0.050 A 
ATOM     26  C   LIG A   1       3.580  -0.085   2.575  0.00  0.00    +0.012 A 
BRANCH  23  27
ATOM     27  O   LIG A   1       5.885   1.529  -0.464  0.00  0.00    -0.503 OA
ATOM     28  H   LIG A   1       5.314   1.851  -1.184  0.00  0.00    +0.292 HD
ENDBRANCH  23  27
BRANCH  24  29
ATOM     29  O   LIG A   1       7.072   0.503   1.745  0.00  0.00    -0.503 OA
ATOM     30  H   LIG A   1       7.372   0.922   0.914  0.00  0.00    +0.292 HD
ENDBRANCH  24  29
ENDBRANCH  20  21
ENDBRANCH  17  19
ENDBRANCH  16  17
ENDBRANCH   1  16
TORSDOF 11
