@<TRIPOS>MOLECULE
NuBBE_1159
 31 33 0 0 0
SMALL
GASTEIGER

@<TRIPOS>ATOM
      1 O          -3.6555    0.4392    0.6575 O.2     1  LIG1       -0.2871
      2 C          -2.4520    0.5131    0.4331 C.ar    1  LIG1        0.1900
      3 C          -1.6413   -0.7105    0.3315 C.ar    1  LIG1        0.0098
      4 C          -0.3261   -0.6011    0.0938 C.ar    1  LIG1        0.0529
      5 C           0.4078   -1.8775   -0.0000 C.ar    1  LIG1       -0.0014
      6 C           0.9395   -2.4748    1.1509 C.ar    1  LIG1       -0.0526
      7 C           1.6245   -3.6877    1.0604 C.ar    1  LIG1       -0.0611
      8 C           1.7788   -4.3114   -0.1776 C.ar    1  LIG1       -0.0617
      9 C           1.2484   -3.7257   -1.3268 C.ar    1  LIG1       -0.0611
     10 C           0.5629   -2.5128   -1.2396 C.ar    1  LIG1       -0.0526
     11 N           0.3522    0.6101   -0.0681 N.ar    1  LIG1       -0.3427
     12 C           1.7951    0.7109   -0.3129 C.3     1  LIG1        0.0124
     13 C          -0.3749    1.8304    0.0040 C.ar    1  LIG1        0.0529
     14 C          -1.7635    1.8095    0.2522 C.ar    1  LIG1        0.0452
     15 C          -2.5212    2.9882    0.3327 C.ar    1  LIG1       -0.0490
     16 C          -1.9043    4.2226    0.1643 C.ar    1  LIG1       -0.0610
     17 C          -0.5372    4.2759   -0.0834 C.ar    1  LIG1       -0.0598
     18 C           0.2161    3.0965   -0.1625 C.ar    1  LIG1       -0.0375
     19 H          -2.1607   -1.6522    0.4552 H       1  LIG1        0.0677
     20 H           0.8223   -1.9954    2.1201 H       1  LIG1        0.0624
     21 H           2.0352   -4.1473    1.9558 H       1  LIG1        0.0618
     22 H           2.3103   -5.2574   -0.2463 H       1  LIG1        0.0618
     23 H           1.3659   -4.2147   -2.2904 H       1  LIG1        0.0618
     24 H           0.1504   -2.0631   -2.1400 H       1  LIG1        0.0624
     25 H           2.3035   -0.2572   -0.3312 H       1  LIG1        0.0456
     26 H           2.2829    1.2928    0.4779 H       1  LIG1        0.0456
     27 H           1.9903    1.1788   -1.2847 H       1  LIG1        0.0456
     28 H          -3.5909    2.9394    0.5257 H       1  LIG1        0.0625
     29 H          -2.4880    5.1375    0.2253 H       1  LIG1        0.0618
     30 H          -0.0488    5.2385   -0.2172 H       1  LIG1        0.0618
     31 H           1.2782    3.2054   -0.3597 H       1  LIG1        0.0638
@<TRIPOS>BOND
     1     1     2    2
     2     2     3   ar
     3     3     4   ar
     4     4     5    1
     5     5     6   ar
     6     6     7   ar
     7     7     8   ar
     8     8     9   ar
     9     9    10   ar
    10     5    10   ar
    11     4    11   ar
    12    11    12    1
    13    11    13   ar
    14    13    14   ar
    15     2    14   ar
    16    14    15   ar
    17    15    16   ar
    18    16    17   ar
    19    17    18   ar
    20    13    18   ar
    21     3    19    1
    22     6    20    1
    23     7    21    1
    24     8    22    1
    25     9    23    1
    26    10    24    1
    27    12    25    1
    28    12    26    1
    29    12    27    1
    30    15    28    1
    31    16    29    1
    32    17    30    1
    33    18    31    1
