@<TRIPOS>MOLECULE
NuBBE_1270
 43 45 0 0 0
SMALL
GASTEIGER

@<TRIPOS>ATOM
      1 O          -4.6381    2.6823    0.0351 O.2     1  LIG1       -0.2452
      2 C          -3.4194    2.6416    0.0764 C.ar    1  LIG1        0.3372
      3 C          -2.6293    3.8803    0.1515 C.ar    1  LIG1        0.0237
      4 C          -1.2966    3.8681    0.1587 C.ar    1  LIG1       -0.0408
      5 C          -0.5629    2.6077    0.0720 C.ar    1  LIG1        0.0601
      6 C           0.8321    2.5645    0.0356 C.ar    1  LIG1        0.1381
      7 O           1.5753    3.7209    0.0096 O.3     1  LIG1       -0.5053
      8 C           1.5100    1.3405    0.0103 C.ar    1  LIG1        0.0590
      9 C           2.9712    1.3030   -0.0043 C.2     1  LIG1       -0.0478
     10 C           3.5881    0.1221   -0.0695 C.2     1  LIG1       -0.0408
     11 C           2.8436   -1.1793   -0.1286 C.3     1  LIG1        0.1235
     12 C           3.1762   -1.9093   -1.4345 C.3     1  LIG1       -0.0215
     13 C           3.2261   -2.0560    1.0683 C.3     1  LIG1       -0.0215
     14 O           1.4166   -1.0631   -0.0867 O.3     1  LIG1       -0.4811
     15 C           0.7754    0.1377   -0.0169 C.ar    1  LIG1        0.1399
     16 C          -0.6450    0.1164    0.0082 C.ar    1  LIG1        0.0473
     17 C          -1.4872   -1.2041   -0.0016 C.3     1  LIG1        0.0148
     18 C          -2.3555   -1.2844    1.2626 C.2     1  LIG1       -0.0809
     19 C          -3.6848   -1.4528    1.3320 C.2     1  LIG1       -0.1018
     20 C          -2.3048   -1.2931   -1.3163 C.3     1  LIG1       -0.0521
     21 C          -0.6848   -2.5372    0.0303 C.3     1  LIG1       -0.0521
     22 C          -1.2742    1.3932    0.0518 C.ar    1  LIG1        0.1500
     23 O          -2.6972    1.4511    0.0607 O.2     1  LIG1       -0.4216
     24 H          -3.1937    4.8028    0.2140 H       1  LIG1        0.0689
     25 H          -0.7532    4.8028    0.2549 H       1  LIG1        0.0628
     26 H           1.1468    4.3351   -0.6095 H       1  LIG1        0.2922
     27 H           3.5311    2.2305    0.0442 H       1  LIG1        0.0624
     28 H           4.6738    0.0877   -0.0809 H       1  LIG1        0.0611
     29 H           4.2488   -2.1059   -1.5337 H       1  LIG1        0.0271
     30 H           2.8492   -1.3251   -2.3034 H       1  LIG1        0.0271
     31 H           2.6436   -2.8664   -1.4933 H       1  LIG1        0.0271
     32 H           4.3023   -2.2526    1.1083 H       1  LIG1        0.0271
     33 H           2.7008   -3.0181    1.0289 H       1  LIG1        0.0271
     34 H           2.9234   -1.5828    2.0104 H       1  LIG1        0.0271
     35 H          -1.8085   -1.2311    2.2046 H       1  LIG1        0.0575
     36 H          -4.3119   -1.5264    0.4498 H       1  LIG1        0.0532
     37 H          -4.1855   -1.5237    2.2927 H       1  LIG1        0.0532
     38 H          -3.0150   -0.4720   -1.4425 H       1  LIG1        0.0241
     39 H          -2.8852   -2.2252   -1.3568 H       1  LIG1        0.0241
     40 H          -1.6424   -1.2942   -2.1898 H       1  LIG1        0.0241
     41 H          -0.0649   -2.6277    0.9312 H       1  LIG1        0.0241
     42 H          -0.0471   -2.6460   -0.8559 H       1  LIG1        0.0241
     43 H          -1.3475   -3.4117    0.0220 H       1  LIG1        0.0241
@<TRIPOS>BOND
     1     1     2    2
     2     2     3   ar
     3     3     4   ar
     4     4     5   ar
     5     5     6   ar
     6     6     7    1
     7     6     8   ar
     8     8     9    1
     9     9    10    2
    10    10    11    1
    11    11    12    1
    12    11    13    1
    13    11    14    1
    14     8    15   ar
    15    14    15    1
    16    15    16   ar
    17    16    17    1
    18    17    18    1
    19    18    19    2
    20    17    20    1
    21    17    21    1
    22    16    22   ar
    23     5    22   ar
    24    22    23   ar
    25     2    23   ar
    26     3    24    1
    27     4    25    1
    28     7    26    1
    29     9    27    1
    30    10    28    1
    31    12    29    1
    32    12    30    1
    33    12    31    1
    34    13    32    1
    35    13    33    1
    36    13    34    1
    37    18    35    1
    38    19    36    1
    39    19    37    1
    40    20    38    1
    41    20    39    1
    42    20    40    1
    43    21    41    1
    44    21    42    1
    45    21    43    1
