REMARK  Name = NuBBE_1394
REMARK  4 active torsions:
REMARK  status: ('A' for Active; 'I' for Inactive)
REMARK    1  A    between atoms: C_1  and  C_2
REMARK    2  A    between atoms: C_7  and  C_8
REMARK    3  A    between atoms: C_7  and  C_9
REMARK    4  A    between atoms: C_13  and  C_17
REMARK                            x       y       z     vdW  Elec       q    Type
REMARK                         _______ _______ _______ _____ _____    ______ ____
ROOT
ATOM      1  C   LIG A   1      -1.388  -2.472   1.778  0.00  0.00    +0.044 C 
ATOM      2  C   LIG A   1      -0.769  -2.354   0.386  0.00  0.00    +0.093 C 
ATOM      3  C   LIG A   1       0.812  -2.666  -0.067  0.00  0.00    +0.151 C 
ATOM      4  O   LIG A   1      -0.130  -3.623   0.281  0.00  0.00    -0.365 OA
ATOM      5  C   LIG A   1       1.772  -1.710   0.615  0.00  0.00    +0.044 C 
ATOM      6  C   LIG A   1       1.346  -0.259   0.083  0.00  0.00    -0.014 C 
ATOM      7  C   LIG A   1       1.135  -0.513  -1.472  0.00  0.00    +0.015 C 
ATOM      8  C   LIG A   1       0.260   0.045   1.182  0.00  0.00    +0.015 C 
ATOM      9  C   LIG A   1       2.136   1.107   0.112  0.00  0.00    -0.025 C 
ATOM     10  C   LIG A   1       1.911   2.062  -0.892  0.00  0.00    -0.026 C 
ATOM     11  C   LIG A   1       0.743   3.089  -0.838  0.00  0.00    +0.057 C 
ATOM     12  C   LIG A   1      -0.575   2.453  -0.273  0.00  0.00    -0.073 C 
ATOM     13  C   LIG A   1      -1.072   1.378  -1.003  0.00  0.00    -0.027 C 
ATOM     14  C   LIG A   1      -1.903  -0.006  -1.011  0.00  0.00    +0.030 C 
ATOM     15  C   LIG A   1      -1.696  -1.705  -0.701  0.00  0.00    +0.041 C 
ATOM     16  C   LIG A   1      -0.742   3.012   1.140  0.00  0.00    +0.039 C 
ENDROOT
TORSDOF 0
