@<TRIPOS>MOLECULE
NuBBE_2406
 55 59 0 0 0
SMALL
GASTEIGER

@<TRIPOS>ATOM
      1 C          -5.0557    0.8504    0.4923 C.3     1  LIG1       -0.0650
      2 C          -3.8828    0.1506   -0.1793 C.3     1  LIG1       -0.0516
      3 C          -2.6116    1.0250   -0.2689 C.3     1  LIG1       -0.0240
      4 H          -2.3486    1.3301    0.7537 H       1  LIG1        0.0316
      5 C          -2.8323    2.2780   -1.1230 C.3     1  LIG1       -0.0447
      6 C          -1.5776    2.4081   -1.9870 C.3     1  LIG1       -0.0265
      7 H          -1.6061    3.3355   -2.5677 H       1  LIG1        0.0314
      8 C          -1.6141    1.1136   -2.9723 C.3     1  LIG1        0.0021
      9 N          -1.6425   -0.1721   -2.2050 N.3     1  LIG1       -0.2971
     10 C          -0.6836   -1.2750   -2.5269 C.3     1  LIG1        0.0033
     11 C           0.2632   -1.9991   -1.4038 C.3     1  LIG1       -0.0126
     12 C           0.8421   -1.2531   -0.1547 C.ar    1  LIG1       -0.0168
     13 C           0.7257    0.1132    0.1106 C.ar    1  LIG1        0.0388
     14 N           1.2783    0.4194    1.3075 N.ar    1  LIG1       -0.3567
     15 H           1.3420    1.3387    1.7244 H       1  LIG1        0.1656
     16 C           1.6960   -0.7488    1.9063 C.ar    1  LIG1        0.0504
     17 C           2.2474   -0.9389    3.1810 C.ar    1  LIG1        0.0040
     18 C           2.5488   -2.2457    3.5728 C.ar    1  LIG1        0.1221
     19 O           3.0412   -2.5900    4.8052 O.3     1  LIG1       -0.4950
     20 C           3.8066   -1.5848    5.4616 C.3     1  LIG1        0.0788
     21 C           2.3030   -3.3153    2.7119 C.ar    1  LIG1       -0.0193
     22 C           1.7707   -3.1115    1.4308 C.ar    1  LIG1       -0.0489
     23 C           1.4495   -1.8048    1.0170 C.ar    1  LIG1        0.0034
     24 C           0.0468    0.9803   -0.8652 C.3     1  LIG1        0.1235
     25 C           1.2378    0.9997   -1.9625 C.2     1  LIG1        0.3205
     26 O           1.2396    0.6324   -3.1413 O.2     1  LIG1       -0.2497
     27 O           2.3853    1.5606   -1.4006 O.3     1  LIG1       -0.4672
     28 C           3.5489    1.4164   -2.2254 C.3     1  LIG1        0.0817
     29 C          -0.3675    2.4249   -0.9504 C.3     1  LIG1       -0.0262
     30 C          -1.3894    0.2139   -0.8497 C.3     1  LIG1        0.0344
     31 H          -1.4286   -0.6746   -0.2046 H       1  LIG1        0.0480
     32 H          -5.9405    0.2050    0.4636 H       1  LIG1        0.0230
     33 H          -5.3126    1.7881   -0.0087 H       1  LIG1        0.0230
     34 H          -4.8304    1.0679    1.5410 H       1  LIG1        0.0230
     35 H          -4.1921   -0.1735   -1.1801 H       1  LIG1        0.0266
     36 H          -3.6582   -0.7604    0.3897 H       1  LIG1        0.0266
     37 H          -2.9738    3.1567   -0.4827 H       1  LIG1        0.0271
     38 H          -3.7217    2.1981   -1.7587 H       1  LIG1        0.0271
     39 H          -0.8232    1.1780   -3.7186 H       1  LIG1        0.0429
     40 H          -2.5490    1.1631   -3.5460 H       1  LIG1        0.0429
     41 H          -0.0884   -1.0497   -3.4142 H       1  LIG1        0.0430
     42 H          -1.3237   -2.0905   -2.8950 H       1  LIG1        0.0430
     43 H           1.1166   -2.4342   -1.9398 H       1  LIG1        0.0326
     44 H          -0.3230   -2.8381   -1.0043 H       1  LIG1        0.0326
     45 H           2.3845   -0.0900    3.8382 H       1  LIG1        0.0675
     46 H           4.2116   -2.0209    6.3801 H       1  LIG1        0.0660
     47 H           3.1891   -0.7286    5.7540 H       1  LIG1        0.0660
     48 H           4.6493   -1.2678    4.8366 H       1  LIG1        0.0660
     49 H           2.5259   -4.3277    3.0401 H       1  LIG1        0.0654
     50 H           1.5852   -3.9591    0.7783 H       1  LIG1        0.0625
     51 H           3.4107    1.9003   -3.1955 H       1  LIG1        0.0661
     52 H           3.7956    0.3600   -2.3470 H       1  LIG1        0.0661
     53 H           4.3830    1.9087   -1.7100 H       1  LIG1        0.0661
     54 H           0.4058    3.1021   -1.3337 H       1  LIG1        0.0283
     55 H          -0.6533    2.8356    0.0259 H       1  LIG1        0.0283
@<TRIPOS>BOND
     1     1     2    1
     2     3     5    1
     3     5     6    1
     4     6     8    1
     5     8     9    1
     6     9    10    1
     7    10    11    1
     8    11    12    1
     9    12    13   ar
    10    13    14   ar
    11    14    16   ar
    12    16    17   ar
    13    17    18   ar
    14    19    20    1
    15    18    21   ar
    16    21    22   ar
    17    22    23   ar
    18    12    23   ar
    19    16    23   ar
    20    13    24    1
    21    25    26    2
    22    25    27    1
    23    27    28    1
    24    24    29    1
    25     6    29    1
    26    24    30    1
    27     3    30    1
    28     9    30    1
    29     6     7    1
    30    14    15    1
    31    18    19    1
    32    24    25    1
    33    30    31    1
    34     3     4    1
    35     3     2    1
    36     1    32    1
    37     1    33    1
    38     1    34    1
    39     2    35    1
    40     2    36    1
    41     5    37    1
    42     5    38    1
    43     8    39    1
    44     8    40    1
    45    10    41    1
    46    10    42    1
    47    11    43    1
    48    11    44    1
    49    17    45    1
    50    20    46    1
    51    20    47    1
    52    20    48    1
    53    21    49    1
    54    22    50    1
    55    28    51    1
    56    28    52    1
    57    28    53    1
    58    29    54    1
    59    29    55    1
