REMARK  Name = NuBBE_944
REMARK  4 active torsions:
REMARK  status: ('A' for Active; 'I' for Inactive)
REMARK    1  A    between atoms: N_7  and  C_8
REMARK    2  A    between atoms: C_9  and  O_10
REMARK    3  A    between atoms: C_15  and  C_18
REMARK    4  A    between atoms: C_15  and  C_19
REMARK                            x       y       z     vdW  Elec       q    Type
REMARK                         _______ _______ _______ _____ _____    ______ ____
ROOT
ATOM      1  O   LIG A   1       1.147   1.471  -2.775  0.00  0.00    -0.267 OA
ATOM      2  C   LIG A   1       0.514   0.758  -1.952  0.00  0.00    +0.262 A 
ATOM      3  C   LIG A   1       1.034   0.632  -0.576  0.00  0.00    +0.082 A 
ATOM      4  C   LIG A   1       0.317  -0.049   0.352  0.00  0.00    +0.143 A 
ATOM      5  C   LIG A   1      -0.898  -0.773  -0.022  0.00  0.00    +0.045 A 
ATOM      6  C   LIG A   1      -1.354  -0.739  -1.354  0.00  0.00    +0.097 A 
ATOM      7  N   LIG A   1      -0.667   0.115  -2.287  0.00  0.00    -0.307 N 
ATOM      8  C   LIG A   1      -1.241   0.501  -3.561  0.00  0.00    +0.152 C 
ATOM      9  C   LIG A   1      -2.461  -1.547  -1.676  0.00  0.00    +0.141 A 
ATOM     10  C   LIG A   1      -3.165  -2.258  -0.700  0.00  0.00    +0.047 A 
ATOM     11  C   LIG A   1      -2.728  -2.250   0.616  0.00  0.00    +0.004 A 
ATOM     12  C   LIG A   1      -1.583  -1.534   0.948  0.00  0.00    +0.014 A 
ATOM     13  O   LIG A   1       0.704  -0.164   1.684  0.00  0.00    -0.481 OA
ATOM     14  C   LIG A   1       1.767   0.725   2.080  0.00  0.00    +0.123 C 
ATOM     15  C   LIG A   1       2.814   0.770   0.989  0.00  0.00    +0.020 C 
ATOM     16  C   LIG A   1       2.382   1.076  -0.237  0.00  0.00    +0.016 C 
ATOM     17  C   LIG A   1       1.194   2.151   2.308  0.00  0.00    +0.060 C 
ATOM     18  C   LIG A   1       2.339   0.234   3.408  0.00  0.00    +0.060 C 
ENDROOT
BRANCH   9  19
ATOM     19  O   LIG A   1      -2.871  -1.798  -2.958  0.00  0.00    -0.505 OA
ATOM     20  H   LIG A   1      -2.061  -1.873  -3.490  0.00  0.00    +0.292 HD
ENDBRANCH   9  19
TORSDOF 1
