REMARK  Name = NuBBE_201
REMARK  11 active torsions:
REMARK  status: ('A' for Active; 'I' for Inactive)
REMARK    1  A    between atoms: C_4  and  C_5
REMARK    2  A    between atoms: C_6  and  C_21
REMARK    3  A    between atoms: C_9  and  C_11
REMARK    4  A    between atoms: C_12  and  C_13
REMARK    5  A    between atoms: C_12  and  C_14
REMARK    6  A    between atoms: C_14  and  C_15
REMARK    7  A    between atoms: C_15  and  C_16
REMARK    8  A    between atoms: C_16  and  C_17
REMARK    9  A    between atoms: C_16  and  C_18
REMARK   10  A    between atoms: C_18  and  C_19
REMARK   11  A    between atoms: C_19  and  O_20
REMARK                            x       y       z     vdW  Elec       q    Type
REMARK                         _______ _______ _______ _____ _____    ______ ____
ROOT
ATOM      1  O   LIG A   1      -4.051   0.007   0.695  0.00  0.00    -0.293 OA
ATOM      2  C   LIG A   1      -2.897  -0.055   1.128  0.00  0.00    +0.156 C 
ATOM      3  C   LIG A   1      -2.574  -1.045   2.182  0.00  0.00    +0.045 C 
ATOM      4  C   LIG A   1      -1.375  -1.062   2.796  0.00  0.00    -0.063 C 
ATOM      5  C   LIG A   1      -1.121  -2.068   3.889  0.00  0.00    +0.040 C 
ATOM      6  C   LIG A   1      -0.261  -0.050   2.434  0.00  0.00    -0.007 C 
ATOM      7  C   LIG A   1       1.147  -0.635   2.670  0.00  0.00    +0.011 C 
ATOM      8  C   LIG A   1       2.255   0.276   2.160  0.00  0.00    +0.004 C 
ATOM      9  C   LIG A   1       2.163   0.464   0.643  0.00  0.00    -0.008 C 
ATOM     10  C   LIG A   1       3.382   1.277   0.179  0.00  0.00    +0.008 C 
ATOM     11  C   LIG A   1       0.774   1.028   0.167  0.00  0.00    -0.025 C 
ATOM     12  C   LIG A   1       0.694   2.559   0.402  0.00  0.00    +0.012 C 
ATOM     13  C   LIG A   1      -0.470   1.152   3.386  0.00  0.00    +0.016 C 
ATOM     14  C   LIG A   1      -0.415   0.276   0.902  0.00  0.00    +0.013 C 
ATOM     15  C   LIG A   1      -1.811   0.877   0.642  0.00  0.00    +0.084 C 
ENDROOT
BRANCH  11  16
ATOM     16  C   LIG A   1       0.645   0.841  -1.404  0.00  0.00    +0.007 C 
BRANCH  16  17
ATOM     17  C   LIG A   1       0.711  -0.603  -1.954  0.00  0.00    +0.004 C 
BRANCH  17  18
ATOM     18  C   LIG A   1       0.575  -0.702  -3.493  0.00  0.00    -0.012 C 
ATOM     19  C   LIG A   1       0.668  -2.170  -3.936  0.00  0.00    +0.007 C 
BRANCH  18  20
ATOM     20  C   LIG A   1      -0.704  -0.050  -4.045  0.00  0.00    +0.031 C 
BRANCH  20  21
ATOM     21  C   LIG A   1      -2.002  -0.636  -3.499  0.00  0.00    +0.156 C 
BRANCH  21  22
ATOM     22  O   LIG A   1      -3.097   0.060  -4.076  0.00  0.00    -0.395 OA
ATOM     23  H   LIG A   1      -3.901  -0.268  -3.636  0.00  0.00    +0.209 HD
ENDBRANCH  21  22
ENDBRANCH  20  21
ENDBRANCH  18  20
ENDBRANCH  17  18
ENDBRANCH  16  17
ENDBRANCH  11  16
TORSDOF 6
