REMARK  Name = NuBBE_1277
REMARK  5 active torsions:
REMARK  status: ('A' for Active; 'I' for Inactive)
REMARK    1  A    between atoms: C_10  and  O_11
REMARK    2  A    between atoms: C_12  and  C_13
REMARK    3  A    between atoms: C_13  and  O_14
REMARK    4  A    between atoms: C_13  and  C_15
REMARK    5  A    between atoms: C_13  and  C_16
REMARK                            x       y       z     vdW  Elec       q    Type
REMARK                         _______ _______ _______ _____ _____    ______ ____
ROOT
ATOM      1  O   LIG A   1      -5.868   2.664  -0.581  0.00  0.00    -0.245 OA
ATOM      2  C   LIG A   1      -4.676   2.478  -0.367  0.00  0.00    +0.337 A 
ATOM      3  C   LIG A   1      -3.840   3.550   0.203  0.00  0.00    +0.092 A 
ATOM      4  C   LIG A   1      -2.535   3.395   0.446  0.00  0.00    +0.018 A 
ATOM      5  O   LIG A   1      -4.048   1.272  -0.641  0.00  0.00    -0.422 OA
ATOM      6  C   LIG A   1      -2.671   1.088  -0.396  0.00  0.00    +0.142 A 
ATOM      7  C   LIG A   1      -1.894   2.126   0.142  0.00  0.00    +0.018 A 
ATOM      8  C   LIG A   1      -0.531   1.916   0.375  0.00  0.00    +0.021 A 
ATOM      9  C   LIG A   1       0.008   0.678   0.046  0.00  0.00    +0.027 A 
ATOM     10  C   LIG A   1       1.393   0.171   0.228  0.00  0.00    +0.191 C 
ATOM     11  C   LIG A   1       1.300  -1.127  -0.609  0.00  0.00    +0.237 C 
ATOM     12  O   LIG A   1      -0.107  -1.493  -0.735  0.00  0.00    -0.483 OA
ATOM     13  C   LIG A   1      -0.784  -0.331  -0.483  0.00  0.00    +0.130 A 
ATOM     14  C   LIG A   1      -2.132  -0.159  -0.709  0.00  0.00    +0.093 A 
ENDROOT
BRANCH  11  15
ATOM     15  C   LIG A   1       2.116  -2.324  -0.048  0.00  0.00    +0.100 C 
ATOM     16  C   LIG A   1       3.601  -1.977   0.089  0.00  0.00    +0.045 C 
ATOM     17  C   LIG A   1       1.570  -2.847   1.285  0.00  0.00    +0.045 C 
BRANCH  15  18
ATOM     18  O   LIG A   1       2.034  -3.433  -0.964  0.00  0.00    -0.385 OA
ATOM     19  H   LIG A   1       2.206  -3.106  -1.863  0.00  0.00    +0.210 HD
ENDBRANCH  15  18
ENDBRANCH  11  15
BRANCH  10  20
ATOM     20  O   LIG A   1       2.369   1.058  -0.298  0.00  0.00    -0.383 OA
ATOM     21  H   LIG A   1       1.938   1.621  -0.964  0.00  0.00    +0.210 HD
ENDBRANCH  10  20
TORSDOF 3
