REMARK  Name = NuBBE_657
REMARK  3 active torsions:
REMARK  status: ('A' for Active; 'I' for Inactive)
REMARK    1  A    between atoms: C_5  and  O_8
REMARK    2  A    between atoms: C_5  and  C_9
REMARK    3  A    between atoms: C_9  and  C_10
REMARK                            x       y       z     vdW  Elec       q    Type
REMARK                         _______ _______ _______ _____ _____    ______ ____
ROOT
ATOM      1  O   LIG A   1      -3.461  -0.106   0.645  0.00  0.00    -0.297 OA
ATOM      2  C   LIG A   1      -2.245  -0.135   0.463  0.00  0.00    +0.134 C 
ATOM      3  C   LIG A   1      -1.483  -1.442   0.453  0.00  0.00    +0.077 C 
ATOM      4  C   LIG A   1      -0.420  -1.450  -0.638  0.00  0.00    +0.042 C 
ATOM      5  C   LIG A   1       0.487  -0.204  -0.615  0.00  0.00    +0.067 C 
ATOM      6  C   LIG A   1      -0.394   1.053  -0.716  0.00  0.00    +0.042 C 
ATOM      7  C   LIG A   1      -1.431   1.139   0.394  0.00  0.00    +0.077 C 
ENDROOT
BRANCH   5   8
ATOM      8  O   LIG A   1       1.330  -0.256  -1.770  0.00  0.00    -0.389 OA
ATOM      9  H   LIG A   1       0.771  -0.260  -2.567  0.00  0.00    +0.210 HD
ENDBRANCH   5   8
BRANCH   5  10
ATOM     10  C   LIG A   1       1.413  -0.220   0.622  0.00  0.00    +0.031 C 
ATOM     11  C   LIG A   1       2.386   0.953   0.699  0.00  0.00    +0.007 C 
ENDBRANCH   5  10
TORSDOF 2
