REMARK  Name = NuBBE_2007
REMARK  13 active torsions:
REMARK  status: ('A' for Active; 'I' for Inactive)
REMARK    1  A    between atoms: C_3  and  O_5
REMARK    2  A    between atoms: O_5  and  C_6
REMARK    3  A    between atoms: C_6  and  C_7
REMARK    4  A    between atoms: C_9  and  C_12
REMARK    5  A    between atoms: C_15  and  O_18
REMARK    6  A    between atoms: O_18  and  C_19
REMARK    7  A    between atoms: C_19  and  C_20
REMARK    8  A    between atoms: C_25  and  O_26
REMARK    9  A    between atoms: O_26  and  C_27
REMARK   10  A    between atoms: C_27  and  C_28
REMARK   11  A    between atoms: C_30  and  C_31
REMARK   12  A    between atoms: C_32  and  O_33
REMARK   13  A    between atoms: O_33  and  C_34
REMARK                            x       y       z     vdW  Elec       q    Type
REMARK                         _______ _______ _______ _____ _____    ______ ____
ROOT
ATOM      1  O   LIG A   1      -2.009  -0.351  -2.658  0.00  0.00    -0.288 OA
ATOM      2  C   LIG A   1      -0.971  -0.537  -2.026  0.00  0.00    +0.214 C 
ATOM      3  C   LIG A   1      -0.303  -1.890  -1.981  0.00  0.00    +0.292 C 
ATOM      4  C   LIG A   1       0.851  -1.885  -0.971  0.00  0.00    +0.252 C 
ATOM      5  O   LIG A   1       1.748  -0.785  -1.207  0.00  0.00    -0.479 OA
ATOM      6  C   LIG A   1      -0.234   0.610  -1.464  0.00  0.00    +0.105 A 
ATOM      7  C   LIG A   1       1.140   0.437  -1.297  0.00  0.00    +0.139 A 
ATOM      8  C   LIG A   1       1.970   1.530  -1.095  0.00  0.00    +0.093 A 
ATOM      9  C   LIG A   1       1.407   2.789  -0.928  0.00  0.00    +0.141 A 
ATOM     10  C   LIG A   1       0.006   2.949  -0.860  0.00  0.00    +0.034 A 
ATOM     11  C   LIG A   1      -0.579   4.286  -0.482  0.00  0.00    +0.051 C 
ATOM     12  C   LIG A   1      -0.826   1.840  -1.140  0.00  0.00    +0.141 A 
ENDROOT
BRANCH   4  13
ATOM     13  C   LIG A   1       0.413  -2.075   0.493  0.00  0.00    -0.003 A 
ATOM     14  C   LIG A   1       0.296  -3.388   0.983  0.00  0.00    +0.011 A 
ATOM     15  C   LIG A   1      -0.201  -3.641   2.264  0.00  0.00    +0.046 A 
ATOM     16  C   LIG A   1      -0.597  -2.586   3.080  0.00  0.00    +0.132 A 
ATOM     17  C   LIG A   1      -0.468  -1.276   2.644  0.00  0.00    +0.046 A 
ATOM     18  C   LIG A   1       0.055  -1.028   1.365  0.00  0.00    +0.011 A 
BRANCH  16  19
ATOM     19  O   LIG A   1      -1.225  -2.963   4.285  0.00  0.00    -0.426 OA
BRANCH  19  20
ATOM     20  C   LIG A   1      -1.220  -2.195   5.448  0.00  0.00    +0.309 C 
ATOM     21  C   LIG A   1      -2.082  -2.891   6.463  0.00  0.00    +0.136 C 
ATOM     22  O   LIG A   1      -0.645  -1.132   5.627  0.00  0.00    -0.251 OA
ENDBRANCH  19  20
ENDBRANCH  16  19
ENDBRANCH   4  13
BRANCH  12  23
ATOM     23  O   LIG A   1      -2.180   2.049  -1.031  0.00  0.00    -0.494 OA
ATOM     24  C   LIG A   1      -2.930   1.007  -0.394  0.00  0.00    +0.277 C 
ENDBRANCH  12  23
BRANCH   3  25
ATOM     25  O   LIG A   1       0.222  -2.042  -3.321  0.00  0.00    -0.449 OA
BRANCH  25  26
ATOM     26  C   LIG A   1      -0.691  -2.416  -4.264  0.00  0.00    +0.305 C 
ATOM     27  C   LIG A   1      -0.260  -1.904  -5.612  0.00  0.00    +0.136 C 
ATOM     28  O   LIG A   1      -1.719  -3.019  -4.050  0.00  0.00    -0.251 OA
ENDBRANCH  25  26
ENDBRANCH   3  25
BRANCH   9  29
ATOM     29  O   LIG A   1       2.203   3.923  -0.630  0.00  0.00    -0.425 OA
BRANCH  29  30
ATOM     30  C   LIG A   1       3.594   3.975  -0.771  0.00  0.00    +0.309 C 
ATOM     31  C   LIG A   1       4.098   5.087   0.098  0.00  0.00    +0.136 C 
ATOM     32  O   LIG A   1       4.300   3.237  -1.436  0.00  0.00    -0.251 OA
ENDBRANCH  29  30
ENDBRANCH   9  29
TORSDOF 8
