REMARK  Name = NuBBE_1479
REMARK  15 active torsions:
REMARK  status: ('A' for Active; 'I' for Inactive)
REMARK    1  A    between atoms: C_2  and  C_27
REMARK    2  A    between atoms: N_3  and  C_5
REMARK    3  A    between atoms: C_5  and  C_6
REMARK    4  A    between atoms: C_6  and  C_7
REMARK    5  A    between atoms: C_10  and  O_11
REMARK    6  A    between atoms: O_11  and  C_12
REMARK    7  A    between atoms: C_12  and  C_13
REMARK    8  A    between atoms: C_14  and  C_15
REMARK    9  A    between atoms: C_14  and  C_16
REMARK   10  A    between atoms: C_16  and  C_17
REMARK   11  A    between atoms: C_16  and  C_20
REMARK   12  A    between atoms: C_17  and  C_18
REMARK   13  A    between atoms: C_20  and  C_21
REMARK   14  A    between atoms: C_22  and  C_23
REMARK   15  A    between atoms: C_22  and  C_24
REMARK                            x       y       z     vdW  Elec       q    Type
REMARK                         _______ _______ _______ _____ _____    ______ ____
ROOT
ATOM      1  C   LIG A   1       1.593  -1.890   3.319  0.00  0.00    -0.046 A 
ATOM      2  C   LIG A   1       0.425  -2.606   3.034  0.00  0.00    +0.007 A 
ATOM      3  C   LIG A   1      -0.306  -2.333   1.871  0.00  0.00    +0.046 A 
ATOM      4  C   LIG A   1       0.129  -1.346   0.983  0.00  0.00    +0.121 A 
ATOM      5  C   LIG A   1       1.307  -0.657   1.248  0.00  0.00    +0.046 A 
ATOM      6  C   LIG A   1       2.012  -0.905   2.417  0.00  0.00    +0.007 A 
ENDROOT
BRANCH   1   7
ATOM      7  C   LIG A   1       2.369  -2.140   4.593  0.00  0.00    +0.054 C 
BRANCH   7   8
ATOM      8  C   LIG A   1       3.794  -2.647   4.364  0.00  0.00    +0.109 C 
BRANCH   8  11
ATOM      9  O   LIG A   1       5.180  -0.373   5.386  0.00  0.00    -0.270 OA
ATOM     10  C   LIG A   1       5.336  -0.701   4.228  0.00  0.00    +0.244 C 
ATOM     11  N   LIG A   1       4.643  -1.742   3.628  0.00  0.00    -0.311 N 
ATOM     12  H   LIG A   1       4.650  -1.879   2.636  0.00  0.00    +0.149 HD
BRANCH  10  13
ATOM     13  C   LIG A   1       6.330  -0.009   3.341  0.00  0.00    +0.037 A 
ATOM     14  C   LIG A   1       7.206   0.934   3.913  0.00  0.00    +0.013 A 
ATOM     15  C   LIG A   1       8.157   1.575   3.109  0.00  0.00    +0.001 A 
ATOM     16  C   LIG A   1       8.242   1.279   1.749  0.00  0.00    +0.000 A 
ATOM     17  C   LIG A   1       7.391   0.336   1.187  0.00  0.00    +0.001 A 
ATOM     18  C   LIG A   1       6.447  -0.303   1.982  0.00  0.00    +0.013 A 
ENDBRANCH  10  13
ENDBRANCH   8  11
ENDBRANCH   7   8
ENDBRANCH   1   7
BRANCH   4  19
ATOM     19  O   LIG A   1      -0.647  -1.102  -0.118  0.00  0.00    -0.488 OA
BRANCH  19  20
ATOM     20  C   LIG A   1      -0.526   0.236  -0.630  0.00  0.00    +0.257 C 
BRANCH  20  21
ATOM     21  C   LIG A   1      -1.754   0.529  -1.434  0.00  0.00    +0.013 C 
ATOM     22  C   LIG A   1      -2.056   1.680  -2.072  0.00  0.00    -0.063 C 
ATOM     23  C   LIG A   1      -1.148   2.893  -2.050  0.00  0.00    +0.040 C 
BRANCH  22  24
ATOM     24  C   LIG A   1      -3.354   1.856  -2.874  0.00  0.00    +0.084 C 
BRANCH  24  25
ATOM     25  C   LIG A   1      -3.107   1.462  -4.333  0.00  0.00    +0.138 C 
ATOM     26  C   LIG A   1      -2.691   0.044  -4.643  0.00  0.00    +0.086 C 
ATOM     27  O   LIG A   1      -3.219   2.295  -5.237  0.00  0.00    -0.297 OA
ENDBRANCH  24  25
BRANCH  24  28
ATOM     28  C   LIG A   1      -4.600   1.119  -2.327  0.00  0.00    +0.042 C 
BRANCH  28  29
ATOM     29  C   LIG A   1      -5.865   1.338  -3.127  0.00  0.00    -0.027 C 
ATOM     30  C   LIG A   1      -6.874   0.458  -3.295  0.00  0.00    -0.080 C 
ATOM     31  C   LIG A   1      -6.898  -0.950  -2.763  0.00  0.00    +0.038 C 
ATOM     32  C   LIG A   1      -8.134   0.856  -4.023  0.00  0.00    +0.038 C 
ENDBRANCH  28  29
ENDBRANCH  24  28
ENDBRANCH  22  24
ENDBRANCH  20  21
ENDBRANCH  19  20
ENDBRANCH   4  19
TORSDOF 11
