@<TRIPOS>MOLECULE
NuBBE_2221
 54 55 0 0 0
SMALL
GASTEIGER

@<TRIPOS>ATOM
      1 C           1.8036    0.9604   -1.9432 C.2     1  LIG1        0.2032
      2 O           2.4448    1.3495   -2.9025 O.2     1  LIG1       -0.2881
      3 C           1.5107   -0.5740   -1.7048 C.3     1  LIG1        0.1595
      4 O           0.2418   -0.8234   -1.1069 O.3     1  LIG1       -0.4776
      5 C          -0.1397   -2.0650   -0.6613 C.ar    1  LIG1        0.1630
      6 C          -1.5092   -2.2712   -0.4032 C.ar    1  LIG1        0.1621
      7 O          -2.4537   -1.2695   -0.4292 O.3     1  LIG1       -0.4914
      8 C          -2.0850   -0.0543    0.2316 C.3     1  LIG1        0.0790
      9 C          -2.0067   -3.5706   -0.1390 C.ar    1  LIG1       -0.0092
     10 C          -1.1340   -4.6560    0.0305 C.ar    1  LIG1       -0.0216
     11 C           0.2339   -4.4135   -0.1494 C.ar    1  LIG1       -0.0509
     12 C           0.7263   -3.1382   -0.4705 C.ar    1  LIG1       -0.0157
     13 C          -1.6313   -5.9930    0.4380 C.2     1  LIG1       -0.0587
     14 C          -0.8868   -6.8610    1.1498 C.2     1  LIG1       -0.0865
     15 C          -1.3290   -8.1873    1.6786 C.3     1  LIG1       -0.0465
     16 C           1.5627   -1.3186   -3.0509 C.3     1  LIG1       -0.0204
     17 C           1.3670    2.0137   -0.9440 C.ar    1  LIG1        0.0283
     18 C           1.1683    1.7373    0.4043 C.ar    1  LIG1       -0.0055
     19 C           0.7644    2.7462    1.3033 C.ar    1  LIG1        0.1658
     20 O           0.5510    2.2552    2.5732 O.3     1  LIG1       -0.4913
     21 C           0.6199    3.1459    3.6828 C.3     1  LIG1        0.0790
     22 C           0.5497    4.0701    0.8507 C.ar    1  LIG1        0.2035
     23 C           0.7674    4.3712   -0.5138 C.ar    1  LIG1        0.1658
     24 C           1.2027    3.3458   -1.3832 C.ar    1  LIG1       -0.0055
     25 O           0.6020    5.6725   -0.9287 O.3     1  LIG1       -0.4913
     26 C           0.4226    5.9208   -2.3255 C.3     1  LIG1        0.0790
     27 O           0.2214    4.9785    1.8185 O.3     1  LIG1       -0.4885
     28 C          -0.6304    6.0792    1.5493 C.3     1  LIG1        0.0791
     29 H           2.3174   -0.9204   -1.0531 H       1  LIG1        0.0814
     30 H          -2.7036    0.7510   -0.1725 H       1  LIG1        0.0660
     31 H          -1.0623    0.2697    0.0793 H       1  LIG1        0.0660
     32 H          -2.2441   -0.1295    1.3109 H       1  LIG1        0.0660
     33 H          -3.0810   -3.7127   -0.0285 H       1  LIG1        0.0661
     34 H           0.9520   -5.2227   -0.0413 H       1  LIG1        0.0625
     35 H           1.8007   -3.0271   -0.5558 H       1  LIG1        0.0655
     36 H          -2.6633   -6.2375    0.1915 H       1  LIG1        0.0620
     37 H           0.1328   -6.6090    1.4285 H       1  LIG1        0.0569
     38 H          -2.3579   -8.4328    1.4052 H       1  LIG1        0.0272
     39 H          -1.2537   -8.1819    2.7719 H       1  LIG1        0.0272
     40 H          -0.6696   -8.9781    1.3051 H       1  LIG1        0.0272
     41 H           0.6476   -1.1504   -3.6339 H       1  LIG1        0.0270
     42 H           1.6231   -2.4012   -2.8943 H       1  LIG1        0.0270
     43 H           2.4231   -1.0368   -3.6618 H       1  LIG1        0.0270
     44 H           1.3289    0.7344    0.7931 H       1  LIG1        0.0662
     45 H          -0.2219    3.8436    3.7120 H       1  LIG1        0.0660
     46 H           1.5844    3.6630    3.7151 H       1  LIG1        0.0660
     47 H           0.5339    2.5473    4.5958 H       1  LIG1        0.0660
     48 H           1.4464    3.5777   -2.4174 H       1  LIG1        0.0662
     49 H           1.3523    5.7724   -2.8846 H       1  LIG1        0.0660
     50 H           0.1422    6.9738   -2.4443 H       1  LIG1        0.0660
     51 H          -0.3896    5.3184   -2.7484 H       1  LIG1        0.0660
     52 H          -0.0310    6.9936    1.5253 H       1  LIG1        0.0660
     53 H          -1.3208    6.1704    2.3978 H       1  LIG1        0.0660
     54 H          -1.2401    5.9741    0.6496 H       1  LIG1        0.0660
@<TRIPOS>BOND
     1     1     2    2
     2     1     3    1
     3     3     4    1
     4     4     5    1
     5     5     6   ar
     6     6     7    1
     7     7     8    1
     8     6     9   ar
     9     9    10   ar
    10    10    11   ar
    11    11    12   ar
    12     5    12   ar
    13    10    13    1
    14    13    14    2
    15    14    15    1
    16     3    16    1
    17     1    17    1
    18    17    18   ar
    19    18    19   ar
    20    19    20    1
    21    20    21    1
    22    19    22   ar
    23    22    23   ar
    24    23    24   ar
    25    17    24   ar
    26    23    25    1
    27    25    26    1
    28    22    27    1
    29    27    28    1
    30     3    29    1
    31     8    30    1
    32     8    31    1
    33     8    32    1
    34     9    33    1
    35    11    34    1
    36    12    35    1
    37    13    36    1
    38    14    37    1
    39    15    38    1
    40    15    39    1
    41    15    40    1
    42    16    41    1
    43    16    42    1
    44    16    43    1
    45    18    44    1
    46    21    45    1
    47    21    46    1
    48    21    47    1
    49    24    48    1
    50    26    49    1
    51    26    50    1
    52    26    51    1
    53    28    52    1
    54    28    53    1
    55    28    54    1
