REMARK  Name = NuBBE_2009
REMARK  6 active torsions:
REMARK  status: ('A' for Active; 'I' for Inactive)
REMARK    1  A    between atoms: C_1  and  O_2
REMARK    2  A    between atoms: O_2  and  C_3
REMARK    3  A    between atoms: C_6  and  C_8
REMARK    4  A    between atoms: C_9  and  C_12
REMARK    5  A    between atoms: C_23  and  C_24
REMARK    6  A    between atoms: C_24  and  C_25
REMARK                            x       y       z     vdW  Elec       q    Type
REMARK                         _______ _______ _______ _____ _____    ______ ____
ROOT
ATOM      1  C   LIG A   1      -1.957   1.177  -2.130  0.00  0.00    +0.166 A 
ATOM      2  C   LIG A   1      -1.155   0.395  -1.287  0.00  0.00    +0.204 A 
ATOM      3  O   LIG A   1      -1.137  -0.959  -1.462  0.00  0.00    -0.478 OA
ATOM      4  C   LIG A   1       0.044  -1.579  -0.936  0.00  0.00    +0.216 C 
ATOM      5  C   LIG A   1      -0.219  -3.076  -1.065  0.00  0.00    +0.056 C 
ATOM      6  C   LIG A   1       0.286  -1.114   0.513  0.00  0.00    +0.244 C 
ATOM      7  O   LIG A   1       0.434   0.321   0.571  0.00  0.00    -0.477 OA
ATOM      8  C   LIG A   1      -0.389   1.007  -0.287  0.00  0.00    +0.167 A 
ATOM      9  C   LIG A   1      -0.410   2.397  -0.136  0.00  0.00    +0.053 A 
ATOM     10  C   LIG A   1      -1.189   3.195  -0.986  0.00  0.00    -0.036 A 
ATOM     11  C   LIG A   1      -1.951   2.570  -1.982  0.00  0.00    +0.053 A 
ENDROOT
BRANCH   6  12
ATOM     12  C   LIG A   1       1.545  -1.704   1.140  0.00  0.00    -0.000 A 
ATOM     13  C   LIG A   1       2.822  -1.441   0.582  0.00  0.00    +0.011 A 
ATOM     14  C   LIG A   1       3.990  -1.962   1.153  0.00  0.00    +0.050 A 
ATOM     15  C   LIG A   1       3.862  -2.736   2.283  0.00  0.00    +0.166 A 
ATOM     16  C   LIG A   1       2.634  -2.999   2.840  0.00  0.00    +0.167 A 
ATOM     17  O   LIG A   1       2.730  -3.779   3.952  0.00  0.00    -0.453 OA
ATOM     18  C   LIG A   1       4.161  -3.952   4.043  0.00  0.00    +0.466 C 
ATOM     19  O   LIG A   1       4.884  -3.312   2.971  0.00  0.00    -0.453 OA
ATOM     20  C   LIG A   1       1.463  -2.502   2.297  0.00  0.00    +0.057 A 
ENDBRANCH   6  12
BRANCH   1  22
ATOM     21  C   LIG A   1      -3.284  -0.562  -3.076  0.00  0.00    +0.277 C 
ATOM     22  O   LIG A   1      -2.732   0.745  -3.176  0.00  0.00    -0.491 OA
ENDBRANCH   1  22
BRANCH  10  23
ATOM     23  C   LIG A   1      -1.234   4.697  -0.821  0.00  0.00    +0.061 C 
BRANCH  23  24
ATOM     24  C   LIG A   1      -2.348   5.148   0.084  0.00  0.00    -0.030 C 
ATOM     25  C   LIG A   1      -3.338   5.966  -0.282  0.00  0.00    +0.004 C 
ENDBRANCH  23  24
ENDBRANCH  10  23
TORSDOF 4
