@<TRIPOS>MOLECULE
NuBBE_1386
 14 13 0 0 0
SMALL
GASTEIGER

@<TRIPOS>ATOM
      1 C           1.3861    1.3724   -1.3932 C.3     1  LIG1        0.0332
      2 C           0.3352    0.3851   -0.9897 C.2     1  LIG1        0.3039
      3 O          -0.1499    0.6980    0.2432 O.3     1  LIG1       -0.4651
      4 C          -1.1728   -0.1750    0.7446 C.3     1  LIG1        0.0896
      5 C          -0.5498   -1.3888    1.4090 C.3     1  LIG1       -0.0306
      6 O          -0.0234   -0.5595   -1.6798 O.2     1  LIG1       -0.2512
      7 H           2.1963    1.3734   -0.6596 H       1  LIG1        0.0342
      8 H           0.9445    2.3679   -1.4821 H       1  LIG1        0.0342
      9 H           1.7990    1.0841   -2.3642 H       1  LIG1        0.0342
     10 H          -1.8687   -0.4647   -0.0512 H       1  LIG1        0.0694
     11 H          -1.7483    0.3935    1.4826 H       1  LIG1        0.0694
     12 H           0.0856   -1.9412    0.7096 H       1  LIG1        0.0262
     13 H          -1.3229   -2.0633    1.7873 H       1  LIG1        0.0262
     14 H           0.0892   -1.0819    2.2435 H       1  LIG1        0.0262
@<TRIPOS>BOND
     1     1     2    1
     2     2     3    1
     3     3     4    1
     4     4     5    1
     5     2     6    2
     6     1     7    1
     7     1     8    1
     8     1     9    1
     9     4    10    1
    10     4    11    1
    11     5    12    1
    12     5    13    1
    13     5    14    1
