@<TRIPOS>MOLECULE
NuBBE_188
 48 50 0 0 0
SMALL
GASTEIGER

@<TRIPOS>ATOM
      1 C          -2.7776    0.7411   -0.6810 C.3     1  LIG1       -0.0618
      2 C          -2.5238    0.6816    0.8298 C.3     1  LIG1       -0.0365
      3 H          -3.5237    0.7361    1.2843 H       1  LIG1        0.0304
      4 C          -1.8800   -0.6516    1.2758 C.3     1  LIG1       -0.0302
      5 H          -2.4382   -1.4759    0.8134 H       1  LIG1        0.0310
      6 C          -2.0536   -0.8434    2.7966 C.3     1  LIG1       -0.0613
      7 C          -0.3800   -0.7581    0.8876 C.3     1  LIG1        0.0125
      8 H           0.0457   -1.5850    1.4779 H       1  LIG1        0.0400
      9 C          -0.1354   -1.1538   -0.5796 C.ar    1  LIG1       -0.0360
     10 C           0.5691   -0.3322   -1.4754 C.ar    1  LIG1       -0.0543
     11 C           0.7945   -0.7201   -2.7947 C.ar    1  LIG1       -0.0162
     12 C           0.3084   -1.9403   -3.2574 C.ar    1  LIG1        0.1585
     13 O           0.5402   -2.2600   -4.5665 O.3     1  LIG1       -0.5033
     14 C          -0.3909   -2.7919   -2.3965 C.ar    1  LIG1        0.1615
     15 O          -0.9374   -4.0160   -2.6795 O.3     1  LIG1       -0.4914
     16 C          -0.8166   -4.5013   -4.0095 C.3     1  LIG1        0.0790
     17 C          -0.5936   -2.3924   -1.0621 C.ar    1  LIG1       -0.0125
     18 C           0.3834    0.4941    1.3007 C.ar    1  LIG1       -0.0328
     19 C           1.7735    0.3913    1.4783 C.ar    1  LIG1       -0.0125
     20 C           2.5608    1.5181    1.6964 C.ar    1  LIG1        0.1587
     21 O           3.9110    1.3403    1.7963 O.3     1  LIG1       -0.5033
     22 C           1.9687    2.7846    1.7732 C.ar    1  LIG1        0.1615
     23 O           2.5923    3.9873    1.9759 O.3     1  LIG1       -0.4914
     24 C           4.0069    3.9671    2.1387 C.3     1  LIG1        0.0790
     25 C           0.5744    2.8817    1.6355 C.ar    1  LIG1       -0.0128
     26 C          -0.2332    1.7519    1.3927 C.ar    1  LIG1       -0.0397
     27 C          -1.7321    1.9141    1.3135 C.3     1  LIG1       -0.0244
     28 H          -1.8775    0.9911   -1.2461 H       1  LIG1        0.0233
     29 H          -3.5204    1.5153   -0.9045 H       1  LIG1        0.0233
     30 H          -3.1775   -0.2075   -1.0550 H       1  LIG1        0.0233
     31 H          -1.5384   -0.0723    3.3778 H       1  LIG1        0.0233
     32 H          -1.6601   -1.8162    3.1108 H       1  LIG1        0.0233
     33 H          -3.1139   -0.8143    3.0700 H       1  LIG1        0.0233
     34 H           0.9549    0.6388   -1.1723 H       1  LIG1        0.0622
     35 H           1.3517   -0.0496   -3.4418 H       1  LIG1        0.0655
     36 H           0.9478   -1.4981   -5.0093 H       1  LIG1        0.2923
     37 H          -1.3391   -5.4611   -4.0629 H       1  LIG1        0.0660
     38 H           0.2311   -4.6884   -4.2667 H       1  LIG1        0.0660
     39 H          -1.3044   -3.8324   -4.7262 H       1  LIG1        0.0660
     40 H          -1.1268   -3.0695   -0.3973 H       1  LIG1        0.0658
     41 H           2.2377   -0.5941    1.3922 H       1  LIG1        0.0658
     42 H           4.1188    0.3950    1.6950 H       1  LIG1        0.2923
     43 H           4.3440    4.9941    2.3035 H       1  LIG1        0.0660
     44 H           4.5062    3.6085    1.2318 H       1  LIG1        0.0660
     45 H           4.2954    3.3894    3.0237 H       1  LIG1        0.0660
     46 H           0.1115    3.8639    1.7051 H       1  LIG1        0.0658
     47 H          -1.9754    2.7785    0.6817 H       1  LIG1        0.0316
     48 H          -2.0784    2.1613    2.3261 H       1  LIG1        0.0316
@<TRIPOS>BOND
     1     2     4    1
     2     4     7    1
     3     7     8    1
     4     7     9    1
     5     9    10   ar
     6    10    11   ar
     7    11    12   ar
     8    12    13    1
     9    12    14   ar
    10    14    15    1
    11    15    16    1
    12    14    17   ar
    13     9    17   ar
    14     7    18    1
    15    18    19   ar
    16    19    20   ar
    17    20    21    1
    18    20    22   ar
    19    22    23    1
    20    23    24    1
    21    22    25   ar
    22    25    26   ar
    23    18    26   ar
    24    26    27    1
    25     2    27    1
    26     2     3    1
    27     2     1    1
    28     4     6    1
    29     4     5    1
    30     1    28    1
    31     1    29    1
    32     1    30    1
    33     6    31    1
    34     6    32    1
    35     6    33    1
    36    10    34    1
    37    11    35    1
    38    13    36    1
    39    16    37    1
    40    16    38    1
    41    16    39    1
    42    17    40    1
    43    19    41    1
    44    21    42    1
    45    24    43    1
    46    24    44    1
    47    24    45    1
    48    25    46    1
    49    27    47    1
    50    27    48    1
