@<TRIPOS>MOLECULE
NuBBE_1341
 33 34 0 0 0
SMALL
GASTEIGER

@<TRIPOS>ATOM
      1 C          -3.7371    1.3444   -0.2882 C.3     1  LIG1       -0.0391
      2 C          -2.2337    1.2577   -0.2091 C.ar    1  LIG1       -0.0427
      3 C          -1.5068    2.4487   -0.2652 C.ar    1  LIG1       -0.0580
      4 C          -0.1205    2.4318   -0.1963 C.ar    1  LIG1       -0.0575
      5 C           0.5966    1.2264   -0.0694 C.ar    1  LIG1       -0.0371
      6 C           2.1189    1.3712   -0.0067 C.3     1  LIG1       -0.0209
      7 C           2.7169    0.9473    1.3375 C.3     1  LIG1       -0.0586
      8 C           2.8422    0.7456   -1.2024 C.3     1  LIG1       -0.0586
      9 C          -0.1264   -0.0063   -0.0107 C.ar    1  LIG1       -0.0140
     10 C          -1.5517    0.0198   -0.0806 C.ar    1  LIG1       -0.0147
     11 C          -2.2605   -1.2016   -0.0164 C.ar    1  LIG1       -0.0535
     12 C          -1.6162   -2.4312    0.1087 C.ar    1  LIG1       -0.0582
     13 C          -0.2318   -2.4811    0.1636 C.ar    1  LIG1       -0.0498
     14 C           0.4859   -3.7873    0.3290 C.3     1  LIG1       -0.0397
     15 C           0.4885   -1.2784    0.1162 C.ar    1  LIG1       -0.0508
     16 H          -4.0778    2.3808   -0.3891 H       1  LIG1        0.0278
     17 H          -4.1908    0.9411    0.6229 H       1  LIG1        0.0278
     18 H          -4.1054    0.7960   -1.1612 H       1  LIG1        0.0278
     19 H          -2.0162    3.4047   -0.3632 H       1  LIG1        0.0620
     20 H           0.4037    3.3848   -0.2436 H       1  LIG1        0.0621
     21 H           2.3456    2.4449   -0.0810 H       1  LIG1        0.0344
     22 H           2.6600   -0.1284    1.5159 H       1  LIG1        0.0235
     23 H           2.2033    1.4476    2.1661 H       1  LIG1        0.0235
     24 H           3.7755    1.2262    1.3863 H       1  LIG1        0.0235
     25 H           2.7989   -0.3453   -1.2115 H       1  LIG1        0.0235
     26 H           3.9017    1.0253   -1.1929 H       1  LIG1        0.0235
     27 H           2.4132    1.1019   -2.1457 H       1  LIG1        0.0235
     28 H          -3.3469   -1.2157   -0.0610 H       1  LIG1        0.0624
     29 H          -2.2083   -3.3413    0.1606 H       1  LIG1        0.0620
     30 H          -0.1375   -4.6259    0.0015 H       1  LIG1        0.0278
     31 H           0.7507   -3.9386    1.3800 H       1  LIG1        0.0278
     32 H           1.3986   -3.8054   -0.2758 H       1  LIG1        0.0278
     33 H           1.5675   -1.3597    0.1816 H       1  LIG1        0.0626
@<TRIPOS>BOND
     1     1     2    1
     2     2     3   ar
     3     3     4   ar
     4     4     5   ar
     5     5     6    1
     6     6     7    1
     7     6     8    1
     8     5     9   ar
     9     9    10   ar
    10     2    10   ar
    11    10    11   ar
    12    11    12   ar
    13    12    13   ar
    14    13    14    1
    15    13    15   ar
    16     9    15   ar
    17     1    16    1
    18     1    17    1
    19     1    18    1
    20     3    19    1
    21     4    20    1
    22     6    21    1
    23     7    22    1
    24     7    23    1
    25     7    24    1
    26     8    25    1
    27     8    26    1
    28     8    27    1
    29    11    28    1
    30    12    29    1
    31    14    30    1
    32    14    31    1
    33    14    32    1
    34    15    33    1
