@<TRIPOS>MOLECULE
NuBBE_2010
 69 75 0 0 0
SMALL
GASTEIGER

@<TRIPOS>ATOM
      1 O          -2.4637    0.3942    0.7320 O.3     1  LIG1       -0.3849
      2 C          -1.2367    0.6824    0.1006 C.3     1  LIG1        0.1076
      3 C          -1.3178    0.7040   -1.4227 C.3     1  LIG1        0.1186
      4 C          -1.4561   -0.8213   -1.9710 C.3     1  LIG1        0.0415
      5 C          -0.9802   -0.8427   -3.4414 C.3     1  LIG1       -0.0531
      6 C          -2.9749   -1.2148   -1.8639 C.3     1  LIG1        0.1390
      7 H          -3.2728   -1.2305   -0.8090 H       1  LIG1        0.0793
      8 O          -3.8333   -0.2660   -2.5114 O.3     1  LIG1       -0.4557
      9 C          -3.7812    1.0149   -2.1156 C.2     1  LIG1        0.3106
     10 O          -4.7876    1.7172   -2.0722 O.2     1  LIG1       -0.2507
     11 C          -2.4138    1.6005   -2.0054 C.3     1  LIG1        0.0774
     12 C          -3.3317   -2.5867   -2.3947 C.ar    1  LIG1        0.0310
     13 C          -3.3878   -3.8178   -1.6707 C.ar    1  LIG1       -0.0172
     14 C          -3.7712   -4.7872   -2.5655 C.ar    1  LIG1        0.0921
     15 O          -3.9928   -4.2408   -3.7860 O.2     1  LIG1       -0.4706
     16 C          -3.7435   -2.9122   -3.6745 C.ar    1  LIG1        0.0984
     17 C          -0.6100   -1.9503   -1.1789 C.3     1  LIG1       -0.0408
     18 C          -0.4528   -1.7488    0.3713 C.3     1  LIG1       -0.0462
     19 C          -0.0820   -0.2962    0.5531 C.3     1  LIG1       -0.0005
     20 H           0.3513   -0.3400   -0.4179 H       1  LIG1        0.0336
     21 C           1.1734    0.5018    1.0313 C.3     1  LIG1        0.0093
     22 C           0.1409    1.7204    1.6006 C.3     1  LIG1        0.0813
     23 C          -0.7149    2.0511    0.4393 C.3     1  LIG1        0.0534
     24 H          -1.5023    2.7761    0.6733 H       1  LIG1        0.0387
     25 C           0.1991    2.4704   -0.7007 C.3     1  LIG1        0.1260
     26 O          -0.0507    1.4465   -1.7306 O.3     1  LIG1       -0.3581
     27 C           1.7301    2.9173   -0.1358 C.2     1  LIG1        0.1686
     28 O           2.5131    3.4942   -0.8861 O.2     1  LIG1       -0.2940
     29 C           2.1581    2.5914    1.4546 C.3     1  LIG1        0.0377
     30 C           2.2203    1.0393    2.0060 C.3     1  LIG1        0.0161
     31 H           1.8124    0.9931    3.0304 H       1  LIG1        0.0347
     32 C           3.6415    0.4320    2.2221 C.3     1  LIG1        0.1558
     33 H           4.1020    0.9337    3.0820 H       1  LIG1        0.0713
     34 C           3.5511   -1.0501    2.5990 C.2     1  LIG1        0.3361
     35 O           4.2732   -1.9142    2.1170 O.2     1  LIG1       -0.2479
     36 O           2.5773   -1.2497    3.5225 O.3     1  LIG1       -0.4661
     37 C           2.1359   -2.5980    3.6652 C.3     1  LIG1        0.0817
     38 O           4.5507    0.6450    1.1532 O.3     1  LIG1       -0.3803
     39 C           0.8669    2.9450    2.1129 C.3     1  LIG1       -0.0104
     40 C           3.2950    3.4729    1.9422 C.3     1  LIG1       -0.0523
     41 O          -0.6775    1.2168    2.6761 O.3     1  LIG1       -0.3875
     42 C           2.1983    0.2928   -0.2352 C.3     1  LIG1       -0.0562
     43 H          -2.2800    0.3781    1.6951 H       1  LIG1        0.2103
     44 H          -1.5947   -0.2027   -4.0823 H       1  LIG1        0.0237
     45 H          -1.0067   -1.8550   -3.8582 H       1  LIG1        0.0237
     46 H           0.0560   -0.4959   -3.5193 H       1  LIG1        0.0237
     47 H          -2.5054    2.5319   -1.4341 H       1  LIG1        0.0407
     48 H          -2.1260    1.9128   -3.0185 H       1  LIG1        0.0407
     49 H          -3.1576   -3.9781   -0.6268 H       1  LIG1        0.0653
     50 H          -3.9331   -5.8535   -2.4938 H       1  LIG1        0.1029
     51 H          -3.9075   -2.3318   -4.5726 H       1  LIG1        0.1033
     52 H          -0.9751   -2.9581   -1.3734 H       1  LIG1        0.0273
     53 H           0.4066   -1.9654   -1.6099 H       1  LIG1        0.0273
     54 H           0.3245   -2.4169    0.7636 H       1  LIG1        0.0269
     55 H          -1.3923   -1.9914    0.8810 H       1  LIG1        0.0269
     56 H          -0.1908    3.4050   -1.1231 H       1  LIG1        0.0681
     57 H           2.6214   -3.0587    4.5275 H       1  LIG1        0.0661
     58 H           2.3080   -3.1869    2.7599 H       1  LIG1        0.0661
     59 H           1.0575   -2.5595    3.8395 H       1  LIG1        0.0661
     60 H           5.1694   -0.1140    1.1427 H       1  LIG1        0.2105
     61 H           0.9373    2.9781    3.2084 H       1  LIG1        0.0303
     62 H           0.4277    3.8961    1.7907 H       1  LIG1        0.0303
     63 H           3.4369    3.3744    3.0252 H       1  LIG1        0.0239
     64 H           3.1022    4.5269    1.7248 H       1  LIG1        0.0239
     65 H           4.2356    3.2075    1.4516 H       1  LIG1        0.0239
     66 H          -1.1182    1.9738    3.1097 H       1  LIG1        0.2102
     67 H           1.7850    0.2919   -1.2489 H       1  LIG1        0.0236
     68 H           2.6513   -0.7023   -0.1256 H       1  LIG1        0.0236
     69 H           3.0127    1.0081   -0.3290 H       1  LIG1        0.0236
@<TRIPOS>BOND
     1     2     3    1
     2     3     4    1
     3     4     6    1
     4     6     8    1
     5     8     9    1
     6     9    11    1
     7     3    11    1
     8    12    13   ar
     9    13    14   ar
    10    14    15   ar
    11    15    16   ar
    12    12    16   ar
    13     4    17    1
    14    17    18    1
    15    18    19    1
    16     2    19    1
    17    19    21    1
    18    21    22    1
    19    22    23    1
    20     2    23    1
    21    23    25    1
    22    25    26    1
    23     3    26    1
    24    25    27    1
    25    27    29    1
    26    29    30    1
    27    21    30    1
    28    32    33    1
    29    32    34    1
    30    34    35    2
    31    34    36    1
    32    36    37    1
    33    32    38    1
    34    29    39    1
    35    22    39    1
    36     1     2    1
    37     4     5    1
    38     9    10    2
    39    19    20    1
    40    21    42    1
    41    22    41    1
    42    23    24    1
    43    27    28    2
    44    29    40    1
    45     6    12    1
    46     6     7    1
    47    30    32    1
    48    30    31    1
    49     1    43    1
    50     5    44    1
    51     5    45    1
    52     5    46    1
    53    11    47    1
    54    11    48    1
    55    13    49    1
    56    14    50    1
    57    16    51    1
    58    17    52    1
    59    17    53    1
    60    18    54    1
    61    18    55    1
    62    25    56    1
    63    37    57    1
    64    37    58    1
    65    37    59    1
    66    38    60    1
    67    39    61    1
    68    39    62    1
    69    40    63    1
    70    40    64    1
    71    40    65    1
    72    41    66    1
    73    42    67    1
    74    42    68    1
    75    42    69    1
