REMARK  Name = NuBBE_627
REMARK  8 active torsions:
REMARK  status: ('A' for Active; 'I' for Inactive)
REMARK    1  A    between atoms: C_2  and  O_3
REMARK    2  A    between atoms: C_2  and  C_7
REMARK    3  A    between atoms: O_3  and  C_4
REMARK    4  A    between atoms: C_4  and  C_5
REMARK    5  A    between atoms: C_4  and  C_6
REMARK    6  A    between atoms: C_9  and  O_10
REMARK    7  A    between atoms: C_11  and  O_12
REMARK    8  A    between atoms: C_13  and  O_14
REMARK                            x       y       z     vdW  Elec       q    Type
REMARK                         _______ _______ _______ _____ _____    ______ ____
ROOT
ATOM      1  C   LIG A   1      -0.035   0.615   0.628  0.00  0.00    +0.066 A 
ATOM      2  C   LIG A   1       0.349   1.820   1.245  0.00  0.00    +0.064 A 
ATOM      3  C   LIG A   1       1.018   1.778   2.464  0.00  0.00    +0.163 A 
ATOM      4  C   LIG A   1       1.301   0.556   3.065  0.00  0.00    +0.201 A 
ATOM      5  C   LIG A   1       0.915  -0.631   2.458  0.00  0.00    +0.163 A 
ATOM      6  C   LIG A   1       0.246  -0.615   1.244  0.00  0.00    +0.064 A 
ENDROOT
BRANCH   1   8
ATOM      7  O   LIG A   1      -0.974   1.735  -1.264  0.00  0.00    -0.245 OA
ATOM      8  C   LIG A   1      -0.700   0.689  -0.701  0.00  0.00    +0.340 C 
BRANCH   8   9
ATOM      9  O   LIG A   1      -0.878  -0.562  -1.188  0.00  0.00    -0.458 OA
BRANCH   9  10
ATOM     10  C   LIG A   1      -1.310  -0.670  -2.555  0.00  0.00    +0.171 C 
ATOM     11  C   LIG A   1      -0.102  -0.482  -3.467  0.00  0.00    +0.051 C 
ATOM     12  C   LIG A   1      -1.900  -2.066  -2.720  0.00  0.00    +0.051 C 
ENDBRANCH   9  10
ENDBRANCH   8   9
ENDBRANCH   1   8
BRANCH   3  13
ATOM     13  O   LIG A   1       1.427   2.912   3.108  0.00  0.00    -0.503 OA
ATOM     14  H   LIG A   1       1.161   3.682   2.574  0.00  0.00    +0.292 HD
ENDBRANCH   3  13
BRANCH   4  15
ATOM     15  O   LIG A   1       1.968   0.504   4.258  0.00  0.00    -0.501 OA
ATOM     16  H   LIG A   1       2.138   1.442   4.481  0.00  0.00    +0.292 HD
ENDBRANCH   4  15
BRANCH   5  17
ATOM     17  O   LIG A   1       1.199  -1.828   3.046  0.00  0.00    -0.503 OA
ATOM     18  H   LIG A   1       1.673  -1.596   3.870  0.00  0.00    +0.292 HD
ENDBRANCH   5  17
TORSDOF 6
