REMARK  Name = NuBBE_1913
REMARK  7 active torsions:
REMARK  status: ('A' for Active; 'I' for Inactive)
REMARK    1  A    between atoms: C_1  and  O_2
REMARK    2  A    between atoms: O_2  and  C_3
REMARK    3  A    between atoms: C_4  and  O_5
REMARK    4  A    between atoms: C_6  and  O_7
REMARK    5  A    between atoms: C_14  and  O_15
REMARK    6  A    between atoms: O_15  and  C_16
REMARK    7  A    between atoms: C_17  and  O_18
REMARK                            x       y       z     vdW  Elec       q    Type
REMARK                         _______ _______ _______ _____ _____    ______ ____
ROOT
ATOM      1  C   LIG A   1      -2.135   1.408  -1.246  0.00  0.00    +0.179 A 
ATOM      2  C   LIG A   1      -2.325   2.788  -1.428  0.00  0.00    +0.202 A 
ATOM      3  C   LIG A   1      -1.519   3.728  -0.794  0.00  0.00    +0.166 A 
ATOM      4  C   LIG A   1      -0.515   3.324   0.065  0.00  0.00    +0.096 A 
ATOM      5  C   LIG A   1      -0.336   1.959   0.300  0.00  0.00    +0.146 A 
ATOM      6  O   LIG A   1       0.682   1.649   1.175  0.00  0.00    -0.454 OA
ATOM      7  C   LIG A   1       1.079   0.341   1.255  0.00  0.00    +0.143 A 
ATOM      8  C   LIG A   1       2.284   0.083   1.903  0.00  0.00    +0.051 A 
ATOM      9  C   LIG A   1       2.756  -1.230   2.006  0.00  0.00    +0.053 A 
ATOM     10  C   LIG A   1       2.027  -2.293   1.460  0.00  0.00    +0.162 A 
ATOM     11  C   LIG A   1       0.795  -2.031   0.849  0.00  0.00    +0.173 A 
ATOM     12  C   LIG A   1       0.332  -0.714   0.749  0.00  0.00    +0.110 A 
ATOM     13  C   LIG A   1      -1.160   1.000  -0.322  0.00  0.00    +0.110 A 
ATOM     14  C   LIG A   1      -0.949  -0.389   0.126  0.00  0.00    +0.207 A 
ATOM     15  O   LIG A   1      -1.791  -1.280   0.025  0.00  0.00    -0.286 OA
ENDROOT
BRANCH   1  17
ATOM     16  C   LIG A   1      -2.481  -0.603  -2.504  0.00  0.00    +0.277 C 
ATOM     17  O   LIG A   1      -2.978   0.640  -2.007  0.00  0.00    -0.490 OA
ENDBRANCH   1  17
BRANCH   2  18
ATOM     18  O   LIG A   1      -3.326   3.265  -2.239  0.00  0.00    -0.501 OA
ATOM     19  H   LIG A   1      -3.865   2.480  -2.467  0.00  0.00    +0.292 HD
ENDBRANCH   2  18
BRANCH   3  20
ATOM     20  O   LIG A   1      -1.708   5.061  -1.015  0.00  0.00    -0.503 OA
ATOM     21  H   LIG A   1      -2.444   5.109  -1.659  0.00  0.00    +0.292 HD
ENDBRANCH   3  20
BRANCH  10  22
ATOM     22  O   LIG A   1       2.417  -3.604   1.529  0.00  0.00    -0.491 OA
ATOM     23  C   LIG A   1       3.820  -3.832   1.580  0.00  0.00    +0.277 C 
ENDBRANCH  10  22
BRANCH  11  24
ATOM     24  O   LIG A   1       0.079  -3.084   0.332  0.00  0.00    -0.503 OA
ATOM     25  H   LIG A   1      -0.824  -2.762   0.117  0.00  0.00    +0.292 HD
ENDBRANCH  11  24
TORSDOF 5
