REMARK  Name = NuBBE_185
REMARK  18 active torsions:
REMARK  status: ('A' for Active; 'I' for Inactive)
REMARK    1  A    between atoms: O_1  and  C_2
REMARK    2  A    between atoms: C_2  and  C_3
REMARK    3  A    between atoms: C_3  and  C_4
REMARK    4  A    between atoms: C_4  and  C_5
REMARK    5  A    between atoms: C_5  and  C_6
REMARK    6  A    between atoms: C_6  and  C_7
REMARK    7  A    between atoms: C_7  and  C_8
REMARK    8  A    between atoms: C_8  and  C_9
REMARK    9  A    between atoms: C_9  and  C_10
REMARK   10  A    between atoms: C_10  and  C_11
REMARK   11  A    between atoms: C_11  and  C_12
REMARK   12  A    between atoms: C_12  and  C_13
REMARK   13  A    between atoms: C_13  and  C_14
REMARK   14  A    between atoms: C_14  and  C_15
REMARK   15  A    between atoms: C_15  and  C_16
REMARK   16  A    between atoms: C_16  and  C_17
REMARK   17  A    between atoms: C_17  and  C_18
REMARK   18  A    between atoms: C_18  and  C_19
REMARK                            x       y       z     vdW  Elec       q    Type
REMARK                         _______ _______ _______ _____ _____    ______ ____
ROOT
ATOM      1  C   LIG A   1      -1.661  -1.735   0.743  0.00  0.00    -0.000 C 
ENDROOT
BRANCH   1   2
ATOM      2  C   LIG A   1      -1.378  -0.381   0.100  0.00  0.00    -0.000 C 
BRANCH   2   3
ATOM      3  C   LIG A   1      -0.946   0.881   0.930  0.00  0.00    +0.000 C 
BRANCH   3   4
ATOM      4  C   LIG A   1      -0.901   2.171   0.092  0.00  0.00    +0.000 C 
BRANCH   4   5
ATOM      5  C   LIG A   1       0.086   2.350  -1.114  0.00  0.00    +0.005 C 
BRANCH   5   6
ATOM      6  C   LIG A   1      -0.103   3.797  -1.714  0.00  0.00    +0.035 C 
BRANCH   6   7
ATOM      7  C   LIG A   1       0.608   4.300  -2.986  0.00  0.00    -0.044 A 
ATOM      8  C   LIG A   1       0.033   5.358  -3.737  0.00  0.00    +0.053 A 
ATOM      9  C   LIG A   1       0.687   5.855  -4.864  0.00  0.00    +0.167 A 
ATOM     10  O   LIG A   1       0.298   6.933  -5.607  0.00  0.00    -0.453 OA
ATOM     11  C   LIG A   1       1.222   6.841  -6.714  0.00  0.00    +0.466 C 
ATOM     12  O   LIG A   1       2.319   5.939  -6.447  0.00  0.00    -0.453 OA
ATOM     13  C   LIG A   1       1.854   5.310  -5.330  0.00  0.00    +0.166 A 
ATOM     14  C   LIG A   1       2.461   4.287  -4.635  0.00  0.00    +0.050 A 
ATOM     15  C   LIG A   1       1.872   3.847  -3.421  0.00  0.00    +0.007 A 
ENDBRANCH   6   7
ENDBRANCH   5   6
ENDBRANCH   4   5
ENDBRANCH   3   4
ENDBRANCH   2   3
ENDBRANCH   1   2
BRANCH   1  16
ATOM     16  C   LIG A   1      -2.109  -2.931  -0.101  0.00  0.00    -0.000 C 
BRANCH  16  17
ATOM     17  C   LIG A   1      -2.521  -4.301   0.551  0.00  0.00    -0.000 C 
BRANCH  17  18
ATOM     18  C   LIG A   1      -1.577  -5.209   1.397  0.00  0.00    -0.000 C 
BRANCH  18  19
ATOM     19  C   LIG A   1      -1.572  -5.062   2.951  0.00  0.00    -0.000 C 
BRANCH  19  20
ATOM     20  C   LIG A   1      -0.811  -3.915   3.662  0.00  0.00    -0.000 C 
BRANCH  20  21
ATOM     21  C   LIG A   1      -1.450  -2.591   3.378  0.00  0.00    -0.000 C 
BRANCH  21  22
ATOM     22  C   LIG A   1      -0.607  -1.321   3.592  0.00  0.00    +0.000 C 
BRANCH  22  23
ATOM     23  C   LIG A   1       0.917  -1.337   3.295  0.00  0.00    +0.000 C 
BRANCH  23  24
ATOM     24  C   LIG A   1       1.279  -1.392   1.804  0.00  0.00    +0.011 C 
BRANCH  24  25
ATOM     25  C   LIG A   1       2.652  -1.296   1.242  0.00  0.00    +0.120 C 
BRANCH  25  26
ATOM     26  C   LIG A   1       3.453  -2.520   1.646  0.00  0.00    +0.305 C 
ATOM     27  O   LIG A   1       3.033  -3.594   1.827  0.00  0.00    -0.251 OA
BRANCH  26  28
ATOM     28  O   LIG A   1       4.775  -2.174   1.708  0.00  0.00    -0.481 OA
ATOM     29  H   LIG A   1       4.912  -1.214   1.570  0.00  0.00    +0.295 HD
ENDBRANCH  26  28
ENDBRANCH  25  26
ENDBRANCH  24  25
ENDBRANCH  23  24
ENDBRANCH  22  23
ENDBRANCH  21  22
ENDBRANCH  20  21
ENDBRANCH  19  20
ENDBRANCH  18  19
ENDBRANCH  17  18
ENDBRANCH  16  17
ENDBRANCH   1  16
TORSDOF 18
