REMARK  Name = NuBBE_1008
REMARK  3 active torsions:
REMARK  status: ('A' for Active; 'I' for Inactive)
REMARK    1  A    between atoms: C_4  and  O_14
REMARK    2  A    between atoms: C_6  and  O_13
REMARK    3  A    between atoms: C_10  and  C_12
REMARK                            x       y       z     vdW  Elec       q    Type
REMARK                         _______ _______ _______ _____ _____    ______ ____
ROOT
ATOM      1  O   LIG A   1      -2.809   1.088   0.000  0.00  0.00    -0.244 OA
ATOM      2  C   LIG A   1      -1.581   1.078   0.001  0.00  0.00    +0.348 A 
ATOM      3  C   LIG A   1      -0.850  -0.208   0.001  0.00  0.00    +0.108 A 
ATOM      4  C   LIG A   1      -1.544  -1.427  -0.001  0.00  0.00    +0.135 A 
ATOM      5  C   LIG A   1      -0.852  -2.637  -0.002  0.00  0.00    +0.091 A 
ATOM      6  C   LIG A   1       0.538  -2.622  -0.001  0.00  0.00    +0.121 A 
ATOM      7  C   LIG A   1       1.242  -1.422   0.001  0.00  0.00    +0.054 A 
ATOM      8  C   LIG A   1       0.549  -0.206   0.002  0.00  0.00    -0.001 A 
ATOM      9  C   LIG A   1       1.271   1.057   0.002  0.00  0.00    +0.050 A 
ATOM     10  C   LIG A   1       0.576   2.200   0.002  0.00  0.00    +0.107 A 
ATOM     11  O   LIG A   1      -0.837   2.224   0.001  0.00  0.00    -0.427 OA
ATOM     12  C   LIG A   1       1.209   3.554   0.001  0.00  0.00    +0.086 C 
ENDROOT
BRANCH   6  13
ATOM     13  O   LIG A   1       1.261  -3.778  -0.003  0.00  0.00    -0.507 OA
ATOM     14  H   LIG A   1       0.647  -4.532  -0.008  0.00  0.00    +0.292 HD
ENDBRANCH   6  13
BRANCH   4  15
ATOM     15  O   LIG A   1      -2.912  -1.517  -0.002  0.00  0.00    -0.506 OA
ATOM     16  H   LIG A   1      -3.288  -0.608  -0.001  0.00  0.00    +0.292 HD
ENDBRANCH   4  15
TORSDOF 2
