@<TRIPOS>MOLECULE
NuBBE_2422
 51 54 0 0 0
SMALL
GASTEIGER

@<TRIPOS>ATOM
      1 O          -1.9694    1.9034    0.3762 O.3     1  LIG1       -0.4908
      2 C          -2.6767    2.9923   -0.2063 C.3     1  LIG1        0.0790
      3 C          -0.5948    1.9112    0.2746 C.ar    1  LIG1        0.1695
      4 C           0.0377    0.6365    0.1818 C.ar    1  LIG1        0.0327
      5 C           1.4608    0.5833    0.2060 C.ar    1  LIG1       -0.0153
      6 C           2.1556   -0.7883    0.1691 C.3     1  LIG1        0.0403
      7 H           2.0627   -1.1453   -0.8687 H       1  LIG1        0.0516
      8 C           1.3563   -1.7260    1.1120 C.3     1  LIG1       -0.0072
      9 C          -0.0678   -1.8291    0.6033 C.ar    1  LIG1       -0.0341
     10 C          -0.6880   -0.6657    0.1034 C.ar    1  LIG1       -0.0070
     11 C          -1.9405   -0.8221   -0.5192 C.ar    1  LIG1       -0.0082
     12 C          -2.5915   -2.0662   -0.5867 C.ar    1  LIG1        0.1621
     13 C          -1.9685   -3.2000   -0.0419 C.ar    1  LIG1        0.1618
     14 C          -0.7247   -3.0711    0.5737 C.ar    1  LIG1       -0.0125
     15 O          -2.4684   -4.4820   -0.0290 O.3     1  LIG1       -0.4914
     16 C          -3.3536   -4.8310   -1.0880 C.3     1  LIG1        0.0790
     17 O          -3.7972   -2.2248   -1.2097 O.3     1  LIG1       -0.4914
     18 C          -4.6638   -1.1012   -1.2809 C.3     1  LIG1        0.0790
     19 N           3.6042   -0.7352    0.5188 N.3     1  LIG1       -0.2978
     20 C           4.2845   -1.9898    0.1827 C.3     1  LIG1       -0.0122
     21 C           4.2536    0.3656   -0.2140 C.3     1  LIG1        0.0032
     22 C           3.7199    1.7136    0.2644 C.3     1  LIG1       -0.0144
     23 C           2.2174    1.7614    0.2392 C.ar    1  LIG1       -0.0372
     24 C           1.5764    2.9958    0.3302 C.ar    1  LIG1       -0.0127
     25 C           0.1843    3.0871    0.3827 C.ar    1  LIG1        0.1624
     26 O          -0.4471    4.2990    0.5143 O.3     1  LIG1       -0.4914
     27 C           0.2478    5.3039    1.2477 C.3     1  LIG1        0.0790
     28 H          -3.6745    2.6315   -0.4766 H       1  LIG1        0.0660
     29 H          -2.2054    3.3616   -1.1235 H       1  LIG1        0.0660
     30 H          -2.8143    3.7915    0.5280 H       1  LIG1        0.0660
     31 H           1.3462   -1.3446    2.1415 H       1  LIG1        0.0332
     32 H           1.8002   -2.7267    1.1353 H       1  LIG1        0.0332
     33 H          -2.3935    0.0371   -0.9958 H       1  LIG1        0.0661
     34 H          -0.2465   -3.9540    0.9885 H       1  LIG1        0.0658
     35 H          -3.4545   -5.9205   -1.1007 H       1  LIG1        0.0660
     36 H          -2.9552   -4.5256   -2.0625 H       1  LIG1        0.0660
     37 H          -4.3572   -4.4311   -0.9143 H       1  LIG1        0.0660
     38 H          -4.3562   -0.4347   -2.0905 H       1  LIG1        0.0660
     39 H          -4.7256   -0.5730   -0.3251 H       1  LIG1        0.0660
     40 H          -5.6618   -1.4799   -1.5198 H       1  LIG1        0.0660
     41 H           3.9099   -2.8244    0.7811 H       1  LIG1        0.0391
     42 H           5.3542   -1.9164    0.4120 H       1  LIG1        0.0391
     43 H           4.1825   -2.2450   -0.8784 H       1  LIG1        0.0391
     44 H           4.1019    0.2586   -1.2972 H       1  LIG1        0.0430
     45 H           5.3366    0.3578   -0.0383 H       1  LIG1        0.0430
     46 H           4.1299    2.5033   -0.3731 H       1  LIG1        0.0326
     47 H           4.0536    1.9012    1.2929 H       1  LIG1        0.0326
     48 H           2.2000    3.8820    0.3663 H       1  LIG1        0.0658
     49 H          -0.3987    6.1850    1.3007 H       1  LIG1        0.0660
     50 H           1.1652    5.6214    0.7438 H       1  LIG1        0.0660
     51 H           0.4540    4.9698    2.2701 H       1  LIG1        0.0660
@<TRIPOS>BOND
     1     1     2    1
     2     1     3    1
     3     3     4   ar
     4     4     5   ar
     5     5     6    1
     6     6     7    1
     7     6     8    1
     8     8     9    1
     9     9    10   ar
    10     4    10    1
    11    10    11   ar
    12    11    12   ar
    13    12    13   ar
    14    13    14   ar
    15     9    14   ar
    16    13    15    1
    17    15    16    1
    18    12    17    1
    19    17    18    1
    20     6    19    1
    21    19    20    1
    22    19    21    1
    23    21    22    1
    24    22    23    1
    25     5    23   ar
    26    23    24   ar
    27    24    25   ar
    28     3    25   ar
    29    25    26    1
    30    26    27    1
    31     2    28    1
    32     2    29    1
    33     2    30    1
    34     8    31    1
    35     8    32    1
    36    11    33    1
    37    14    34    1
    38    16    35    1
    39    16    36    1
    40    16    37    1
    41    18    38    1
    42    18    39    1
    43    18    40    1
    44    20    41    1
    45    20    42    1
    46    20    43    1
    47    21    44    1
    48    21    45    1
    49    22    46    1
    50    22    47    1
    51    24    48    1
    52    27    49    1
    53    27    50    1
    54    27    51    1
