@<TRIPOS>MOLECULE
NuBBE_1917
 52 54 0 0 0
SMALL
GASTEIGER

@<TRIPOS>ATOM
      1 C          -1.6193    0.8575    1.3315 C.3     1  LIG1       -0.0587
      2 C          -0.2863    1.0508    0.5397 C.3     1  LIG1       -0.0222
      3 C          -0.1681   -0.0513   -0.5817 C.3     1  LIG1       -0.0142
      4 H           0.7505    0.1278   -1.1485 H       1  LIG1        0.0351
      5 C          -0.0064   -1.4384    0.0192 C.2     1  LIG1       -0.0690
      6 C          -0.7334   -2.5026   -0.3717 C.2     1  LIG1       -0.0749
      7 C          -1.7446   -2.4964   -1.5038 C.3     1  LIG1        0.0039
      8 C          -1.4551   -1.2827   -2.4228 C.3     1  LIG1       -0.0401
      9 C          -1.3021    0.0184   -1.6354 C.3     1  LIG1       -0.0449
     10 C          -3.1462   -2.5576   -0.9055 C.2     1  LIG1       -0.0815
     11 C          -4.2145   -1.8057   -1.2066 C.2     1  LIG1       -0.1018
     12 C          -1.5528   -3.7760   -2.3450 C.3     1  LIG1       -0.0526
     13 C           1.0716   -1.5840    1.0594 C.3     1  LIG1       -0.0312
     14 C           1.0529   -0.4844    2.1180 C.3     1  LIG1       -0.0455
     15 C           0.9087    0.9570    1.5722 C.3     1  LIG1       -0.0296
     16 H           0.5762    1.5491    2.4403 H       1  LIG1        0.0311
     17 C           2.2714    1.6516    1.1654 C.3     1  LIG1       -0.0315
     18 C           3.1044    1.9333    2.4463 C.3     1  LIG1       -0.0595
     19 C           3.1828    0.8232    0.2411 C.3     1  LIG1       -0.0595
     20 C           2.0042    3.0268    0.5063 C.3     1  LIG1       -0.0476
     21 C           0.9735    2.9714   -0.6093 C.3     1  LIG1       -0.0520
     22 C          -0.3544    2.4786   -0.0601 C.3     1  LIG1       -0.0468
     23 H          -1.7557   -0.1693    1.6831 H       1  LIG1        0.0235
     24 H          -2.4952    1.1181    0.7292 H       1  LIG1        0.0235
     25 H          -1.6504    1.5100    2.2123 H       1  LIG1        0.0235
     26 H          -0.5737   -3.4606    0.1215 H       1  LIG1        0.0580
     27 H          -2.2389   -1.1674   -3.1816 H       1  LIG1        0.0277
     28 H          -0.5242   -1.4513   -2.9833 H       1  LIG1        0.0277
     29 H          -2.2616    0.2691   -1.1787 H       1  LIG1        0.0272
     30 H          -1.0848    0.8266   -2.3448 H       1  LIG1        0.0272
     31 H          -3.2903   -3.3285   -0.1470 H       1  LIG1        0.0575
     32 H          -4.1904   -1.0218   -1.9546 H       1  LIG1        0.0532
     33 H          -5.1599   -1.9677   -0.6969 H       1  LIG1        0.0532
     34 H          -0.5335   -3.8448   -2.7441 H       1  LIG1        0.0241
     35 H          -2.2436   -3.7963   -3.1966 H       1  LIG1        0.0241
     36 H          -1.7317   -4.6835   -1.7546 H       1  LIG1        0.0241
     37 H           2.0363   -1.6035    0.5448 H       1  LIG1        0.0310
     38 H           0.9932   -2.5518    1.5711 H       1  LIG1        0.0310
     39 H           1.9435   -0.5806    2.7470 H       1  LIG1        0.0271
     40 H           0.2100   -0.6818    2.7941 H       1  LIG1        0.0271
     41 H           2.5312    2.5175    3.1749 H       1  LIG1        0.0235
     42 H           4.0092    2.5056    2.2087 H       1  LIG1        0.0235
     43 H           3.4275    1.0107    2.9380 H       1  LIG1        0.0235
     44 H           2.6999    0.5367   -0.6924 H       1  LIG1        0.0235
     45 H           3.5459   -0.0814    0.7378 H       1  LIG1        0.0235
     46 H           4.0774    1.3955   -0.0351 H       1  LIG1        0.0235
     47 H           2.9366    3.4511    0.1121 H       1  LIG1        0.0271
     48 H           1.6511    3.7362    1.2676 H       1  LIG1        0.0271
     49 H           0.8388    3.9788   -1.0207 H       1  LIG1        0.0266
     50 H           1.3187    2.3420   -1.4354 H       1  LIG1        0.0266
     51 H          -1.1169    2.5433   -0.8439 H       1  LIG1        0.0271
     52 H          -0.6814    3.1825    0.7184 H       1  LIG1        0.0271
@<TRIPOS>BOND
     1     2     3    1
     2     3     5    1
     3     5     6    2
     4     6     7    1
     5     7     8    1
     6     8     9    1
     7     3     9    1
     8    10    11    2
     9     5    13    1
    10    13    14    1
    11    14    15    1
    12     2    15    1
    13    15    17    1
    14    17    20    1
    15    20    21    1
    16    21    22    1
    17     2    22    1
    18     1     2    1
    19     3     4    1
    20    15    16    1
    21    17    18    1
    22    17    19    1
    23     7    12    1
    24     7    10    1
    25     1    23    1
    26     1    24    1
    27     1    25    1
    28     6    26    1
    29     8    27    1
    30     8    28    1
    31     9    29    1
    32     9    30    1
    33    10    31    1
    34    11    32    1
    35    11    33    1
    36    12    34    1
    37    12    35    1
    38    12    36    1
    39    13    37    1
    40    13    38    1
    41    14    39    1
    42    14    40    1
    43    18    41    1
    44    18    42    1
    45    18    43    1
    46    19    44    1
    47    19    45    1
    48    19    46    1
    49    20    47    1
    50    20    48    1
    51    21    49    1
    52    21    50    1
    53    22    51    1
    54    22    52    1
