REMARK  Name = NuBBE_2408
REMARK  4 active torsions:
REMARK  status: ('A' for Active; 'I' for Inactive)
REMARK    1  A    between atoms: C_1  and  C_2
REMARK    2  A    between atoms: N_5  and  C_6
REMARK    3  A    between atoms: C_24  and  C_25
REMARK    4  A    between atoms: C_25  and  O_26
REMARK                            x       y       z     vdW  Elec       q    Type
REMARK                         _______ _______ _______ _____ _____    ______ ____
ROOT
ATOM      1  C   LIG A   1      -4.832   0.888   2.224  0.00  0.00    +0.035 C 
ATOM      2  C   LIG A   1      -3.348   1.071   2.172  0.00  0.00    -0.030 C 
ATOM      3  C   LIG A   1      -2.457   0.366   1.443  0.00  0.00    -0.056 C 
ATOM      4  C   LIG A   1      -2.845  -0.768   0.514  0.00  0.00    +0.115 C 
ATOM      5  N   LIG A   1      -1.933  -0.981  -0.606  0.00  0.00    -0.298 NA
ATOM      6  C   LIG A   1      -2.322  -2.156  -1.385  0.00  0.00    +0.105 C 
ATOM      7  C   LIG A   1      -0.477  -0.974  -0.313  0.00  0.00    +0.067 C 
ATOM      8  C   LIG A   1       0.144  -0.082  -1.434  0.00  0.00    +0.057 C 
ATOM      9  C   LIG A   1       1.449   0.600  -1.141  0.00  0.00    -0.010 A 
ATOM     10  C   LIG A   1       1.682   1.634  -0.236  0.00  0.00    +0.086 A 
ATOM     11  N   LIG A   1       3.018   1.957  -0.331  0.00  0.00    -0.352 N 
ATOM     12  H   LIG A   1       3.459   2.672   0.233  0.00  0.00    +0.166 HD
ATOM     13  C   LIG A   1       3.652   1.187  -1.269  0.00  0.00    +0.047 A 
ATOM     14  C   LIG A   1       4.988   1.194  -1.687  0.00  0.00    +0.026 A 
ATOM     15  C   LIG A   1       5.361   0.286  -2.681  0.00  0.00    +0.002 A 
ATOM     16  C   LIG A   1       4.433  -0.594  -3.231  0.00  0.00    +0.001 A 
ATOM     17  C   LIG A   1       3.102  -0.587  -2.798  0.00  0.00    +0.010 A 
ATOM     18  C   LIG A   1       2.697   0.321  -1.796  0.00  0.00    +0.004 A 
ATOM     19  C   LIG A   1       0.826   2.313   0.726  0.00  0.00    +0.180 C 
ATOM     20  O   LIG A   1       1.290   3.146   1.508  0.00  0.00    -0.290 OA
ATOM     21  C   LIG A   1      -0.650   1.973   0.779  0.00  0.00    +0.089 C 
ATOM     22  C   LIG A   1      -0.967   0.680   1.558  0.00  0.00    +0.030 C 
ATOM     23  C   LIG A   1      -0.135  -0.549   1.140  0.00  0.00    +0.039 C 
ENDROOT
BRANCH  23  24
ATOM     24  C   LIG A   1      -0.268  -1.707   2.154  0.00  0.00    +0.161 C 
BRANCH  24  25
ATOM     25  O   LIG A   1       0.679  -2.726   1.844  0.00  0.00    -0.395 OA
ATOM     26  H   LIG A   1       0.620  -3.395   2.547  0.00  0.00    +0.209 HD
ENDBRANCH  24  25
ENDBRANCH  23  24
TORSDOF 2
