REMARK  Name = NuBBE_30
REMARK  4 active torsions:
REMARK  status: ('A' for Active; 'I' for Inactive)
REMARK    1  A    between atoms: O_1  and  C_2
REMARK    2  A    between atoms: C_2  and  C_3
REMARK    3  A    between atoms: C_4  and  C_5
REMARK    4  A    between atoms: C_6  and  C_7
REMARK                            x       y       z     vdW  Elec       q    Type
REMARK                         _______ _______ _______ _____ _____    ______ ____
ROOT
ATOM      1  C   LIG A   1       1.067   0.138   0.225  0.00  0.00    -0.021 A 
ATOM      2  C   LIG A   1       0.485   1.373  -0.102  0.00  0.00    +0.057 A 
ATOM      3  C   LIG A   1       1.066   2.523   0.387  0.00  0.00    +0.167 A 
ATOM      4  O   LIG A   1       0.615   3.787   0.172  0.00  0.00    -0.453 OA
ATOM      5  C   LIG A   1       1.594   4.551   0.905  0.00  0.00    +0.466 C 
ATOM      6  O   LIG A   1       2.599   3.734   1.542  0.00  0.00    -0.453 OA
ATOM      7  C   LIG A   1       2.196   2.491   1.167  0.00  0.00    +0.166 A 
ATOM      8  C   LIG A   1       2.809   1.304   1.499  0.00  0.00    +0.050 A 
ATOM      9  C   LIG A   1       2.239   0.118   1.015  0.00  0.00    +0.012 A 
ENDROOT
BRANCH   1  11
ATOM     10  C   LIG A   1      -0.807  -1.329  -0.470  0.00  0.00    +0.001 C 
ATOM     11  C   LIG A   1       0.505  -1.134  -0.262  0.00  0.00    +0.008 C 
BRANCH  10  13
ATOM     12  C   LIG A   1      -2.683  -2.760  -1.103  0.00  0.00    +0.091 C 
ATOM     13  C   LIG A   1      -1.366  -2.586  -0.922  0.00  0.00    +0.007 C 
BRANCH  12  14
ATOM     14  C   LIG A   1      -3.184  -4.071  -1.557  0.00  0.00    +0.330 C 
ATOM     15  O   LIG A   1      -2.496  -4.946  -2.048  0.00  0.00    -0.246 OA
BRANCH  14  16
ATOM     16  O   LIG A   1      -4.511  -4.197  -1.353  0.00  0.00    -0.477 OA
ATOM     17  H   LIG A   1      -4.940  -3.447  -0.901  0.00  0.00    +0.295 HD
ENDBRANCH  14  16
ENDBRANCH  12  14
ENDBRANCH  10  13
ENDBRANCH   1  11
TORSDOF 4
