REMARK  Name = NuBBE_1088
REMARK  21 active torsions:
REMARK  status: ('A' for Active; 'I' for Inactive)
REMARK    1  A    between atoms: C_2  and  C_3
REMARK    2  A    between atoms: C_2  and  O_14
REMARK    3  A    between atoms: C_4  and  C_5
REMARK    4  A    between atoms: C_8  and  O_12
REMARK    5  A    between atoms: C_10  and  O_11
REMARK    6  A    between atoms: O_12  and  C_13
REMARK    7  A    between atoms: O_14  and  C_15
REMARK    8  A    between atoms: C_15  and  C_16
REMARK    9  A    between atoms: C_16  and  C_17
REMARK   10  A    between atoms: C_17  and  C_18
REMARK   11  A    between atoms: C_18  and  C_19
REMARK   12  A    between atoms: C_19  and  C_20
REMARK   13  A    between atoms: C_20  and  C_21
REMARK   14  A    between atoms: C_21  and  C_22
REMARK   15  A    between atoms: C_22  and  C_23
REMARK   16  A    between atoms: C_23  and  C_24
REMARK   17  A    between atoms: C_24  and  C_25
REMARK   18  A    between atoms: C_25  and  C_26
REMARK   19  A    between atoms: C_26  and  C_27
REMARK   20  A    between atoms: C_27  and  C_28
REMARK   21  A    between atoms: C_28  and  C_29
REMARK                            x       y       z     vdW  Elec       q    Type
REMARK                         _______ _______ _______ _____ _____    ______ ____
ROOT
ATOM      1  O   LIG A   1       1.032   1.100   1.443  0.00  0.00    -0.462 OA
ENDROOT
BRANCH   1   3
ATOM      2  O   LIG A   1       1.535   2.944   2.811  0.00  0.00    -0.246 OA
ATOM      3  C   LIG A   1       1.367   2.364   1.662  0.00  0.00    +0.332 C 
BRANCH   3   4
ATOM      4  C   LIG A   1       1.484   3.095   0.376  0.00  0.00    +0.092 C 
ATOM      5  C   LIG A   1       1.776   4.399   0.274  0.00  0.00    +0.018 C 
BRANCH   5   6
ATOM      6  C   LIG A   1       1.842   5.207  -0.963  0.00  0.00    +0.017 A 
ATOM      7  C   LIG A   1       2.251   6.546  -0.843  0.00  0.00    +0.015 A 
ATOM      8  C   LIG A   1       2.283   7.391  -1.951  0.00  0.00    +0.046 A 
ATOM      9  C   LIG A   1       1.917   6.931  -3.215  0.00  0.00    +0.124 A 
ATOM     10  C   LIG A   1       1.518   5.602  -3.364  0.00  0.00    +0.091 A 
ATOM     11  C   LIG A   1       1.485   4.756  -2.247  0.00  0.00    +0.127 A 
BRANCH   9  12
ATOM     12  O   LIG A   1       1.915   7.717  -4.340  0.00  0.00    -0.495 OA
ATOM     13  C   LIG A   1       2.365   9.055  -4.112  0.00  0.00    +0.277 C 
ENDBRANCH   9  12
BRANCH  11  14
ATOM     14  O   LIG A   1       1.081   3.460  -2.424  0.00  0.00    -0.506 OA
ATOM     15  H   LIG A   1       0.795   3.321  -3.338  0.00  0.00    +0.292 HD
ENDBRANCH  11  14
ENDBRANCH   5   6
ENDBRANCH   3   4
ENDBRANCH   1   3
BRANCH   1  16
ATOM     16  C   LIG A   1       0.597   0.097   2.410  0.00  0.00    +0.232 C 
BRANCH  16  17
ATOM     17  C   LIG A   1      -0.884   0.231   2.833  0.00  0.00    +0.041 C 
BRANCH  17  18
ATOM     18  C   LIG A   1      -2.070   0.392   1.850  0.00  0.00    +0.003 C 
BRANCH  18  19
ATOM     19  C   LIG A   1      -2.503  -0.879   1.111  0.00  0.00    +0.000 C 
BRANCH  19  20
ATOM     20  C   LIG A   1      -3.680  -0.665   0.131  0.00  0.00    -0.000 C 
BRANCH  20  21
ATOM     21  C   LIG A   1      -4.116  -1.932  -0.630  0.00  0.00    -0.000 C 
BRANCH  21  22
ATOM     22  C   LIG A   1      -3.203  -2.376  -1.785  0.00  0.00    -0.000 C 
BRANCH  22  23
ATOM     23  C   LIG A   1      -1.768  -2.747  -1.456  0.00  0.00    -0.000 C 
BRANCH  23  24
ATOM     24  C   LIG A   1      -1.684  -3.894  -0.512  0.00  0.00    -0.000 C 
BRANCH  24  25
ATOM     25  C   LIG A   1      -0.238  -4.317  -0.303  0.00  0.00    -0.000 C 
BRANCH  25  26
ATOM     26  C   LIG A   1       0.743  -3.439   0.550  0.00  0.00    -0.000 C 
BRANCH  26  27
ATOM     27  C   LIG A   1       2.082  -4.076   1.120  0.00  0.00    -0.000 C 
BRANCH  27  28
ATOM     28  C   LIG A   1       2.020  -5.077   2.319  0.00  0.00    -0.000 C 
BRANCH  28  29
ATOM     29  C   LIG A   1       1.299  -6.372   1.963  0.00  0.00    -0.003 C 
ATOM     30  C   LIG A   1      -0.157  -6.047   1.945  0.00  0.00    +0.004 C 
ENDBRANCH  28  29
ENDBRANCH  27  28
ENDBRANCH  26  27
ENDBRANCH  25  26
ENDBRANCH  24  25
ENDBRANCH  23  24
ENDBRANCH  22  23
ENDBRANCH  21  22
ENDBRANCH  20  21
ENDBRANCH  19  20
ENDBRANCH  18  19
ENDBRANCH  17  18
ENDBRANCH  16  17
ENDBRANCH   1  16
TORSDOF 19
