@<TRIPOS>MOLECULE
NuBBE_1469
 68 73 0 0 0
SMALL
GASTEIGER

@<TRIPOS>ATOM
      1 C          -3.2646   -0.2670    1.0861 C.3     1  LIG1       -0.0237
      2 C          -2.0109    0.2109    0.4286 C.3     1  LIG1        0.1244
      3 C          -0.5902   -0.1576    0.8257 C.3     1  LIG1        0.0363
      4 C          -1.1651   -0.5828   -0.5677 C.3     1  LIG1        0.0662
      5 C          -1.0866   -2.1310   -0.6090 C.3     1  LIG1        0.0222
      6 C          -2.3558   -2.6199   -1.3366 C.3     1  LIG1        0.1371
      7 H          -3.2503   -2.2408   -0.8297 H       1  LIG1        0.0792
      8 O          -2.4319   -2.0586   -2.6704 O.3     1  LIG1       -0.4541
      9 C          -2.0313   -0.8022   -2.9732 C.2     1  LIG1        0.3373
     10 C          -1.1908    0.0088   -1.9628 C.3     1  LIG1        0.1621
     11 H          -1.6020    1.0219   -1.9733 H       1  LIG1        0.0718
     12 O           0.1325    0.0904   -2.5131 O.3     1  LIG1       -0.3799
     13 O          -2.2067   -0.3604   -4.1104 O.2     1  LIG1       -0.2479
     14 C          -2.5156   -4.1154   -1.3908 C.ar    1  LIG1        0.0310
     15 C          -3.1941   -4.9486   -0.4483 C.ar    1  LIG1       -0.0172
     16 C          -3.1157   -6.2352   -0.9276 C.ar    1  LIG1        0.0921
     17 O          -2.4401   -6.2579   -2.1028 O.2     1  LIG1       -0.4706
     18 C          -2.0905   -4.9775   -2.3839 C.ar    1  LIG1        0.0984
     19 C          -0.9857   -2.5763    0.8641 C.3     1  LIG1       -0.0425
     20 C          -0.2673   -1.4353    1.5855 C.3     1  LIG1       -0.0414
     21 H           0.8160   -1.5974    1.5778 H       1  LIG1        0.0273
     22 H          -0.6034   -1.4139    2.6258 H       1  LIG1        0.0273
     23 C           0.2167   -2.5920   -1.3093 C.3     1  LIG1       -0.0551
     24 C          -0.0485    1.1666    1.4047 C.3     1  LIG1        0.0420
     25 C          -0.9874    2.2094    0.8675 C.2     1  LIG1        0.1088
     26 O          -2.0893    1.6661    0.2335 O.2     1  LIG1       -0.4882
     27 C          -0.7740    3.5209    0.9820 C.2     1  LIG1        0.0194
     28 C           0.4406    3.9456    1.7139 C.2     1  LIG1        0.1652
     29 C           1.7246    3.0735    1.6593 C.3     1  LIG1        0.0341
     30 C           2.7262    3.9518    0.8698 C.3     1  LIG1       -0.0524
     31 C           1.4436    1.5947    1.0995 C.3     1  LIG1        0.0205
     32 H           2.0972    0.9006    1.6490 H       1  LIG1        0.0350
     33 C           1.8164    1.3933   -0.3971 C.3     1  LIG1        0.1561
     34 H           1.5418    0.3626   -0.6506 H       1  LIG1        0.0714
     35 O           1.0496    2.2791   -1.2047 O.3     1  LIG1       -0.3803
     36 C           3.2979    1.4355   -0.7213 C.2     1  LIG1        0.3361
     37 O           3.4665    1.6714   -2.0560 O.3     1  LIG1       -0.4661
     38 C           4.8083    1.8716   -2.5239 C.3     1  LIG1        0.0817
     39 O           4.1970    1.2265    0.0859 O.2     1  LIG1       -0.2479
     40 C           2.3448    2.9583    3.0812 C.3     1  LIG1       -0.0524
     41 O           0.3930    5.0133    2.3281 O.2     1  LIG1       -0.2920
     42 C          -0.3016    1.1179    2.9476 C.3     1  LIG1       -0.0516
     43 H          -3.3462   -1.3398    1.2260 H       1  LIG1        0.0268
     44 H          -4.1254    0.0405    0.4808 H       1  LIG1        0.0268
     45 H          -3.3760    0.2042    2.0682 H       1  LIG1        0.0268
     46 H           0.0060    0.2483   -3.4722 H       1  LIG1        0.2105
     47 H          -3.6919   -4.6459    0.4630 H       1  LIG1        0.0653
     48 H          -3.4766   -7.1939   -0.5792 H       1  LIG1        0.1029
     49 H          -1.5636   -4.8374   -3.3181 H       1  LIG1        0.1033
     50 H          -0.4574   -3.5274    0.9967 H       1  LIG1        0.0272
     51 H          -1.9690   -2.7367    1.3119 H       1  LIG1        0.0272
     52 H           0.1616   -2.5076   -2.3986 H       1  LIG1        0.0237
     53 H           0.4437   -3.6402   -1.0827 H       1  LIG1        0.0237
     54 H           1.0753   -1.9957   -0.9792 H       1  LIG1        0.0237
     55 H          -1.4615    4.2785    0.6361 H       1  LIG1        0.0686
     56 H           2.4403    4.0843   -0.1765 H       1  LIG1        0.0239
     57 H           3.7485    3.5660    0.9175 H       1  LIG1        0.0239
     58 H           2.7712    4.9641    1.2965 H       1  LIG1        0.0239
     59 H           1.0304    1.8561   -2.0863 H       1  LIG1        0.2105
     60 H           5.0623    2.9257   -2.3807 H       1  LIG1        0.0661
     61 H           4.8530    1.6456   -3.5895 H       1  LIG1        0.0661
     62 H           5.5311    1.2291   -2.0055 H       1  LIG1        0.0661
     63 H           1.8578    2.2129    3.7108 H       1  LIG1        0.0239
     64 H           2.3040    3.9065    3.6281 H       1  LIG1        0.0239
     65 H           3.3976    2.6550    3.0219 H       1  LIG1        0.0239
     66 H          -1.2993    0.7291    3.1841 H       1  LIG1        0.0239
     67 H          -0.2548    2.0957    3.4343 H       1  LIG1        0.0239
     68 H           0.4259    0.4624    3.4396 H       1  LIG1        0.0239
@<TRIPOS>BOND
     1     2     3    1
     2     3     4    1
     3     2     4    1
     4     4     5    1
     5     5     6    1
     6     6     8    1
     7     8     9    1
     8     9    10    1
     9     4    10    1
    10    14    15   ar
    11    15    16   ar
    12    16    17   ar
    13    17    18   ar
    14    14    18   ar
    15     5    19    1
    16    19    20    1
    17    20     3    1
    18     3    24    1
    19    24    25    1
    20    25    26    1
    21     2    26    1
    22    25    27    2
    23    27    28    1
    24    28    29    1
    25    29    31    1
    26    33    34    1
    27    33    35    1
    28    33    36    1
    29    36    37    1
    30    37    38    1
    31    36    39    2
    32    31    24    1
    33     1     2    1
    34     5    23    1
    35     9    13    2
    36    20    21    1
    37    20    22    1
    38    24    42    1
    39    28    41    2
    40    29    30    1
    41    29    40    1
    42    10    12    1
    43    10    11    1
    44     6    14    1
    45     6     7    1
    46    31    33    1
    47    31    32    1
    48     1    43    1
    49     1    44    1
    50     1    45    1
    51    12    46    1
    52    15    47    1
    53    16    48    1
    54    18    49    1
    55    19    50    1
    56    19    51    1
    57    23    52    1
    58    23    53    1
    59    23    54    1
    60    27    55    1
    61    30    56    1
    62    30    57    1
    63    30    58    1
    64    35    59    1
    65    38    60    1
    66    38    61    1
    67    38    62    1
    68    40    63    1
    69    40    64    1
    70    40    65    1
    71    42    66    1
    72    42    67    1
    73    42    68    1
