REMARK  Name = NuBBE_1616
REMARK  9 active torsions:
REMARK  status: ('A' for Active; 'I' for Inactive)
REMARK    1  A    between atoms: C_1  and  C_2
REMARK    2  A    between atoms: C_1  and  C_9
REMARK    3  A    between atoms: C_2  and  C_4
REMARK    4  A    between atoms: C_2  and  O_8
REMARK    5  A    between atoms: C_4  and  C_5
REMARK    6  A    between atoms: C_4  and  C_6
REMARK    7  A    between atoms: C_4  and  O_7
REMARK    8  A    between atoms: C_14  and  O_15
REMARK    9  A    between atoms: O_15  and  C_16
REMARK                            x       y       z     vdW  Elec       q    Type
REMARK                         _______ _______ _______ _____ _____    ______ ____
ROOT
ATOM      1  C   LIG A   1       0.776  -0.073   0.501  0.00  0.00    +0.040 A 
ATOM      2  C   LIG A   1       1.509   1.121   0.619  0.00  0.00    +0.146 A 
ATOM      3  C   LIG A   1       2.901   1.147   0.631  0.00  0.00    +0.018 A 
ATOM      4  C   LIG A   1       3.599  -0.054   0.520  0.00  0.00    +0.015 A 
ATOM      5  C   LIG A   1       2.899  -1.258   0.398  0.00  0.00    +0.046 A 
ATOM      6  C   LIG A   1       1.497  -1.278   0.397  0.00  0.00    +0.127 A 
ATOM      7  C   LIG A   1       3.599   2.416   0.764  0.00  0.00    +0.018 A 
ATOM      8  C   LIG A   1       2.894   3.547   0.878  0.00  0.00    +0.092 A 
ATOM      9  C   LIG A   1       1.425   3.558   0.872  0.00  0.00    +0.337 A 
ATOM     10  O   LIG A   1       0.806   4.616   0.984  0.00  0.00    -0.245 OA
ATOM     11  O   LIG A   1       0.787   2.334   0.724  0.00  0.00    -0.422 OA
ENDROOT
BRANCH   6  12
ATOM     12  O   LIG A   1       0.764  -2.429   0.246  0.00  0.00    -0.495 OA
ATOM     13  C   LIG A   1       1.348  -3.613   0.789  0.00  0.00    +0.277 C 
ENDBRANCH   6  12
BRANCH   1  14
ATOM     14  C   LIG A   1      -0.746  -0.054   0.530  0.00  0.00    +0.076 C 
BRANCH  14  15
ATOM     15  C   LIG A   1      -1.417  -0.088  -0.861  0.00  0.00    +0.150 C 
BRANCH  15  16
ATOM     16  C   LIG A   1      -2.978  -0.124  -0.791  0.00  0.00    +0.086 C 
ATOM     17  C   LIG A   1      -3.599  -0.122  -2.196  0.00  0.00    +0.043 C 
ATOM     18  C   LIG A   1      -3.509  -1.327  -0.010  0.00  0.00    +0.043 C 
BRANCH  16  19
ATOM     19  O   LIG A   1      -3.456   1.056  -0.128  0.00  0.00    -0.387 OA
ATOM     20  H   LIG A   1      -3.110   1.808  -0.649  0.00  0.00    +0.210 HD
ENDBRANCH  16  19
ENDBRANCH  15  16
BRANCH  15  21
ATOM     21  O   LIG A   1      -1.053   1.094  -1.600  0.00  0.00    -0.389 OA
ATOM     22  H   LIG A   1      -0.083   1.099  -1.671  0.00  0.00    +0.210 HD
ENDBRANCH  15  21
ENDBRANCH  14  15
ENDBRANCH   1  14
TORSDOF 6
