@<TRIPOS>MOLECULE
NuBBE_1616
 38 39 0 0 0
SMALL
GASTEIGER

@<TRIPOS>ATOM
      1 C          -0.7455   -0.0545    0.5303 C.3     1  LIG1        0.0081
      2 C          -1.4172   -0.0882   -0.8608 C.3     1  LIG1        0.0875
      3 H          -1.0608   -0.9527   -1.4336 H       1  LIG1        0.0625
      4 C          -2.9780   -0.1244   -0.7908 C.3     1  LIG1        0.0865
      5 C          -3.5993   -0.1222   -2.1959 C.3     1  LIG1       -0.0339
      6 C          -3.5094   -1.3273   -0.0104 C.3     1  LIG1       -0.0339
      7 O          -3.4558    1.0563   -0.1279 O.3     1  LIG1       -0.3866
      8 O          -1.0533    1.0942   -1.6002 O.3     1  LIG1       -0.3886
      9 C           0.7756   -0.0733    0.5015 C.ar    1  LIG1        0.0397
     10 C           1.5087    1.1212    0.6192 C.ar    1  LIG1        0.1458
     11 C           2.9012    1.1474    0.6314 C.ar    1  LIG1        0.0181
     12 C           3.5994   -0.0539    0.5205 C.ar    1  LIG1       -0.0476
     13 C           2.8991   -1.2579    0.3976 C.ar    1  LIG1       -0.0189
     14 C           1.4966   -1.2784    0.3968 C.ar    1  LIG1        0.1269
     15 O           0.7645   -2.4289    0.2463 O.3     1  LIG1       -0.4947
     16 C           1.3476   -3.6128    0.7886 C.3     1  LIG1        0.0788
     17 C           3.5985    2.4164    0.7642 C.ar    1  LIG1       -0.0443
     18 C           2.8937    3.5473    0.8784 C.ar    1  LIG1        0.0236
     19 C           1.4251    3.5576    0.8716 C.ar    1  LIG1        0.3372
     20 O           0.8062    4.6163    0.9843 O.2     1  LIG1       -0.2452
     21 O           0.7869    2.3343    0.7237 O.2     1  LIG1       -0.4218
     22 H          -1.0693   -0.9084    1.1349 H       1  LIG1        0.0341
     23 H          -1.0822    0.8320    1.0809 H       1  LIG1        0.0341
     24 H          -3.3280   -1.0220   -2.7566 H       1  LIG1        0.0258
     25 H          -3.2884    0.7551   -2.7741 H       1  LIG1        0.0258
     26 H          -4.6930   -0.0665   -2.1346 H       1  LIG1        0.0258
     27 H          -3.1917   -2.2711   -0.4639 H       1  LIG1        0.0258
     28 H          -4.6052   -1.3104    0.0258 H       1  LIG1        0.0258
     29 H          -3.1856   -1.3099    1.0347 H       1  LIG1        0.0258
     30 H          -3.1100    1.8081   -0.6488 H       1  LIG1        0.2102
     31 H          -0.0826    1.0994   -1.6706 H       1  LIG1        0.2099
     32 H           4.6865   -0.0704    0.5204 H       1  LIG1        0.0626
     33 H           3.4824   -2.1667    0.2867 H       1  LIG1        0.0654
     34 H           0.6312   -4.4292    0.6553 H       1  LIG1        0.0660
     35 H           1.5357   -3.4995    1.8618 H       1  LIG1        0.0660
     36 H           2.2606   -3.9017    0.2591 H       1  LIG1        0.0660
     37 H           4.6822    2.4321    0.7722 H       1  LIG1        0.0627
     38 H           3.3735    4.5126    0.9820 H       1  LIG1        0.0689
@<TRIPOS>BOND
     1     1     2    1
     2     2     3    1
     3     2     4    1
     4     4     5    1
     5     4     6    1
     6     4     7    1
     7     2     8    1
     8     1     9    1
     9     9    10   ar
    10    10    11   ar
    11    11    12   ar
    12    12    13   ar
    13    13    14   ar
    14     9    14   ar
    15    14    15    1
    16    15    16    1
    17    11    17   ar
    18    17    18   ar
    19    18    19   ar
    20    19    20    2
    21    19    21   ar
    22    10    21   ar
    23     1    22    1
    24     1    23    1
    25     5    24    1
    26     5    25    1
    27     5    26    1
    28     6    27    1
    29     6    28    1
    30     6    29    1
    31     7    30    1
    32     8    31    1
    33    12    32    1
    34    13    33    1
    35    16    34    1
    36    16    35    1
    37    16    36    1
    38    17    37    1
    39    18    38    1
