REMARK  Name = NuBBE_1516
REMARK  7 active torsions:
REMARK  status: ('A' for Active; 'I' for Inactive)
REMARK    1  A    between atoms: C_1  and  C_2
REMARK    2  A    between atoms: C_9  and  C_12
REMARK    3  A    between atoms: C_13  and  C_18
REMARK    4  A    between atoms: C_18  and  C_19
REMARK    5  A    between atoms: C_24  and  O_26
REMARK    6  A    between atoms: C_27  and  O_33
REMARK    7  A    between atoms: C_29  and  O_32
REMARK                            x       y       z     vdW  Elec       q    Type
REMARK                         _______ _______ _______ _____ _____    ______ ____
ROOT
ATOM      1  C   LIG A   1      -2.906  -1.775  -0.890  0.00  0.00    +0.012 C 
ATOM      2  C   LIG A   1      -1.346  -1.756  -0.723  0.00  0.00    -0.021 C 
ATOM      3  C   LIG A   1      -0.855  -0.295  -1.067  0.00  0.00    -0.001 C 
ATOM      4  C   LIG A   1      -1.527   0.778  -0.169  0.00  0.00    -0.003 C 
ATOM      5  C   LIG A   1      -1.035   2.230  -0.486  0.00  0.00    +0.006 C 
ATOM      6  C   LIG A   1       0.492   2.411  -0.688  0.00  0.00    -0.019 C 
ATOM      7  C   LIG A   1       1.108   1.261  -1.496  0.00  0.00    +0.008 C 
ATOM      8  C   LIG A   1       0.673  -0.135  -1.076  0.00  0.00    +0.005 C 
ATOM      9  C   LIG A   1       0.776   3.715  -1.486  0.00  0.00    +0.012 C 
ATOM     10  C   LIG A   1       1.018   2.519   0.772  0.00  0.00    +0.061 C 
ATOM     11  C   LIG A   1      -0.117   3.315   1.415  0.00  0.00    +0.137 C 
ATOM     12  O   LIG A   1      -0.032   3.924   2.474  0.00  0.00    -0.297 OA
ATOM     13  C   LIG A   1      -1.387   3.266   0.593  0.00  0.00    +0.079 C 
ATOM     14  C   LIG A   1      -1.636   0.348   1.313  0.00  0.00    +0.004 C 
ATOM     15  C   LIG A   1      -0.869  -0.906   1.700  0.00  0.00    +0.007 C 
ATOM     16  C   LIG A   1      -1.044  -2.128   0.767  0.00  0.00    +0.026 C 
ATOM     17  C   LIG A   1       0.151  -3.071   0.993  0.00  0.00    +0.149 C 
ATOM     18  C   LIG A   1       0.153  -4.253   0.031  0.00  0.00    +0.172 C 
ATOM     19  C   LIG A   1       0.278  -3.763  -1.403  0.00  0.00    +0.146 C 
ATOM     20  C   LIG A   1      -0.842  -2.801  -1.788  0.00  0.00    +0.041 C 
ENDROOT
BRANCH  10  21
ATOM     21  C   LIG A   1       2.390   3.175   0.938  0.00  0.00    +0.008 C 
ATOM     22  C   LIG A   1       3.012   2.881   2.298  0.00  0.00    +0.004 C 
ENDBRANCH  10  21
BRANCH  17  23
ATOM     23  O   LIG A   1       0.097  -3.581   2.335  0.00  0.00    -0.389 OA
ATOM     24  H   LIG A   1       0.700  -4.352   2.342  0.00  0.00    +0.210 HD
ENDBRANCH  17  23
BRANCH  19  25
ATOM     25  O   LIG A   1       1.567  -3.163  -1.569  0.00  0.00    -0.389 OA
ATOM     26  H   LIG A   1       1.675  -2.974  -2.519  0.00  0.00    +0.210 HD
ENDBRANCH  19  25
BRANCH  18  27
ATOM     27  O   LIG A   1       1.283  -5.086   0.349  0.00  0.00    -0.387 OA
ATOM     28  H   LIG A   1       2.051  -4.633  -0.058  0.00  0.00    +0.210 HD
ENDBRANCH  18  27
TORSDOF 4
