@<TRIPOS>MOLECULE
NuBBE_456
 58 58 0 0 0
SMALL
GASTEIGER

@<TRIPOS>ATOM
      1 O           4.4454    2.5954    0.2122 O.3     1  LIG1       -0.3903
      2 C           3.1272    2.0226    0.0513 C.3     1  LIG1        0.0703
      3 H           3.2874    0.9315   -0.0112 H       1  LIG1        0.0609
      4 C           2.2281    2.3143    1.2746 C.3     1  LIG1        0.0310
      5 H           1.4318    1.5924    1.2912 H       1  LIG1        0.0483
      6 C           2.9731    2.0717    2.5819 C.3     1  LIG1       -0.0473
      7 N           1.6121    3.6424    1.2584 N.3     1  LIG1       -0.3083
      8 H           1.0206    3.7753    2.0754 H       1  LIG1        0.1225
      9 C           0.8299    3.8986    0.0372 C.3     1  LIG1        0.0080
     10 H           0.5799    4.9503    0.0972 H       1  LIG1        0.0460
     11 C          -0.5660    3.2119   -0.0953 C.3     1  LIG1       -0.0375
     12 C          -0.7288    1.6882   -0.1508 C.3     1  LIG1       -0.0516
     13 C          -0.3334    1.0461   -1.4706 C.3     1  LIG1       -0.0530
     14 C           0.0348   -0.4420   -1.4683 C.3     1  LIG1       -0.0531
     15 C           0.9725   -1.0900   -0.4315 C.3     1  LIG1       -0.0531
     16 C           0.5689   -1.1506    1.0465 C.3     1  LIG1       -0.0531
     17 C          -0.8235   -1.7045    1.3070 C.3     1  LIG1       -0.0531
     18 C          -0.8772   -3.1705    0.8910 C.3     1  LIG1       -0.0530
     19 C          -2.2119   -3.8348    1.1882 C.3     1  LIG1       -0.0507
     20 C          -3.4291   -3.1965    0.5035 C.3     1  LIG1       -0.0271
     21 C          -3.4339   -3.1850   -1.0324 C.3     1  LIG1        0.0524
     22 O          -2.4444   -2.3117   -1.5172 O.3     1  LIG1       -0.3921
     23 C          -3.2274   -4.5529   -1.6566 C.3     1  LIG1       -0.0389
     24 C           1.7721    3.8004   -1.1823 C.3     1  LIG1       -0.0352
     25 C           2.5925    2.5112   -1.2760 C.3     1  LIG1       -0.0240
     26 H           4.2455    3.5348    0.3849 H       1  LIG1        0.2098
     27 H           3.3594    1.0477    2.5948 H       1  LIG1        0.0245
     28 H           2.3117    2.1919    3.4488 H       1  LIG1        0.0245
     29 H           3.8170    2.7598    2.6955 H       1  LIG1        0.0245
     30 H          -1.0787    3.6429   -0.9670 H       1  LIG1        0.0280
     31 H          -1.1548    3.5470    0.7790 H       1  LIG1        0.0280
     32 H          -1.7903    1.4438    0.0198 H       1  LIG1        0.0266
     33 H          -0.2477    1.2513    0.7040 H       1  LIG1        0.0266
     34 H           0.4293    1.5915   -1.9787 H       1  LIG1        0.0265
     35 H          -1.1580    1.2061   -2.1956 H       1  LIG1        0.0265
     36 H           0.4824   -0.6549   -2.4467 H       1  LIG1        0.0265
     37 H          -0.8932   -0.9744   -1.4645 H       1  LIG1        0.0265
     38 H           1.9614   -0.6318   -0.5068 H       1  LIG1        0.0265
     39 H           1.1346   -2.1237   -0.7599 H       1  LIG1        0.0265
     40 H           0.6478   -0.1840    1.5381 H       1  LIG1        0.0265
     41 H           1.3016   -1.7643    1.5816 H       1  LIG1        0.0265
     42 H          -1.5732   -1.0991    0.7849 H       1  LIG1        0.0265
     43 H          -1.0515   -1.6150    2.3763 H       1  LIG1        0.0265
     44 H          -0.0855   -3.7122    1.4234 H       1  LIG1        0.0265
     45 H          -0.6461   -3.2778   -0.1718 H       1  LIG1        0.0265
     46 H          -2.3727   -3.8214    2.2736 H       1  LIG1        0.0266
     47 H          -2.1378   -4.8915    0.9082 H       1  LIG1        0.0266
     48 H          -3.5330   -2.1671    0.8680 H       1  LIG1        0.0290
     49 H          -4.3198   -3.7364    0.8434 H       1  LIG1        0.0290
     50 H          -4.3876   -2.7672   -1.3704 H       1  LIG1        0.0590
     51 H          -2.2940   -2.4727   -2.4647 H       1  LIG1        0.2098
     52 H          -2.2439   -4.9654   -1.4073 H       1  LIG1        0.0254
     53 H          -3.2510   -4.4744   -2.7494 H       1  LIG1        0.0254
     54 H          -4.0054   -5.2461   -1.3335 H       1  LIG1        0.0254
     55 H           2.4818    4.6407   -1.1176 H       1  LIG1        0.0281
     56 H           1.2035    3.9818   -2.1049 H       1  LIG1        0.0281
     57 H           3.3793    2.6615   -2.0271 H       1  LIG1        0.0291
     58 H           2.0679    1.6647   -1.6819 H       1  LIG1        0.0291
@<TRIPOS>BOND
     1     1     2    1
     2     2     3    1
     3     2     4    1
     4     4     5    1
     5     4     6    1
     6     4     7    1
     7     7     8    1
     8     7     9    1
     9     9    10    1
    10     9    11    1
    11    11    12    1
    12    12    13    1
    13    13    14    1
    14    14    15    1
    15    15    16    1
    16    16    17    1
    17    17    18    1
    18    18    19    1
    19    19    20    1
    20    20    21    1
    21    21    22    1
    22    21    23    1
    23     9    24    1
    24    24    25    1
    25     2    25    1
    26     1    26    1
    27     6    27    1
    28     6    28    1
    29     6    29    1
    30    11    30    1
    31    11    31    1
    32    12    32    1
    33    12    33    1
    34    13    34    1
    35    13    35    1
    36    14    36    1
    37    14    37    1
    38    15    38    1
    39    15    39    1
    40    16    40    1
    41    16    41    1
    42    17    42    1
    43    17    43    1
    44    18    44    1
    45    18    45    1
    46    19    46    1
    47    19    47    1
    48    20    48    1
    49    20    49    1
    50    21    50    1
    51    22    51    1
    52    23    52    1
    53    23    53    1
    54    23    54    1
    55    24    55    1
    56    24    56    1
    57    25    57    1
    58    25    58    1
