@<TRIPOS>MOLECULE
NuBBE_1244
 68 72 0 0 0
SMALL
GASTEIGER

@<TRIPOS>ATOM
      1 O          -0.1516   -1.9365   -1.3585 O.3     1  LIG1       -0.5058
      2 C           0.2858   -1.1299   -0.3326 C.ar    1  LIG1        0.1353
      3 C           0.1403    0.2678   -0.5213 C.ar    1  LIG1        0.0685
      4 C           0.6938    1.1144    0.4601 C.ar    1  LIG1        0.1520
      5 C           1.3656    0.5672    1.5597 C.ar    1  LIG1        0.1062
      6 C           1.4580   -0.8233    1.7356 C.ar    1  LIG1        0.1404
      7 C           0.8914   -1.7054    0.8065 C.ar    1  LIG1        0.0677
      8 C           0.8997   -3.2109    1.0888 C.3     1  LIG1        0.1193
      9 H           1.8236   -3.4711    1.6206 H       1  LIG1        0.0676
     10 O           0.9404   -3.9010   -0.1862 O.3     1  LIG1       -0.3609
     11 C           0.9380   -5.3301   -0.0614 C.3     1  LIG1        0.1108
     12 H           1.8126   -5.6536    0.5189 H       1  LIG1        0.0646
     13 C           1.0624   -5.9267   -1.4702 C.3     1  LIG1        0.0729
     14 O           1.0590   -7.3500   -1.4377 O.3     1  LIG1       -0.3924
     15 C          -0.3468   -5.8102    0.6312 C.3     1  LIG1        0.1117
     16 H          -1.2336   -5.5271    0.0503 H       1  LIG1        0.0647
     17 C          -0.4249   -5.1680    2.0121 C.3     1  LIG1        0.1121
     18 H           0.3692   -5.5580    2.6622 H       1  LIG1        0.0647
     19 C          -0.3396   -3.6409    1.9225 C.3     1  LIG1        0.1139
     20 H          -1.2598   -3.2564    1.4655 H       1  LIG1        0.0649
     21 O          -0.3027   -3.1321    3.2621 O.3     1  LIG1       -0.3862
     22 O          -1.6581   -5.5393    2.6513 O.3     1  LIG1       -0.3865
     23 O          -0.3893   -7.2302    0.8083 O.3     1  LIG1       -0.3865
     24 O           2.1342   -1.3693    2.7987 O.3     1  LIG1       -0.5054
     25 C           2.0068    1.4803    2.5192 C.ar    1  LIG1        0.1966
     26 O           2.5816    1.0634    3.5132 O.2     1  LIG1       -0.2869
     27 C           1.9546    2.9147    2.2226 C.ar    1  LIG1        0.0288
     28 C           1.2520    3.3353    1.1640 C.ar    1  LIG1        0.1392
     29 O           0.5746    2.4794    0.3072 O.2     1  LIG1       -0.4540
     30 C           1.1535    4.7759    0.8175 C.ar    1  LIG1        0.0176
     31 C           0.9949    5.1860   -0.5175 C.ar    1  LIG1       -0.0476
     32 C           0.8923    6.5433   -0.8533 C.ar    1  LIG1       -0.0195
     33 C           0.9469    7.5033    0.1495 C.ar    1  LIG1        0.1169
     34 C           1.0973    7.1287    1.4758 C.ar    1  LIG1       -0.0195
     35 C           1.1965    5.7743    1.8077 C.ar    1  LIG1       -0.0476
     36 O           0.8560    8.8348   -0.1256 O.3     1  LIG1       -0.5068
     37 C          -0.5575    0.7590   -1.7967 C.3     1  LIG1        0.1189
     38 H          -0.0126    0.3047   -2.6357 H       1  LIG1        0.0675
     39 C          -2.0608    0.3380   -1.8621 C.3     1  LIG1        0.1139
     40 H          -2.3074   -0.4198   -1.1106 H       1  LIG1        0.0649
     41 O          -2.3463   -0.2467   -3.1469 O.3     1  LIG1       -0.3862
     42 C          -2.9746    1.5529   -1.6701 C.3     1  LIG1        0.1117
     43 H          -4.0277    1.2585   -1.7475 H       1  LIG1        0.0647
     44 O          -2.8022    2.1248   -0.3592 O.3     1  LIG1       -0.3865
     45 C          -2.6883    2.6256   -2.7334 C.3     1  LIG1        0.1068
     46 H          -3.2351    2.4197   -3.6602 H       1  LIG1        0.0643
     47 C          -1.1917    2.6965   -3.0576 C.3     1  LIG1        0.0770
     48 O          -0.4070    2.1810   -1.9769 O.3     1  LIG1       -0.3664
     49 O          -3.1499    3.9011   -2.2593 O.3     1  LIG1       -0.3869
     50 H           0.3541   -2.7743   -1.2681 H       1  LIG1        0.2922
     51 H           1.9777   -5.5789   -1.9618 H       1  LIG1        0.0584
     52 H           0.2259   -5.5966   -2.0963 H       1  LIG1        0.0584
     53 H           1.9494   -7.6367   -1.1592 H       1  LIG1        0.2095
     54 H          -1.0094   -3.6063    3.7446 H       1  LIG1        0.2100
     55 H          -1.7341   -6.5059    2.5081 H       1  LIG1        0.2100
     56 H          -0.2136   -7.6294   -0.0724 H       1  LIG1        0.2100
     57 H           2.4164   -0.6444    3.4031 H       1  LIG1        0.2922
     58 H           2.5040    3.5596    2.8948 H       1  LIG1        0.0693
     59 H           0.9568    4.4508   -1.3194 H       1  LIG1        0.0626
     60 H           0.7696    6.8248   -1.8946 H       1  LIG1        0.0654
     61 H           1.1335    7.8857    2.2544 H       1  LIG1        0.0654
     62 H           1.2985    5.5202    2.8596 H       1  LIG1        0.0626
     63 H           0.7679    8.9494   -1.0859 H       1  LIG1        0.2921
     64 H          -1.8794   -1.1040   -3.1648 H       1  LIG1        0.2100
     65 H          -1.8753    2.4388   -0.3060 H       1  LIG1        0.2100
     66 H          -0.8808    3.7334   -3.2214 H       1  LIG1        0.0587
     67 H          -0.9549    2.1283   -3.9642 H       1  LIG1        0.0587
     68 H          -3.3198    3.7911   -1.3010 H       1  LIG1        0.2100
@<TRIPOS>BOND
     1     1     2    1
     2     2     3   ar
     3     3     4   ar
     4     4     5   ar
     5     5     6   ar
     6     6     7   ar
     7     2     7   ar
     8     7     8    1
     9     8     9    1
    10     8    10    1
    11    10    11    1
    12    11    12    1
    13    11    13    1
    14    13    14    1
    15    11    15    1
    16    15    17    1
    17    17    18    1
    18    17    19    1
    19     8    19    1
    20    17    22    1
    21     6    24    1
    22     5    25   ar
    23    25    26    2
    24    25    27   ar
    25    27    28   ar
    26    28    29   ar
    27     4    29   ar
    28    28    30    1
    29    30    31   ar
    30    31    32   ar
    31    32    33   ar
    32    33    34   ar
    33    34    35   ar
    34    30    35   ar
    35    33    36    1
    36    37    39    1
    37    39    42    1
    38    42    45    1
    39    45    47    1
    40    47    48    1
    41    37    48    1
    42    15    23    1
    43    15    16    1
    44    19    21    1
    45    19    20    1
    46    37    38    1
    47    37     3    1
    48    39    41    1
    49    39    40    1
    50    42    44    1
    51    42    43    1
    52    45    49    1
    53    45    46    1
    54     1    50    1
    55    13    51    1
    56    13    52    1
    57    14    53    1
    58    21    54    1
    59    22    55    1
    60    23    56    1
    61    24    57    1
    62    27    58    1
    63    31    59    1
    64    32    60    1
    65    34    61    1
    66    35    62    1
    67    36    63    1
    68    41    64    1
    69    44    65    1
    70    47    66    1
    71    47    67    1
    72    49    68    1
