REMARK  Name = NuBBE_292
REMARK  5 active torsions:
REMARK  status: ('A' for Active; 'I' for Inactive)
REMARK    1  A    between atoms: O_1  and  C_2
REMARK    2  A    between atoms: C_4  and  O_5
REMARK    3  A    between atoms: C_9  and  C_10
REMARK    4  A    between atoms: C_13  and  O_14
REMARK    5  A    between atoms: O_14  and  C_15
REMARK                            x       y       z     vdW  Elec       q    Type
REMARK                         _______ _______ _______ _____ _____    ______ ____
ROOT
ATOM      1  C   LIG A   1      -3.851  -2.417   0.536  0.00  0.00    +0.124 A 
ATOM      2  C   LIG A   1      -3.287  -3.676   0.710  0.00  0.00    +0.091 A 
ATOM      3  C   LIG A   1      -1.894  -3.808   0.715  0.00  0.00    +0.134 A 
ATOM      4  C   LIG A   1      -1.070  -2.683   0.557  0.00  0.00    +0.101 A 
ATOM      5  C   LIG A   1       0.414  -2.759   0.505  0.00  0.00    +0.174 C 
ATOM      6  C   LIG A   1       1.119  -1.514   0.039  0.00  0.00    +0.129 C 
ATOM      7  C   LIG A   1       0.408  -0.316   0.642  0.00  0.00    +0.211 C 
ATOM      8  O   LIG A   1      -0.960  -0.261   0.211  0.00  0.00    -0.483 OA
ATOM      9  O   LIG A   1       1.045  -3.773   0.776  0.00  0.00    -0.292 OA
ATOM     10  C   LIG A   1      -1.659  -1.424   0.395  0.00  0.00    +0.139 A 
ATOM     11  C   LIG A   1      -3.049  -1.294   0.374  0.00  0.00    +0.092 A 
ENDROOT
BRANCH   7  12
ATOM     12  C   LIG A   1       1.093   0.980   0.235  0.00  0.00    -0.007 A 
ATOM     13  C   LIG A   1       2.107   1.525   1.034  0.00  0.00    +0.011 A 
ATOM     14  C   LIG A   1       2.732   2.723   0.670  0.00  0.00    +0.046 A 
ATOM     15  C   LIG A   1       2.362   3.398  -0.495  0.00  0.00    +0.120 A 
ATOM     16  C   LIG A   1       1.369   2.853  -1.307  0.00  0.00    +0.046 A 
ATOM     17  C   LIG A   1       0.745   1.653  -0.947  0.00  0.00    +0.011 A 
BRANCH  15  18
ATOM     18  O   LIG A   1       3.037   4.566  -0.725  0.00  0.00    -0.495 OA
ATOM     19  C   LIG A   1       2.661   5.307  -1.880  0.00  0.00    +0.277 C 
ENDBRANCH  15  18
ENDBRANCH   7  12
BRANCH   1  20
ATOM     20  O   LIG A   1      -5.202  -2.236   0.514  0.00  0.00    -0.506 OA
ATOM     21  H   LIG A   1      -5.646  -3.092   0.632  0.00  0.00    +0.292 HD
ENDBRANCH   1  20
BRANCH   3  22
ATOM     22  O   LIG A   1      -1.356  -5.055   0.852  0.00  0.00    -0.506 OA
ATOM     23  H   LIG A   1      -2.051  -5.726   0.936  0.00  0.00    +0.292 HD
ENDBRANCH   3  22
TORSDOF 4
