REMARK  Name = NuBBE_2054
REMARK  5 active torsions:
REMARK  status: ('A' for Active; 'I' for Inactive)
REMARK    1  A    between atoms: C_6  and  O_7
REMARK    2  A    between atoms: O_7  and  C_8
REMARK    3  A    between atoms: C_8  and  C_9
REMARK    4  A    between atoms: C_10  and  C_11
REMARK    5  A    between atoms: C_10  and  C_12
REMARK                            x       y       z     vdW  Elec       q    Type
REMARK                         _______ _______ _______ _____ _____    ______ ____
ROOT
ATOM      1  O   LIG A   1      -6.543   1.510  -0.398  0.00  0.00    -0.245 OA
ATOM      2  C   LIG A   1      -5.330   1.694  -0.371  0.00  0.00    +0.337 A 
ATOM      3  O   LIG A   1      -4.417   0.647  -0.386  0.00  0.00    -0.422 OA
ATOM      4  C   LIG A   1      -3.028   0.887  -0.348  0.00  0.00    +0.146 A 
ATOM      5  C   LIG A   1      -2.178  -0.229  -0.340  0.00  0.00    +0.096 A 
ATOM      6  C   LIG A   1      -0.787  -0.059  -0.294  0.00  0.00    +0.170 A 
ATOM      7  C   LIG A   1      -0.305   1.241  -0.274  0.00  0.00    +0.208 A 
ATOM      8  C   LIG A   1      -1.160   2.331  -0.283  0.00  0.00    +0.180 A 
ATOM      9  O   LIG A   1      -0.491   3.520  -0.253  0.00  0.00    -0.452 OA
ATOM     10  C   LIG A   1       0.873   3.071  -0.221  0.00  0.00    +0.467 C 
ATOM     11  O   LIG A   1       1.000   1.639  -0.238  0.00  0.00    -0.449 OA
ATOM     12  C   LIG A   1      -2.535   2.188  -0.314  0.00  0.00    +0.063 A 
ATOM     13  C   LIG A   1      -3.465   3.303  -0.297  0.00  0.00    +0.022 A 
ATOM     14  C   LIG A   1      -4.779   3.061  -0.319  0.00  0.00    +0.093 A 
ENDROOT
BRANCH   6  15
ATOM     15  O   LIG A   1      -0.077  -1.224  -0.270  0.00  0.00    -0.484 OA
BRANCH  15  16
ATOM     16  C   LIG A   1       1.348  -1.133  -0.183  0.00  0.00    +0.257 C 
BRANCH  16  17
ATOM     17  C   LIG A   1       1.886  -2.538  -0.150  0.00  0.00    +0.012 C 
ATOM     18  C   LIG A   1       3.025  -2.957   0.437  0.00  0.00    -0.076 C 
ATOM     19  C   LIG A   1       4.017  -2.055   1.119  0.00  0.00    +0.038 C 
ATOM     20  C   LIG A   1       3.400  -4.415   0.443  0.00  0.00    +0.038 C 
ENDBRANCH  16  17
ENDBRANCH  15  16
ENDBRANCH   6  15
TORSDOF 3
