@<TRIPOS>MOLECULE
NuBBE_1753
 24 24 0 0 0
SMALL
GASTEIGER

@<TRIPOS>ATOM
      1 O          -2.6717   -0.8645    0.1673 O.3     1  LIG1       -0.4915
      2 C          -3.3042   -2.1307    0.2844 C.3     1  LIG1        0.0790
      3 C          -1.3295   -0.8347   -0.1034 C.ar    1  LIG1        0.1615
      4 C          -0.8135    0.4697   -0.1734 C.ar    1  LIG1       -0.0128
      5 C           0.5432    0.7154   -0.4405 C.ar    1  LIG1       -0.0400
      6 C           1.0685    2.1302   -0.5250 C.3     1  LIG1       -0.0096
      7 C           1.5138    2.6884    0.8030 C.2     1  LIG1       -0.0868
      8 C           2.7407    3.1619    1.0510 C.2     1  LIG1       -0.1023
      9 C           1.3942   -0.3780   -0.6312 C.ar    1  LIG1       -0.0546
     10 C           0.8958   -1.6817   -0.5685 C.ar    1  LIG1       -0.0163
     11 C          -0.4597   -1.9107   -0.3080 C.ar    1  LIG1        0.1585
     12 O          -0.8979   -3.2059   -0.2661 O.3     1  LIG1       -0.5033
     13 H          -4.3392   -1.9563    0.5956 H       1  LIG1        0.0660
     14 H          -2.8415   -2.7452    1.0628 H       1  LIG1        0.0660
     15 H          -3.3357   -2.6438   -0.6822 H       1  LIG1        0.0660
     16 H          -1.4930    1.3071   -0.0236 H       1  LIG1        0.0658
     17 H           0.2847    2.7799   -0.9319 H       1  LIG1        0.0355
     18 H           1.8893    2.1659   -1.2504 H       1  LIG1        0.0355
     19 H           0.7620    2.7281    1.5940 H       1  LIG1        0.0570
     20 H           3.5166    3.1631    0.2931 H       1  LIG1        0.0532
     21 H           2.9905    3.5747    2.0251 H       1  LIG1        0.0532
     22 H           2.4501   -0.2216   -0.8408 H       1  LIG1        0.0622
     23 H           1.5806   -2.5091   -0.7301 H       1  LIG1        0.0655
     24 H          -0.1441   -3.8021   -0.4012 H       1  LIG1        0.2923
@<TRIPOS>BOND
     1     1     2    1
     2     1     3    1
     3     3     4   ar
     4     4     5   ar
     5     5     6    1
     6     6     7    1
     7     7     8    2
     8     5     9   ar
     9     9    10   ar
    10    10    11   ar
    11     3    11   ar
    12    11    12    1
    13     2    13    1
    14     2    14    1
    15     2    15    1
    16     4    16    1
    17     6    17    1
    18     6    18    1
    19     7    19    1
    20     8    20    1
    21     8    21    1
    22     9    22    1
    23    10    23    1
    24    12    24    1
