@<TRIPOS>MOLECULE
NuBBE_1563
 59 62 0 0 0
SMALL
GASTEIGER

@<TRIPOS>ATOM
      1 C          -3.6414   -3.1608   -3.0683 C.3     1  LIG1       -0.0653
      2 C          -4.4159   -2.9065   -1.7836 C.3     1  LIG1       -0.0559
      3 C          -4.2842   -1.4703   -1.2676 C.3     1  LIG1       -0.0533
      4 C          -5.0568   -1.3077    0.0452 C.3     1  LIG1       -0.0531
      5 C          -5.1243    0.0984    0.6602 C.3     1  LIG1       -0.0531
      6 C          -3.8463    0.7336    1.2462 C.3     1  LIG1       -0.0531
      7 C          -2.7253    1.0687    0.2506 C.3     1  LIG1       -0.0531
      8 C          -1.4892    1.7177    0.9119 C.3     1  LIG1       -0.0529
      9 C          -0.3523    1.9706   -0.0956 C.3     1  LIG1       -0.0494
     10 C           0.9194    2.6426    0.4744 C.3     1  LIG1       -0.0113
     11 C           1.7125    1.9348    1.6168 C.3     1  LIG1        0.1322
     12 C           2.2637    0.6088    1.1824 C.ar    1  LIG1        0.0828
     13 C           3.4730    0.5077    0.6004 C.ar    1  LIG1        0.1494
     14 C           4.3333    1.6823    0.6178 C.ar    1  LIG1        0.0594
     15 C           5.5457    1.7148   -0.0861 C.ar    1  LIG1       -0.0475
     16 C           6.3628    2.8419   -0.0306 C.ar    1  LIG1       -0.0609
     17 C           6.0144    3.9104    0.7932 C.ar    1  LIG1       -0.0583
     18 C           4.8287    3.8685    1.5342 C.ar    1  LIG1       -0.0192
     19 C           3.9631    2.7808    1.4034 C.ar    1  LIG1        0.1320
     20 O           2.7624    2.8420    2.0740 O.3     1  LIG1       -0.4833
     21 O           3.9581   -0.6139   -0.0252 O.2     1  LIG1       -0.4541
     22 C           3.0858   -1.6493   -0.2106 C.ar    1  LIG1        0.1393
     23 C           3.3920   -2.5937   -1.1854 C.ar    1  LIG1       -0.0186
     24 C           2.5677   -3.7066   -1.3464 C.ar    1  LIG1       -0.0582
     25 C           1.4672   -3.8917   -0.5029 C.ar    1  LIG1       -0.0609
     26 C           1.1416   -2.9277    0.4498 C.ar    1  LIG1       -0.0474
     27 C           1.9274   -1.7807    0.5593 C.ar    1  LIG1        0.0644
     28 C           1.5271   -0.6438    1.3901 C.ar    1  LIG1        0.1998
     29 O           0.5859   -0.7318    2.2014 O.2     1  LIG1       -0.2866
     30 H          -3.4173   -4.2296   -3.1567 H       1  LIG1        0.0230
     31 H          -2.6932   -2.6149   -3.0984 H       1  LIG1        0.0230
     32 H          -4.2344   -2.8742   -3.9424 H       1  LIG1        0.0230
     33 H          -4.0352   -3.5850   -1.0110 H       1  LIG1        0.0263
     34 H          -5.4702   -3.1567   -1.9439 H       1  LIG1        0.0263
     35 H          -4.6347   -0.7503   -2.0161 H       1  LIG1        0.0265
     36 H          -3.2217   -1.2970   -1.1070 H       1  LIG1        0.0265
     37 H          -4.6705   -2.0146    0.7892 H       1  LIG1        0.0265
     38 H          -6.0946   -1.6152   -0.1509 H       1  LIG1        0.0265
     39 H          -5.8345    0.0172    1.4982 H       1  LIG1        0.0265
     40 H          -5.5916    0.7889   -0.0510 H       1  LIG1        0.0265
     41 H          -3.4599    0.0956    2.0498 H       1  LIG1        0.0265
     42 H          -4.1576    1.6719    1.7276 H       1  LIG1        0.0265
     43 H          -3.1252    1.7201   -0.5356 H       1  LIG1        0.0265
     44 H          -2.3712    0.1567   -0.2222 H       1  LIG1        0.0265
     45 H          -1.1302    1.0504    1.6993 H       1  LIG1        0.0265
     46 H          -1.7800    2.6611    1.3849 H       1  LIG1        0.0265
     47 H          -0.7419    2.6316   -0.8838 H       1  LIG1        0.0267
     48 H          -0.0813    1.0366   -0.6030 H       1  LIG1        0.0267
     49 H           0.6626    3.6577    0.8032 H       1  LIG1        0.0304
     50 H           1.6028    2.8001   -0.3747 H       1  LIG1        0.0304
     51 H           1.0497    1.8144    2.4828 H       1  LIG1        0.0787
     52 H           5.8571    0.8673   -0.6915 H       1  LIG1        0.0626
     53 H           7.2699    2.8796   -0.6290 H       1  LIG1        0.0618
     54 H           6.6620    4.7823    0.8459 H       1  LIG1        0.0619
     55 H           4.5750    4.6969    2.1901 H       1  LIG1        0.0654
     56 H           4.2573   -2.4537   -1.8283 H       1  LIG1        0.0654
     57 H           2.7893   -4.4370   -2.1204 H       1  LIG1        0.0619
     58 H           0.8514   -4.7822   -0.6050 H       1  LIG1        0.0618
     59 H           0.2721   -3.0567    1.0910 H       1  LIG1        0.0626
@<TRIPOS>BOND
     1     1     2    1
     2     2     3    1
     3     3     4    1
     4     4     5    1
     5     5     6    1
     6     6     7    1
     7     7     8    1
     8     8     9    1
     9     9    10    1
    10    10    11    1
    11    11    12    1
    12    12    13   ar
    13    13    14    1
    14    14    15   ar
    15    15    16   ar
    16    16    17   ar
    17    17    18   ar
    18    18    19   ar
    19    14    19   ar
    20    19    20    1
    21    11    20    1
    22    13    21   ar
    23    21    22   ar
    24    22    23   ar
    25    23    24   ar
    26    24    25   ar
    27    25    26   ar
    28    26    27   ar
    29    22    27   ar
    30    12    28   ar
    31    27    28   ar
    32    28    29    2
    33     1    30    1
    34     1    31    1
    35     1    32    1
    36     2    33    1
    37     2    34    1
    38     3    35    1
    39     3    36    1
    40     4    37    1
    41     4    38    1
    42     5    39    1
    43     5    40    1
    44     6    41    1
    45     6    42    1
    46     7    43    1
    47     7    44    1
    48     8    45    1
    49     8    46    1
    50     9    47    1
    51     9    48    1
    52    10    49    1
    53    10    50    1
    54    11    51    1
    55    15    52    1
    56    16    53    1
    57    17    54    1
    58    18    55    1
    59    23    56    1
    60    24    57    1
    61    25    58    1
    62    26    59    1
