@<TRIPOS>MOLECULE
NuBBE_1733
 39 39 0 0 0
SMALL
GASTEIGER

@<TRIPOS>ATOM
      1 C          -2.0325   -0.6271    1.5151 C.2     1  LIG1       -0.0762
      2 C          -1.5079    0.2789    0.6475 C.2     1  LIG1       -0.0668
      3 C          -1.6314    0.1568   -0.8645 C.3     1  LIG1       -0.0275
      4 C          -0.7049   -0.8533   -1.5915 C.3     1  LIG1       -0.0283
      5 C           0.6959   -1.1987   -1.0858 C.2     1  LIG1       -0.0762
      6 C           1.8367   -1.0219   -1.7939 C.2     1  LIG1       -0.0847
      7 C           2.6753    0.2557   -1.8651 C.3     1  LIG1       -0.0308
      8 C           2.7730    1.1380   -0.5948 C.3     1  LIG1       -0.0286
      9 C           1.4703    1.7968   -0.2064 C.2     1  LIG1       -0.0759
     10 C           0.7553    1.2894    0.7984 C.2     1  LIG1       -0.0810
     11 C          -0.7078    1.5154    1.0696 C.3     1  LIG1       -0.0130
     12 C           1.0222    2.9426   -1.0776 C.3     1  LIG1       -0.0438
     13 C           0.7492   -2.1515    0.0814 C.3     1  LIG1       -0.0438
     14 C          -2.8771   -1.8162    1.1044 C.3     1  LIG1       -0.0438
     15 C          -1.7653   -0.6293    3.0021 C.3     1  LIG1       -0.0438
     16 H          -1.4883    1.1416   -1.3249 H       1  LIG1        0.0313
     17 H          -2.6746   -0.0791   -1.1244 H       1  LIG1        0.0313
     18 H          -0.6495   -0.5491   -2.6463 H       1  LIG1        0.0313
     19 H          -1.2539   -1.8078   -1.6258 H       1  LIG1        0.0313
     20 H           2.5621   -1.8320   -1.6725 H       1  LIG1        0.0572
     21 H           2.4255    0.8416   -2.7525 H       1  LIG1        0.0310
     22 H           3.7081   -0.0952   -2.0316 H       1  LIG1        0.0310
     23 H           3.5358    1.9181   -0.7592 H       1  LIG1        0.0313
     24 H           3.1616    0.5338    0.2352 H       1  LIG1        0.0313
     25 H           1.1833    0.4819    1.3956 H       1  LIG1        0.0575
     26 H          -1.0918    2.3872    0.5260 H       1  LIG1        0.0352
     27 H          -0.8472    1.7671    2.1263 H       1  LIG1        0.0352
     28 H           1.8480    3.3362   -1.6709 H       1  LIG1        0.0274
     29 H           0.6545    3.7669   -0.4592 H       1  LIG1        0.0274
     30 H           0.2327    2.6266   -1.7677 H       1  LIG1        0.0274
     31 H           0.3571   -1.6790    0.9823 H       1  LIG1        0.0274
     32 H           1.7828   -2.4188    0.3295 H       1  LIG1        0.0274
     33 H           0.1867   -3.0643   -0.1167 H       1  LIG1        0.0274
     34 H          -3.0888   -1.8666    0.0347 H       1  LIG1        0.0274
     35 H          -3.8414   -1.7823    1.6227 H       1  LIG1        0.0274
     36 H          -2.3752   -2.7494    1.3810 H       1  LIG1        0.0274
     37 H          -1.0228    0.1041    3.3199 H       1  LIG1        0.0274
     38 H          -1.3668   -1.6070    3.3002 H       1  LIG1        0.0274
     39 H          -2.6887   -0.4504    3.5595 H       1  LIG1        0.0274
@<TRIPOS>BOND
     1     1     2    2
     2     2     3    1
     3     3     4    1
     4     4     5    1
     5     5     6    2
     6     6     7    1
     7     7     8    1
     8     8     9    1
     9     9    10    2
    10    10    11    1
    11     2    11    1
    12     9    12    1
    13     5    13    1
    14     1    14    1
    15     1    15    1
    16     3    16    1
    17     3    17    1
    18     4    18    1
    19     4    19    1
    20     6    20    1
    21     7    21    1
    22     7    22    1
    23     8    23    1
    24     8    24    1
    25    10    25    1
    26    11    26    1
    27    11    27    1
    28    12    28    1
    29    12    29    1
    30    12    30    1
    31    13    31    1
    32    13    32    1
    33    13    33    1
    34    14    34    1
    35    14    35    1
    36    14    36    1
    37    15    37    1
    38    15    38    1
    39    15    39    1
