REMARK  Name = NuBBE_1039
REMARK  10 active torsions:
REMARK  status: ('A' for Active; 'I' for Inactive)
REMARK    1  A    between atoms: C_1  and  C_2
REMARK    2  A    between atoms: C_8  and  C_9
REMARK    3  A    between atoms: C_14  and  C_15
REMARK    4  A    between atoms: N_19  and  O_20
REMARK    5  A    between atoms: C_21  and  C_22
REMARK    6  A    between atoms: C_21  and  C_23
REMARK    7  A    between atoms: C_26  and  C_29
REMARK    8  A    between atoms: C_29  and  O_31
REMARK    9  A    between atoms: C_34  and  C_36
REMARK   10  A    between atoms: C_34  and  C_37
REMARK                            x       y       z     vdW  Elec       q    Type
REMARK                         _______ _______ _______ _____ _____    ______ ____
ROOT
ATOM      1  C   LIG A   1       2.378  -0.610   1.748  0.00  0.00    +0.016 C 
ATOM      2  C   LIG A   1       1.118  -0.085   1.002  0.00  0.00    -0.005 C 
ATOM      3  C   LIG A   1      -0.169  -0.585   1.706  0.00  0.00    -0.063 C 
ATOM      4  C   LIG A   1      -1.164  -1.199   1.036  0.00  0.00    -0.026 C 
ATOM      5  C   LIG A   1      -1.238  -1.350  -0.451  0.00  0.00    +0.031 C 
ATOM      6  C   LIG A   1      -0.239  -0.427  -1.182  0.00  0.00    +0.006 C 
ATOM      7  C   LIG A   1       1.196  -0.573  -0.555  0.00  0.00    -0.019 C 
ATOM      8  C   LIG A   1       1.636  -2.071  -0.630  0.00  0.00    +0.012 C 
ATOM      9  C   LIG A   1       2.268   0.240  -1.355  0.00  0.00    +0.008 C 
ATOM     10  C   LIG A   1       1.745   0.925  -2.617  0.00  0.00    +0.005 C 
ATOM     11  C   LIG A   1       0.970  -0.091  -3.459  0.00  0.00    +0.006 C 
ATOM     12  C   LIG A   1      -0.378  -0.462  -2.763  0.00  0.00    -0.024 C 
ATOM     13  C   LIG A   1      -1.520   0.548  -3.090  0.00  0.00    +0.012 C 
ATOM     14  C   LIG A   1      -0.821  -1.831  -3.340  0.00  0.00    +0.013 C 
ATOM     15  C   LIG A   1      -0.432  -2.058  -4.804  0.00  0.00    +0.055 C 
ATOM     16  C   LIG A   1      -0.162  -0.784  -5.601  0.00  0.00    +0.063 C 
ATOM     17  N   LIG A   1      -0.739  -0.728  -6.767  0.00  0.00    -0.096 NA
ATOM     18  C   LIG A   1       0.850   0.230  -4.998  0.00  0.00    +0.010 C 
ATOM     19  C   LIG A   1       0.479   1.705  -5.261  0.00  0.00    +0.017 C 
ATOM     20  C   LIG A   1       2.213  -0.048  -5.671  0.00  0.00    +0.017 C 
ATOM     21  C   LIG A   1      -0.332  -0.155   3.172  0.00  0.00    +0.033 C 
ATOM     22  C   LIG A   1      -0.453   1.403   3.236  0.00  0.00    +0.074 C 
ATOM     23  C   LIG A   1       0.818   1.996   2.570  0.00  0.00    +0.019 C 
ATOM     24  C   LIG A   1       1.075   1.476   1.142  0.00  0.00    +0.012 C 
ATOM     25  C   LIG A   1      -0.516   1.862   4.713  0.00  0.00    +0.019 C 
ATOM     26  C   LIG A   1      -1.603   1.147   5.519  0.00  0.00    +0.007 C 
ATOM     27  C   LIG A   1      -1.486  -0.391   5.478  0.00  0.00    -0.034 C 
ATOM     28  C   LIG A   1      -1.416  -0.875   4.009  0.00  0.00    +0.015 C 
ATOM     29  C   LIG A   1      -2.734  -1.003   6.145  0.00  0.00    +0.011 C 
ATOM     30  C   LIG A   1      -0.254  -0.862   6.275  0.00  0.00    +0.011 C 
ENDROOT
BRANCH  17  31
ATOM     31  O   LIG A   1      -0.382   0.389  -7.514  0.00  0.00    -0.409 OA
ATOM     32  H   LIG A   1      -0.914   0.280  -8.324  0.00  0.00    +0.328 HD
ENDBRANCH  17  31
BRANCH  22  33
ATOM     33  C   LIG A   1      -1.729   1.931   2.529  0.00  0.00    +0.311 C 
ATOM     34  O   LIG A   1      -2.689   1.252   2.194  0.00  0.00    -0.250 OA
BRANCH  33  35
ATOM     35  O   LIG A   1      -1.772   3.275   2.365  0.00  0.00    -0.480 OA
ATOM     36  H   LIG A   1      -1.024   3.773   2.736  0.00  0.00    +0.295 HD
ENDBRANCH  33  35
ENDBRANCH  22  33
TORSDOF 3
