REMARK  Name = NuBBE_327
REMARK  4 active torsions:
REMARK  status: ('A' for Active; 'I' for Inactive)
REMARK    1  A    between atoms: C_3  and  C_4
REMARK    2  A    between atoms: C_4  and  O_5
REMARK    3  A    between atoms: O_5  and  C_6
REMARK    4  A    between atoms: C_10  and  C_12
REMARK                            x       y       z     vdW  Elec       q    Type
REMARK                         _______ _______ _______ _____ _____    ______ ____
ROOT
ATOM      1  C   LIG A   1       1.126   1.106  -0.130  0.00  0.00    +0.039 C 
ATOM      2  C   LIG A   1       1.526   2.484  -0.617  0.00  0.00    +0.074 C 
ATOM      3  C   LIG A   1       1.935   3.428   0.248  0.00  0.00    +0.198 C 
ATOM      4  O   LIG A   1       1.999   3.312   1.614  0.00  0.00    -0.496 OA
ATOM      5  C   LIG A   1       1.397   2.127   2.170  0.00  0.00    +0.174 C 
ATOM      6  C   LIG A   1      -0.084   2.405   2.437  0.00  0.00    +0.052 C 
ATOM      7  C   LIG A   1       1.701   0.908   1.289  0.00  0.00    +0.051 C 
ATOM      8  C   LIG A   1       1.228  -0.412   1.892  0.00  0.00    +0.092 C 
ATOM      9  N   LIG A   1       1.663  -1.548   1.062  0.00  0.00    -0.293 NA
ATOM     10  C   LIG A   1       1.232  -2.839   1.665  0.00  0.00    +0.090 C 
ATOM     11  C   LIG A   1      -0.300  -3.063   1.741  0.00  0.00    +0.053 C 
ATOM     12  C   LIG A   1      -0.966  -2.538   0.514  0.00  0.00    -0.016 A 
ATOM     13  C   LIG A   1      -0.275  -1.784  -0.417  0.00  0.00    +0.038 A 
ATOM     14  N   LIG A   1      -1.147  -1.459  -1.421  0.00  0.00    -0.356 N 
ATOM     15  H   LIG A   1      -0.926  -0.924  -2.250  0.00  0.00    +0.166 HD
ATOM     16  C   LIG A   1      -2.405  -1.948  -1.125  0.00  0.00    +0.047 A 
ATOM     17  C   LIG A   1      -3.605  -1.840  -1.838  0.00  0.00    +0.026 A 
ATOM     18  C   LIG A   1      -4.745  -2.435  -1.285  0.00  0.00    +0.002 A 
ATOM     19  C   LIG A   1      -4.685  -3.114  -0.070  0.00  0.00    +0.001 A 
ATOM     20  C   LIG A   1      -3.477  -3.221   0.627  0.00  0.00    +0.010 A 
ATOM     21  C   LIG A   1      -2.316  -2.629   0.091  0.00  0.00    +0.003 A 
ATOM     22  C   LIG A   1       1.191  -1.445  -0.346  0.00  0.00    +0.104 C 
ATOM     23  C   LIG A   1       1.580  -0.094  -0.980  0.00  0.00    +0.034 C 
ENDROOT
BRANCH   2  24
ATOM     24  C   LIG A   1       1.383   2.833  -2.052  0.00  0.00    +0.338 C 
ATOM     25  O   LIG A   1       0.745   2.163  -2.848  0.00  0.00    -0.245 OA
BRANCH  24  26
ATOM     26  O   LIG A   1       2.034   3.991  -2.351  0.00  0.00    -0.465 OA
ATOM     27  C   LIG A   1       1.893   4.443  -3.697  0.00  0.00    +0.280 C 
ENDBRANCH  24  26
ENDBRANCH   2  24
TORSDOF 2
