@<TRIPOS>MOLECULE
NuBBE_1288
 90 97 0 0 0
SMALL
GASTEIGER

@<TRIPOS>ATOM
      1 C           0.0922   -1.9129    3.4511 C.3     1  LIG1       -0.0538
      2 C          -0.0485   -1.1469    2.1136 C.3     1  LIG1        0.0394
      3 C           0.8337    0.2436    2.1283 C.3     1  LIG1        0.0452
      4 H           0.4863    0.7878    3.0205 H       1  LIG1        0.0373
      5 C           0.6145    1.2378    0.8936 C.3     1  LIG1        0.0356
      6 C           1.7882    0.7639    0.0011 C.3     1  LIG1        0.0603
      7 O           2.8061    0.2128    0.8613 O.3     1  LIG1       -0.3392
      8 C           2.3570    0.1700    2.2152 C.3     1  LIG1        0.2720
      9 O           2.8053    1.3867    2.8504 O.3     1  LIG1       -0.3560
     10 C           3.0832   -0.8230    3.1747 C.2     1  LIG1        0.3675
     11 O           4.2463   -1.2422    2.5912 O.3     1  LIG1       -0.4642
     12 C           5.2346   -1.8020    3.4496 C.3     1  LIG1        0.0818
     13 O           2.7744   -1.0745    4.3393 O.2     1  LIG1       -0.2447
     14 C          -0.8215    1.1276    0.2898 C.3     1  LIG1        0.0196
     15 H          -0.6520    0.8732   -0.7673 H       1  LIG1        0.0346
     16 C          -1.8078    0.0612    0.7578 C.3     1  LIG1        0.0898
     17 H          -1.8937   -0.7090   -0.0100 H       1  LIG1        0.0625
     18 O          -3.1273    0.6558    0.7819 O.3     1  LIG1       -0.3724
     19 C          -3.0534    1.8127   -0.0699 C.3     1  LIG1        0.0677
     20 C          -1.7045    2.4082    0.3077 C.3     1  LIG1        0.1334
     21 C          -1.0481    3.4260   -0.6123 C.3     1  LIG1        0.1239
     22 H          -1.5589    4.3967   -0.6157 H       1  LIG1        0.0747
     23 O          -0.9906    2.9414   -1.9842 O.3     1  LIG1       -0.4568
     24 C          -2.0690    3.1717   -2.7895 C.2     1  LIG1        0.3349
     25 C          -1.8172    2.6868   -4.1884 C.2     1  LIG1        0.0293
     26 C          -2.7822    3.2495   -5.1922 C.3     1  LIG1       -0.0333
     27 C          -0.8133    1.8295   -4.4819 C.2     1  LIG1       -0.0774
     28 C          -0.3874    1.3848   -5.8502 C.3     1  LIG1       -0.0461
     29 O          -3.1009    3.7108   -2.4279 O.2     1  LIG1       -0.2453
     30 C           0.4177    3.6533   -0.1577 C.3     1  LIG1        0.0122
     31 C           0.9332    2.8011    1.0507 C.3     1  LIG1        0.0672
     32 H           0.5244    3.1773    1.9864 H       1  LIG1        0.0601
     33 O           2.3395    3.1030    1.1445 O.3     1  LIG1       -0.3910
     34 C          -2.0111    3.0634    1.6629 C.2     1  LIG1        0.3193
     35 O          -2.8955    4.0914    1.5299 O.3     1  LIG1       -0.4674
     36 C          -3.5179    4.5220    2.7469 C.3     1  LIG1        0.0817
     37 O          -1.5529    2.6871    2.7408 O.2     1  LIG1       -0.2500
     38 C          -1.5073   -0.5629    2.1034 C.3     1  LIG1        0.0902
     39 H          -1.6115    0.1884    2.8943 H       1  LIG1        0.0626
     40 O          -2.5284   -1.5122    2.4196 O.3     1  LIG1       -0.3886
     41 C           0.1348   -2.2109    0.9506 C.3     1  LIG1        0.1334
     42 C           1.4281   -3.0572    0.5004 C.3     1  LIG1        0.1055
     43 C           2.8762   -3.0389    0.7935 C.3     1  LIG1       -0.0326
     44 C           0.9237   -4.3299   -0.1522 C.3     1  LIG1        0.0316
     45 H           1.5926   -5.1812    0.0208 H       1  LIG1        0.0363
     46 C          -0.3934   -4.5482    0.6232 C.3     1  LIG1       -0.0149
     47 C          -1.0361   -3.1579    0.4930 C.3     1  LIG1        0.0955
     48 H          -1.9264   -3.1371    1.1133 H       1  LIG1        0.0627
     49 O          -1.4840   -2.9831   -0.9061 O.3     1  LIG1       -0.3329
     50 C          -0.4131   -3.0268   -1.8560 C.3     1  LIG1        0.2342
     51 H           0.0486   -2.0376   -1.8012 H       1  LIG1        0.1090
     52 C           0.5376   -4.2273   -1.6292 C.3     1  LIG1        0.1545
     53 C           1.4177   -3.9816   -2.7958 C.2     1  LIG1       -0.0121
     54 C           0.6376   -3.3939   -3.7139 C.2     1  LIG1        0.0870
     55 O          -0.6765   -3.0912   -3.2846 O.2     1  LIG1       -0.4680
     56 O          -0.0905   -5.4970   -1.9505 O.3     1  LIG1       -0.3778
     57 O           1.0248   -1.8284   -0.0574 O.3     1  LIG1       -0.3578
     58 H           0.1282   -1.2245    4.3029 H       1  LIG1        0.0237
     59 H           0.9772   -2.5532    3.4657 H       1  LIG1        0.0237
     60 H          -0.7553   -2.5864    3.6277 H       1  LIG1        0.0237
     61 H           2.2741    1.5570   -0.5767 H       1  LIG1        0.0567
     62 H           1.5097    0.0579   -0.7771 H       1  LIG1        0.0567
     63 H           3.1419    1.9184    2.1036 H       1  LIG1        0.2133
     64 H           6.1318   -1.9428    2.8430 H       1  LIG1        0.0661
     65 H           4.9244   -2.7731    3.8454 H       1  LIG1        0.0661
     66 H           5.4714   -1.0993    4.2539 H       1  LIG1        0.0661
     67 H          -3.9228    2.4472    0.1269 H       1  LIG1        0.0572
     68 H          -3.1122    1.4523   -1.0978 H       1  LIG1        0.0572
     69 H          -2.7168    4.3429   -5.2062 H       1  LIG1        0.0280
     70 H          -3.8090    2.9675   -4.9350 H       1  LIG1        0.0280
     71 H          -2.6065    2.8949   -6.2107 H       1  LIG1        0.0280
     72 H          -0.2081    1.4104   -3.6815 H       1  LIG1        0.0574
     73 H          -0.6651    2.0934   -6.6340 H       1  LIG1        0.0272
     74 H          -0.8042    0.4016   -6.0906 H       1  LIG1        0.0272
     75 H           0.7051    1.3053   -5.8788 H       1  LIG1        0.0272
     76 H           0.5345    4.7025    0.1111 H       1  LIG1        0.0326
     77 H           1.1021    3.5160   -1.0152 H       1  LIG1        0.0326
     78 H           2.4343    4.0645    1.2808 H       1  LIG1        0.2098
     79 H          -4.4761    4.9818    2.4890 H       1  LIG1        0.0661
     80 H          -2.8908    5.2671    3.2429 H       1  LIG1        0.0661
     81 H          -3.7239    3.6791    3.4157 H       1  LIG1        0.0661
     82 H          -3.3739   -1.0687    2.2021 H       1  LIG1        0.2099
     83 H           3.3193   -2.0620    0.6229 H       1  LIG1        0.0258
     84 H           3.4124   -3.6924    0.0925 H       1  LIG1        0.0258
     85 H           3.0760   -3.4065    1.7999 H       1  LIG1        0.0258
     86 H          -0.1838   -4.7851    1.6738 H       1  LIG1        0.0296
     87 H          -1.0211   -5.3422    0.2091 H       1  LIG1        0.0296
     88 H           2.4184   -4.3568   -2.9399 H       1  LIG1        0.0633
     89 H           0.8420   -3.1794   -4.7499 H       1  LIG1        0.1022
     90 H          -0.7706   -5.2989   -2.6225 H       1  LIG1        0.2109
@<TRIPOS>BOND
     1     2     3    1
     2     3     4    1
     3     3     5    1
     4     5     6    1
     5     6     7    1
     6     7     8    1
     7     3     8    1
     8     8     9    1
     9     8    10    1
    10    10    11    1
    11    11    12    1
    12    10    13    2
    13     5    14    1
    14    14    15    1
    15    14    16    1
    16    16    17    1
    17    16    18    1
    18    18    19    1
    19    19    20    1
    20    14    20    1
    21    20    21    1
    22    23    24    1
    23    24    25    1
    24    25    26    1
    25    25    27    2
    26    27    28    1
    27    24    29    2
    28    21    30    1
    29    30    31    1
    30     5    31    1
    31    20    34    1
    32    34    35    1
    33    35    36    1
    34    34    37    2
    35    16    38    1
    36    38    39    1
    37     2    38    1
    38    38    40    1
    39    41    42    1
    40    42    44    1
    41    44    46    1
    42    46    47    1
    43    41    47    1
    44    47    49    1
    45    49    50    1
    46    50    52    1
    47    44    52    1
    48    52    53    1
    49    53    54    2
    50    54    55    1
    51    50    55    1
    52    42    57    1
    53    41    57    1
    54    42    43    1
    55    44    45    1
    56    47    48    1
    57    50    51    1
    58    52    56    1
    59     2    41    1
    60     2     1    1
    61    21    23    1
    62    21    22    1
    63    31    33    1
    64    31    32    1
    65     1    58    1
    66     1    59    1
    67     1    60    1
    68     6    61    1
    69     6    62    1
    70     9    63    1
    71    12    64    1
    72    12    65    1
    73    12    66    1
    74    19    67    1
    75    19    68    1
    76    26    69    1
    77    26    70    1
    78    26    71    1
    79    27    72    1
    80    28    73    1
    81    28    74    1
    82    28    75    1
    83    30    76    1
    84    30    77    1
    85    33    78    1
    86    36    79    1
    87    36    80    1
    88    36    81    1
    89    40    82    1
    90    43    83    1
    91    43    84    1
    92    43    85    1
    93    46    86    1
    94    46    87    1
    95    53    88    1
    96    54    89    1
    97    56    90    1
