REMARK  Name = NuBBE_1522
REMARK  18 active torsions:
REMARK  status: ('A' for Active; 'I' for Inactive)
REMARK    1  A    between atoms: C_1  and  C_2
REMARK    2  A    between atoms: C_6  and  C_10
REMARK    3  A    between atoms: C_13  and  C_18
REMARK    4  A    between atoms: C_16  and  O_17
REMARK    5  A    between atoms: C_18  and  C_20
REMARK    6  A    between atoms: C_18  and  O_24
REMARK    7  A    between atoms: C_20  and  C_21
REMARK    8  A    between atoms: C_20  and  C_22
REMARK    9  A    between atoms: C_20  and  O_23
REMARK   10  A    between atoms: C_29  and  C_30
REMARK   11  A    between atoms: C_34  and  O_36
REMARK   12  A    between atoms: C_37  and  C_38
REMARK   13  A    between atoms: C_37  and  C_39
REMARK   14  A    between atoms: C_40  and  O_44
REMARK   15  A    between atoms: O_44  and  C_45
REMARK   16  A    between atoms: C_45  and  C_47
REMARK   17  A    between atoms: C_48  and  N_49
REMARK   18  A    between atoms: N_49  and  C_50
REMARK                            x       y       z     vdW  Elec       q    Type
REMARK                         _______ _______ _______ _____ _____    ______ ____
ROOT
ATOM      1  C   LIG A   1      -0.277  -0.914   1.756  0.00  0.00    +0.014 C 
ATOM      2  C   LIG A   1       0.413  -0.079   0.634  0.00  0.00    +0.003 C 
ATOM      3  C   LIG A   1       1.112   1.122   1.287  0.00  0.00    -0.015 C 
ATOM      4  C   LIG A   1       0.234   2.239   1.771  0.00  0.00    -0.019 C 
ATOM      5  C   LIG A   1       1.220   2.497   0.646  0.00  0.00    +0.016 C 
ATOM      6  C   LIG A   1       0.612   2.467   3.244  0.00  0.00    +0.004 C 
ATOM      7  C   LIG A   1       2.049   1.919   3.349  0.00  0.00    +0.005 C 
ATOM      8  C   LIG A   1       2.177   0.809   2.319  0.00  0.00    +0.008 C 
ATOM      9  C   LIG A   1      -1.238   2.190   1.434  0.00  0.00    +0.008 C 
ATOM     10  C   LIG A   1      -1.585   1.527   0.086  0.00  0.00    +0.005 C 
ATOM     11  C   LIG A   1      -0.617   0.419  -0.441  0.00  0.00    +0.004 C 
ATOM     12  C   LIG A   1      -1.291  -0.735  -1.297  0.00  0.00    -0.025 C 
ATOM     13  C   LIG A   1      -2.325  -1.513  -0.447  0.00  0.00    +0.012 C 
ATOM     14  C   LIG A   1      -0.148  -1.635  -1.911  0.00  0.00    +0.007 C 
ATOM     15  C   LIG A   1       0.884  -2.100  -0.858  0.00  0.00    +0.036 C 
ATOM     16  C   LIG A   1       1.491  -0.963  -0.046  0.00  0.00    +0.122 C 
ATOM     17  C   LIG A   1      -0.631  -2.804  -2.854  0.00  0.00    +0.006 C 
ATOM     18  C   LIG A   1      -1.175  -4.025  -2.076  0.00  0.00    +0.015 C 
ATOM     19  C   LIG A   1       0.619  -3.322  -3.632  0.00  0.00    +0.015 C 
ATOM     20  C   LIG A   1      -1.665  -2.286  -3.917  0.00  0.00    +0.183 C 
ATOM     21  C   LIG A   1      -2.609  -1.159  -3.461  0.00  0.00    +0.046 C 
ATOM     22  C   LIG A   1      -2.022  -0.113  -2.516  0.00  0.00    +0.011 C 
ENDROOT
BRANCH   6  23
ATOM     23  C   LIG A   1       0.393   3.910   3.736  0.00  0.00    +0.051 C 
ATOM     24  C   LIG A   1       1.213   5.005   3.063  0.00  0.00    +0.043 C 
ATOM     25  C   LIG A   1       1.907   5.785   4.183  0.00  0.00    +0.153 C 
ATOM     26  O   LIG A   1       1.175   5.473   5.374  0.00  0.00    -0.345 OA
ATOM     27  C   LIG A   1       0.587   4.178   5.233  0.00  0.00    +0.251 C 
BRANCH  27  28
ATOM     28  O   LIG A   1       1.391   3.243   5.914  0.00  0.00    -0.367 OA
ATOM     29  H   LIG A   1       2.278   3.361   5.530  0.00  0.00    +0.212 HD
ENDBRANCH  27  28
BRANCH  25  30
ATOM     30  C   LIG A   1       3.421   5.466   4.286  0.00  0.00    +0.174 C 
BRANCH  30  31
ATOM     31  C   LIG A   1       4.241   6.197   5.381  0.00  0.00    +0.089 C 
ATOM     32  C   LIG A   1       4.202   7.714   5.240  0.00  0.00    +0.044 C 
ATOM     33  C   LIG A   1       3.870   5.769   6.802  0.00  0.00    +0.044 C 
BRANCH  31  34
ATOM     34  O   LIG A   1       5.615   5.767   5.196  0.00  0.00    -0.387 OA
ATOM     35  H   LIG A   1       5.954   6.168   4.376  0.00  0.00    +0.210 HD
ENDBRANCH  31  34
ENDBRANCH  30  31
BRANCH  30  36
ATOM     36  O   LIG A   1       3.644   4.063   4.487  0.00  0.00    -0.386 OA
ATOM     37  H   LIG A   1       4.615   3.969   4.598  0.00  0.00    +0.210 HD
ENDBRANCH  30  36
ENDBRANCH  25  30
ENDBRANCH   6  23
BRANCH  16  38
ATOM     38  O   LIG A   1       2.369  -0.217  -0.903  0.00  0.00    -0.391 OA
ATOM     39  H   LIG A   1       1.846   0.383  -1.448  0.00  0.00    +0.210 HD
ENDBRANCH  16  38
BRANCH  20  40
ATOM     40  O   LIG A   1      -2.583  -3.343  -4.306  0.00  0.00    -0.457 OA
BRANCH  40  41
ATOM     41  C   LIG A   1      -2.265  -4.238  -5.267  0.00  0.00    +0.341 C 
ATOM     42  O   LIG A   1      -1.251  -4.268  -5.942  0.00  0.00    -0.245 OA
BRANCH  41  43
ATOM     43  C   LIG A   1      -3.358  -5.245  -5.343  0.00  0.00    +0.080 A 
ATOM     44  C   LIG A   1      -3.083  -6.594  -5.669  0.00  0.00    +0.041 A 
ATOM     45  C   LIG A   1      -4.184  -7.467  -5.747  0.00  0.00    +0.024 A 
ATOM     46  C   LIG A   1      -5.498  -7.019  -5.561  0.00  0.00    +0.002 A 
ATOM     47  C   LIG A   1      -5.746  -5.687  -5.250  0.00  0.00    +0.001 A 
ATOM     48  C   LIG A   1      -4.680  -4.803  -5.138  0.00  0.00    +0.017 A 
BRANCH  44  49
ATOM     49  N   LIG A   1      -1.762  -7.077  -5.740  0.00  0.00    -0.346 N 
ATOM     50  C   LIG A   1      -1.490  -8.208  -6.614  0.00  0.00    +0.125 C 
ATOM     51  H   LIG A   1      -1.102  -6.310  -5.906  0.00  0.00    +0.146 HD
ENDBRANCH  44  49
ENDBRANCH  41  43
ENDBRANCH  40  41
ENDBRANCH  20  40
TORSDOF 11
