REMARK  Name = NuBBE_2279
REMARK  6 active torsions:
REMARK  status: ('A' for Active; 'I' for Inactive)
REMARK    1  A    between atoms: O_1  and  C_2
REMARK    2  A    between atoms: C_7  and  C_8
REMARK    3  A    between atoms: C_11  and  O_12
REMARK    4  A    between atoms: O_12  and  C_13
REMARK    5  A    between atoms: C_23  and  C_24
REMARK    6  A    between atoms: C_23  and  C_25
REMARK                            x       y       z     vdW  Elec       q    Type
REMARK                         _______ _______ _______ _____ _____    ______ ____
ROOT
ATOM      1  C   LIG A   1      -0.644   1.715   0.023  0.00  0.00    +0.142 A 
ATOM      2  C   LIG A   1       0.060   0.501   0.006  0.00  0.00    +0.107 A 
ATOM      3  C   LIG A   1       1.450   0.505   0.002  0.00  0.00    +0.145 A 
ATOM      4  O   LIG A   1       2.197  -0.642   0.005  0.00  0.00    -0.462 OA
ATOM      5  C   LIG A   1       1.530  -1.842   0.007  0.00  0.00    +0.208 A 
ATOM      6  C   LIG A   1       0.200  -2.035  -0.015  0.00  0.00    +0.064 A 
ATOM      7  C   LIG A   1      -0.635  -0.796  -0.016  0.00  0.00    +0.204 A 
ATOM      8  O   LIG A   1      -1.865  -0.805  -0.042  0.00  0.00    -0.286 OA
ATOM      9  C   LIG A   1       2.147   1.710  -0.002  0.00  0.00    +0.093 A 
ATOM     10  C   LIG A   1       1.449   2.920   0.003  0.00  0.00    +0.136 A 
ATOM     11  C   LIG A   1       0.050   2.935   0.022  0.00  0.00    +0.059 A 
ATOM     12  C   LIG A   1      -0.643   4.216   0.042  0.00  0.00    +0.015 C 
ATOM     13  C   LIG A   1       0.087   5.333   0.000  0.00  0.00    +0.020 C 
ATOM     14  C   LIG A   1       1.595   5.336  -0.064  0.00  0.00    +0.123 C 
ATOM     15  C   LIG A   1       2.045   5.978  -1.381  0.00  0.00    +0.060 C 
ATOM     16  C   LIG A   1       2.150   6.136   1.120  0.00  0.00    +0.060 C 
ATOM     17  O   LIG A   1       2.228   4.042  -0.002  0.00  0.00    -0.481 OA
ENDROOT
BRANCH   6  18
ATOM     18  C   LIG A   1      -0.383  -3.399  -0.027  0.00  0.00    -0.011 A 
ATOM     19  C   LIG A   1       0.265  -4.469  -0.666  0.00  0.00    +0.012 A 
ATOM     20  C   LIG A   1      -0.305  -5.747  -0.691  0.00  0.00    +0.046 A 
ATOM     21  C   LIG A   1      -1.542  -5.987  -0.097  0.00  0.00    +0.120 A 
ATOM     22  C   LIG A   1      -2.199  -4.939   0.539  0.00  0.00    +0.046 A 
ATOM     23  C   LIG A   1      -1.619  -3.664   0.580  0.00  0.00    +0.012 A 
BRANCH  21  24
ATOM     24  O   LIG A   1      -1.998  -7.271  -0.209  0.00  0.00    -0.495 OA
ATOM     25  C   LIG A   1      -3.275  -7.543   0.355  0.00  0.00    +0.277 C 
ENDBRANCH  21  24
ENDBRANCH   6  18
BRANCH   1  26
ATOM     26  O   LIG A   1      -2.020   1.750   0.041  0.00  0.00    -0.505 OA
ATOM     27  H   LIG A   1      -2.354   0.825   0.016  0.00  0.00    +0.292 HD
ENDBRANCH   1  26
TORSDOF 3
