REMARK  Name = NuBBE_1495
REMARK  4 active torsions:
REMARK  status: ('A' for Active; 'I' for Inactive)
REMARK    1  A    between atoms: C_1  and  C_3
REMARK    2  A    between atoms: C_1  and  C_4
REMARK    3  A    between atoms: C_8  and  C_16
REMARK    4  A    between atoms: C_12  and  C_15
REMARK                            x       y       z     vdW  Elec       q    Type
REMARK                         _______ _______ _______ _____ _____    ______ ____
ROOT
ATOM      1  C   LIG A   1       0.071  -0.230  -1.383  0.00  0.00    +0.018 C 
ATOM      2  C   LIG A   1       0.751   0.905  -0.561  0.00  0.00    +0.012 C 
ATOM      3  C   LIG A   1       1.880   0.485   0.406  0.00  0.00    +0.030 C 
ATOM      4  C   LIG A   1       1.694  -0.720   1.310  0.00  0.00    -0.076 C 
ATOM      5  C   LIG A   1       0.902  -0.789   2.402  0.00  0.00    -0.027 C 
ATOM      6  C   LIG A   1      -0.024   0.255   2.978  0.00  0.00    +0.031 C 
ATOM      7  C   LIG A   1      -1.518  -0.110   2.798  0.00  0.00    +0.034 C 
ATOM      8  C   LIG A   1      -1.963   0.182   1.378  0.00  0.00    -0.076 C 
ATOM      9  C   LIG A   1      -1.612  -0.686   0.408  0.00  0.00    -0.027 C 
ATOM     10  C   LIG A   1      -1.446  -0.380  -1.054  0.00  0.00    +0.035 C 
ATOM     11  C   LIG A   1      -2.571   1.541   1.167  0.00  0.00    +0.038 C 
ATOM     12  C   LIG A   1       2.548  -1.911   0.940  0.00  0.00    +0.038 C 
ENDROOT
BRANCH   1  13
ATOM     13  C   LIG A   1       0.299  -0.038  -2.883  0.00  0.00    -0.076 C 
ATOM     14  C   LIG A   1       1.134  -0.842  -3.565  0.00  0.00    +0.007 C 
ATOM     15  C   LIG A   1      -0.428   1.083  -3.578  0.00  0.00    +0.038 C 
ENDBRANCH   1  13
TORSDOF 1
