@<TRIPOS>MOLECULE
NuBBE_670
 12 12 0 0 0
SMALL
GASTEIGER

@<TRIPOS>ATOM
      1 O          -2.6222    0.0083    0.2118 O.2     1  LIG1       -0.2677
      2 C          -1.3997   -0.0016    0.1389 C.ar    1  LIG1        0.2539
      3 C          -0.6323    1.2592    0.0785 C.ar    1  LIG1        0.0189
      4 C           0.6940    1.1964   -0.0575 C.ar    1  LIG1        0.0115
      5 N           1.3343   -0.0083   -0.1371 N.ar    1  LIG1       -0.3143
      6 N          -0.6637   -1.1527    0.1000 N.ar    1  LIG1       -0.2751
      7 C           0.6903   -1.2151   -0.0700 C.ar    1  LIG1        0.3267
      8 O           1.2937   -2.2791   -0.1633 O.2     1  LIG1       -0.2467
      9 H          -1.1844    2.1871    0.1383 H       1  LIG1        0.0686
     10 H           1.3142    2.0851   -0.1159 H       1  LIG1        0.0810
     11 H           2.3399   -0.0530   -0.2584 H       1  LIG1        0.1698
     12 H          -1.1641   -2.0263    0.1346 H       1  LIG1        0.1734
@<TRIPOS>BOND
     1     1     2    2
     2     2     3   ar
     3     3     4   ar
     4     4     5   ar
     5     2     6   ar
     6     6     7   ar
     7     5     7   ar
     8     7     8    2
     9     3     9    1
    10     4    10    1
    11     5    11    1
    12     6    12    1
