REMARK  Name = NuBBE_2354
REMARK  6 active torsions:
REMARK  status: ('A' for Active; 'I' for Inactive)
REMARK    1  A    between atoms: C_1  and  C_2
REMARK    2  A    between atoms: C_11  and  C_12
REMARK    3  A    between atoms: C_11  and  C_14
REMARK    4  A    between atoms: C_16  and  C_17
REMARK    5  A    between atoms: C_16  and  C_18
REMARK    6  A    between atoms: C_18  and  O_19
REMARK                            x       y       z     vdW  Elec       q    Type
REMARK                         _______ _______ _______ _____ _____    ______ ____
ROOT
ATOM      1  C   LIG A   1      -1.734  -0.362   0.912  0.00  0.00    +0.012 C 
ATOM      2  C   LIG A   1      -0.539  -0.900   0.082  0.00  0.00    -0.021 C 
ATOM      3  C   LIG A   1       0.673  -1.329   0.990  0.00  0.00    +0.016 C 
ATOM      4  C   LIG A   1       1.136  -0.132   1.853  0.00  0.00    +0.032 C 
ATOM      5  C   LIG A   1       1.281   1.134   1.060  0.00  0.00    -0.027 C 
ATOM      6  C   LIG A   1       0.796   1.308  -0.183  0.00  0.00    -0.069 C 
ATOM      7  C   LIG A   1      -0.013   0.235  -0.903  0.00  0.00    +0.021 C 
ATOM      8  C   LIG A   1      -1.137   0.830  -1.788  0.00  0.00    +0.009 C 
ATOM      9  C   LIG A   1      -0.713   2.060  -2.592  0.00  0.00    +0.012 C 
ATOM     10  C   LIG A   1      -0.092   3.167  -1.712  0.00  0.00    -0.011 C 
ATOM     11  C   LIG A   1      -1.120   3.697  -0.684  0.00  0.00    +0.016 C 
ATOM     12  C   LIG A   1       1.122   2.562  -0.966  0.00  0.00    +0.041 C 
ATOM     13  C   LIG A   1       0.531  -2.681   1.790  0.00  0.00    +0.068 C 
ATOM     14  C   LIG A   1      -0.307  -2.584   3.082  0.00  0.00    +0.023 C 
ATOM     15  C   LIG A   1      -0.048  -3.780   0.864  0.00  0.00    +0.018 C 
ATOM     16  C   LIG A   1      -1.287  -3.353   0.090  0.00  0.00    +0.002 C 
ATOM     17  C   LIG A   1      -1.013  -2.114  -0.753  0.00  0.00    +0.007 C 
ENDROOT
BRANCH  10  18
ATOM     18  C   LIG A   1       0.279   4.337  -2.623  0.00  0.00    -0.028 C 
ATOM     19  C   LIG A   1       1.460   4.568  -3.214  0.00  0.00    +0.004 C 
ENDBRANCH  10  18
BRANCH  13  20
ATOM     20  C   LIG A   1       1.935  -3.175   2.193  0.00  0.00    +0.311 C 
ATOM     21  O   LIG A   1       3.005  -2.660   1.928  0.00  0.00    -0.250 OA
BRANCH  20  22
ATOM     22  O   LIG A   1       1.920  -4.333   2.889  0.00  0.00    -0.480 OA
ATOM     23  H   LIG A   1       2.868  -4.519   3.051  0.00  0.00    +0.295 HD
ENDBRANCH  20  22
ENDBRANCH  13  20
TORSDOF 3
