REMARK  Name = NuBBE_1726
REMARK  10 active torsions:
REMARK  status: ('A' for Active; 'I' for Inactive)
REMARK    1  A    between atoms: C_1  and  C_2
REMARK    2  A    between atoms: C_5  and  C_6
REMARK    3  A    between atoms: C_11  and  C_12
REMARK    4  A    between atoms: C_11  and  C_13
REMARK    5  A    between atoms: C_14  and  O_18
REMARK    6  A    between atoms: O_18  and  C_19
REMARK    7  A    between atoms: C_19  and  C_21
REMARK    8  A    between atoms: C_26  and  C_27
REMARK    9  A    between atoms: C_30  and  C_32
REMARK   10  A    between atoms: C_32  and  C_33
REMARK                            x       y       z     vdW  Elec       q    Type
REMARK                         _______ _______ _______ _____ _____    ______ ____
ROOT
ATOM      1  C   LIG A   1      -1.821   0.906   0.265  0.00  0.00    +0.012 C 
ATOM      2  C   LIG A   1      -0.715   0.453  -0.740  0.00  0.00    -0.023 C 
ATOM      3  C   LIG A   1       0.513  -0.208  -0.014  0.00  0.00    +0.002 C 
ATOM      4  C   LIG A   1       0.230  -1.583   0.730  0.00  0.00    -0.025 C 
ATOM      5  C   LIG A   1      -0.618  -1.352   2.002  0.00  0.00    +0.012 C 
ATOM      6  C   LIG A   1      -0.430  -2.561  -0.314  0.00  0.00    +0.004 C 
ATOM      7  C   LIG A   1      -1.676  -1.943  -0.982  0.00  0.00    +0.005 C 
ATOM      8  C   LIG A   1      -1.359  -0.611  -1.669  0.00  0.00    +0.008 C 
ATOM      9  C   LIG A   1      -0.621  -4.050   0.165  0.00  0.00    +0.005 C 
ATOM     10  C   LIG A   1      -1.749  -4.230   1.202  0.00  0.00    +0.015 C 
ATOM     11  C   LIG A   1      -1.017  -4.925  -1.058  0.00  0.00    +0.015 C 
ATOM     12  C   LIG A   1       0.738  -4.600   0.703  0.00  0.00    +0.182 C 
ATOM     13  C   LIG A   1       1.452  -3.658   1.674  0.00  0.00    +0.046 C 
ATOM     14  C   LIG A   1       1.585  -2.228   1.153  0.00  0.00    +0.011 C 
ATOM     15  C   LIG A   1       1.377   0.807   0.780  0.00  0.00    +0.005 C 
ATOM     16  C   LIG A   1       0.961   2.276   0.700  0.00  0.00    +0.005 C 
ATOM     17  C   LIG A   1       0.536   2.759  -0.688  0.00  0.00    +0.002 C 
ATOM     18  C   LIG A   1      -0.172   1.692  -1.590  0.00  0.00    -0.023 C 
ATOM     19  C   LIG A   1       0.873   1.288  -2.678  0.00  0.00    +0.012 C 
ATOM     20  C   LIG A   1      -1.293   2.465  -2.343  0.00  0.00    +0.008 C 
ATOM     21  C   LIG A   1      -1.052   3.941  -2.065  0.00  0.00    +0.008 C 
ATOM     22  C   LIG A   1      -0.402   3.988  -0.673  0.00  0.00    +0.036 C 
ENDROOT
BRANCH  22  23
ATOM     23  C   LIG A   1       0.253   5.362  -0.356  0.00  0.00    +0.114 C 
ATOM     24  C   LIG A   1       1.374   5.740  -1.341  0.00  0.00    +0.056 C 
ATOM     25  O   LIG A   1      -0.767   6.380  -0.451  0.00  0.00    -0.458 OA
ATOM     26  C   LIG A   1      -0.549   7.354   0.479  0.00  0.00    +0.308 C 
ATOM     27  O   LIG A   1      -1.172   8.405   0.535  0.00  0.00    -0.251 OA
ATOM     28  C   LIG A   1       0.579   6.967   1.383  0.00  0.00    +0.124 C 
ATOM     29  C   LIG A   1       0.729   5.491   1.088  0.00  0.00    +0.059 C 
ENDBRANCH  22  23
BRANCH  12  30
ATOM     30  O   LIG A   1       0.525  -5.835   1.430  0.00  0.00    -0.461 OA
BRANCH  30  31
ATOM     31  C   LIG A   1       1.178  -6.949   1.012  0.00  0.00    +0.304 C 
ATOM     32  O   LIG A   1       1.882  -7.036   0.015  0.00  0.00    -0.251 OA
ATOM     33  C   LIG A   1       0.965  -8.064   1.991  0.00  0.00    +0.136 C 
ENDBRANCH  30  31
ENDBRANCH  12  30
TORSDOF 3
