@<TRIPOS>MOLECULE
NuBBE_121
 51 54 0 0 0
SMALL
GASTEIGER

@<TRIPOS>ATOM
      1 O           2.4795    0.2666   -6.2046 O.3     1  LIG1       -0.5068
      2 C           1.8041   -0.1120   -5.0819 C.ar    1  LIG1        0.1169
      3 C           2.4712   -0.5036   -3.9273 C.ar    1  LIG1       -0.0195
      4 C           1.7330   -0.8693   -2.7911 C.ar    1  LIG1       -0.0475
      5 C           0.3275   -0.8474   -2.8050 C.ar    1  LIG1        0.0213
      6 C          -0.3219   -0.4602   -3.9860 C.ar    1  LIG1       -0.0475
      7 C           0.4154   -0.0926   -5.1200 C.ar    1  LIG1       -0.0195
      8 C          -0.4498   -1.2443   -1.6069 C.ar    1  LIG1        0.1809
      9 C          -0.8459   -0.3581   -0.6671 C.ar    1  LIG1        0.2138
     10 O          -0.5301    0.9937   -0.7605 O.3     1  LIG1       -0.4532
     11 C          -0.4118    1.7557    0.4603 C.3     1  LIG1        0.2311
     12 H          -1.3940    1.7925    0.9340 H       1  LIG1        0.1084
     13 O          -0.1058    3.1178    0.1238 O.3     1  LIG1       -0.3339
     14 C           0.0733    3.9888    1.2568 C.3     1  LIG1        0.0883
     15 H           0.4142    4.9426    0.8370 H       1  LIG1        0.0621
     16 C          -1.2554    4.2699    1.9621 C.3     1  LIG1       -0.0360
     17 C           1.1396    3.4612    2.2357 C.3     1  LIG1        0.1096
     18 H           0.7155    3.2946    3.2336 H       1  LIG1        0.0646
     19 O           2.1733    4.4387    2.4217 O.3     1  LIG1       -0.3866
     20 C           1.7704    2.1753    1.7013 C.3     1  LIG1        0.1151
     21 H           2.3792    2.3875    0.8152 H       1  LIG1        0.0648
     22 O           2.6636    1.6504    2.7013 O.3     1  LIG1       -0.3864
     23 C           0.6831    1.1535    1.3878 C.3     1  LIG1        0.1454
     24 H           1.1461    0.2594    0.9575 H       1  LIG1        0.0683
     25 O           0.1379    0.7317    2.6618 O.3     1  LIG1       -0.3829
     26 C          -1.5797   -0.9177    0.5131 C.ar    1  LIG1        0.2382
     27 C          -1.5805   -2.3691    0.6833 C.ar    1  LIG1        0.1092
     28 C          -1.9587   -2.9588    1.9002 C.ar    1  LIG1        0.1348
     29 O          -2.3796   -2.2425    2.9884 O.3     1  LIG1       -0.5058
     30 C          -1.8937   -4.3372    2.0608 C.ar    1  LIG1        0.0223
     31 C          -1.4853   -5.1180    0.9852 C.ar    1  LIG1        0.1239
     32 O          -1.4134   -6.4752    1.0944 O.3     1  LIG1       -0.5065
     33 C          -1.1213   -4.5407   -0.2332 C.ar    1  LIG1        0.0231
     34 C          -1.1415   -3.1532   -0.3732 C.ar    1  LIG1        0.1465
     35 O          -0.6895   -2.6147   -1.5533 O.2     1  LIG1       -0.4507
     36 O          -2.0819   -0.2320    1.3938 O.2     1  LIG1       -0.2830
     37 H           3.4330    0.2580   -6.0184 H       1  LIG1        0.2921
     38 H           3.5564   -0.5300   -3.8921 H       1  LIG1        0.0654
     39 H           2.2730   -1.1719   -1.8972 H       1  LIG1        0.0626
     40 H          -1.4072   -0.4384   -4.0389 H       1  LIG1        0.0626
     41 H          -0.0938    0.2138   -6.0302 H       1  LIG1        0.0654
     42 H          -1.6664    3.3719    2.4351 H       1  LIG1        0.0255
     43 H          -2.0032    4.6236    1.2449 H       1  LIG1        0.0255
     44 H          -1.1309    5.0283    2.7419 H       1  LIG1        0.0255
     45 H           2.9364    3.9450    2.7839 H       1  LIG1        0.2100
     46 H           2.0905    1.1337    3.3071 H       1  LIG1        0.2100
     47 H          -0.7362    0.3235    2.4894 H       1  LIG1        0.2102
     48 H          -2.5174   -1.3109    2.7122 H       1  LIG1        0.2922
     49 H          -2.1612   -4.7745    3.0183 H       1  LIG1        0.0691
     50 H          -1.6589   -6.7319    2.0003 H       1  LIG1        0.2921
     51 H          -0.8012   -5.1738   -1.0556 H       1  LIG1        0.0691
@<TRIPOS>BOND
     1     1     2    1
     2     2     3   ar
     3     3     4   ar
     4     4     5   ar
     5     5     6   ar
     6     6     7   ar
     7     2     7   ar
     8     5     8    1
     9     8     9   ar
    10     9    10    1
    11    11    13    1
    12    13    14    1
    13    14    17    1
    14    17    18    1
    15    17    19    1
    16    17    20    1
    17    20    23    1
    18    11    23    1
    19     9    26   ar
    20    26    27   ar
    21    27    28   ar
    22    28    29    1
    23    28    30   ar
    24    30    31   ar
    25    31    32    1
    26    31    33   ar
    27    33    34   ar
    28    27    34   ar
    29    34    35   ar
    30     8    35   ar
    31    26    36    2
    32    11    12    1
    33    11    10    1
    34    14    16    1
    35    14    15    1
    36    20    22    1
    37    20    21    1
    38    23    25    1
    39    23    24    1
    40     1    37    1
    41     3    38    1
    42     4    39    1
    43     6    40    1
    44     7    41    1
    45    16    42    1
    46    16    43    1
    47    16    44    1
    48    19    45    1
    49    22    46    1
    50    25    47    1
    51    29    48    1
    52    30    49    1
    53    32    50    1
    54    33    51    1
