@<TRIPOS>MOLECULE
NuBBE_1849
 45 48 0 0 0
SMALL
GASTEIGER

@<TRIPOS>ATOM
      1 C           2.1166   -1.9858   -3.8772 C.2     1  LIG1       -0.1026
      2 C           2.5579   -1.5576   -2.6861 C.2     1  LIG1       -0.0899
      3 C           1.8297   -1.7553   -1.3741 C.3     1  LIG1       -0.0185
      4 C           1.4390   -0.4552   -0.5940 C.3     1  LIG1        0.0595
      5 C           0.5172    0.4263   -1.3888 C.2     1  LIG1        0.1130
      6 O          -0.8139    0.0451   -1.2980 O.2     1  LIG1       -0.4872
      7 C          -0.8989   -0.8048   -0.1231 C.3     1  LIG1        0.1286
      8 H          -1.0719   -1.8242   -0.4918 H       1  LIG1        0.0787
      9 C          -2.0955   -0.3568    0.7031 C.ar    1  LIG1       -0.0034
     10 C          -3.1486   -1.2529    0.9653 C.ar    1  LIG1       -0.0095
     11 C          -4.2372   -0.8026    1.6892 C.ar    1  LIG1        0.1666
     12 C          -4.3202    0.4869    2.1543 C.ar    1  LIG1        0.1662
     13 O          -5.4725    0.7204    2.8381 O.3     1  LIG1       -0.4526
     14 C          -6.1042   -0.5746    2.7567 C.3     1  LIG1        0.2332
     15 O          -5.3279   -1.5451    2.0227 O.3     1  LIG1       -0.4526
     16 C          -3.3169    1.4000    1.9201 C.ar    1  LIG1       -0.0158
     17 C          -2.2008    0.9723    1.1865 C.ar    1  LIG1       -0.0514
     18 C           0.4752   -0.7041    0.5822 C.3     1  LIG1        0.0138
     19 H           0.4846    0.1852    1.2309 H       1  LIG1        0.0350
     20 C           0.8303   -1.8893    1.4750 C.3     1  LIG1       -0.0575
     21 C           0.8671    1.5956   -1.9309 C.2     1  LIG1        0.0271
     22 C           2.2336    2.1319   -1.7140 C.2     1  LIG1        0.2231
     23 C           3.0686    1.4733   -0.6357 C.2     1  LIG1        0.1637
     24 O           4.2504    2.0239   -0.1594 O.2     1  LIG1       -0.4916
     25 C           4.2815    3.4461   -0.0836 C.3     1  LIG1        0.0790
     26 C           2.6788    0.2833   -0.1495 C.2     1  LIG1       -0.0243
     27 O           2.6046    3.0998   -2.3549 O.2     1  LIG1       -0.2839
     28 H           2.7086   -1.8285   -4.7758 H       1  LIG1        0.0532
     29 H           1.1691   -2.5022   -3.9974 H       1  LIG1        0.0532
     30 H           3.5280   -1.0648   -2.6468 H       1  LIG1        0.0567
     31 H           2.4940   -2.3620   -0.7430 H       1  LIG1        0.0320
     32 H           0.9419   -2.3761   -1.5498 H       1  LIG1        0.0320
     33 H          -3.1346   -2.2761    0.6056 H       1  LIG1        0.0659
     34 H          -7.0795   -0.4629    2.2680 H       1  LIG1        0.1166
     35 H          -6.2649   -0.9520    3.7737 H       1  LIG1        0.1166
     36 H          -3.3931    2.4183    2.2857 H       1  LIG1        0.0655
     37 H          -1.4115    1.6918    0.9754 H       1  LIG1        0.0623
     38 H           0.6101   -2.8485    0.9972 H       1  LIG1        0.0234
     39 H           0.2719   -1.8449    2.4155 H       1  LIG1        0.0234
     40 H           1.8959   -1.8770    1.7307 H       1  LIG1        0.0234
     41 H           0.1717    2.2307   -2.4611 H       1  LIG1        0.0691
     42 H           5.1726    3.7306    0.4854 H       1  LIG1        0.0660
     43 H           3.4056    3.8396    0.4441 H       1  LIG1        0.0660
     44 H           4.3841    3.8952   -1.0737 H       1  LIG1        0.0660
     45 H           3.3035   -0.1929    0.6031 H       1  LIG1        0.0620
@<TRIPOS>BOND
     1     1     2    2
     2     2     3    1
     3     4     5    1
     4     5     6    1
     5     6     7    1
     6     9    10   ar
     7    10    11   ar
     8    11    12   ar
     9    12    13    1
    10    13    14    1
    11    14    15    1
    12    11    15    1
    13    12    16   ar
    14    16    17   ar
    15     9    17   ar
    16     7    18    1
    17     4    18    1
    18     5    21    2
    19    21    22    1
    20    22    23    1
    21    24    25    1
    22    23    26    2
    23     4    26    1
    24     3     4    1
    25     7     8    1
    26     7     9    1
    27    22    27    2
    28    23    24    1
    29    18    20    1
    30    18    19    1
    31     1    28    1
    32     1    29    1
    33     2    30    1
    34     3    31    1
    35     3    32    1
    36    10    33    1
    37    14    34    1
    38    14    35    1
    39    16    36    1
    40    17    37    1
    41    20    38    1
    42    20    39    1
    43    20    40    1
    44    21    41    1
    45    25    42    1
    46    25    43    1
    47    25    44    1
    48    26    45    1
