@<TRIPOS>MOLECULE
NuBBE_1478
 82 89 0 0 0
SMALL
GASTEIGER

@<TRIPOS>ATOM
      1 O          -2.2188    2.0029    0.0076 O.3     1  LIG1       -0.5056
      2 C          -0.9356    1.5832    0.2800 C.ar    1  LIG1        0.1369
      3 C          -0.7678    0.3168    0.8823 C.ar    1  LIG1        0.0447
      4 C          -1.9909   -0.5967    1.0866 C.3     1  LIG1        0.0252
      5 C          -2.0341   -1.8609    0.2353 C.ar    1  LIG1        0.0264
      6 C          -1.6665   -1.9175   -1.1395 C.ar    1  LIG1        0.0639
      7 C          -1.5655   -3.1746   -1.7757 C.ar    1  LIG1        0.0876
      8 C          -1.0302   -3.2451   -3.1524 C.ar    1  LIG1        0.2007
      9 O          -0.9474   -4.3324   -3.7218 O.2     1  LIG1       -0.2864
     10 C          -0.5925   -2.0083   -3.8253 C.ar    1  LIG1        0.0495
     11 C          -0.8223   -0.7765   -3.1973 C.ar    1  LIG1        0.0949
     12 N          -1.4923   -0.7283   -1.9289 N.ar    1  LIG1       -0.3395
     13 C          -2.8341   -0.1289   -2.1716 C.3     1  LIG1        0.0125
     14 C          -0.4063    0.3883   -3.8745 C.ar    1  LIG1        0.1409
     15 O          -0.5749    1.6133   -3.2841 O.3     1  LIG1       -0.5047
     16 C           0.1790    0.3234   -5.1425 C.ar    1  LIG1       -0.0181
     17 C           0.3720   -0.9130   -5.7559 C.ar    1  LIG1       -0.0575
     18 C          -0.0076   -2.0806   -5.0974 C.ar    1  LIG1       -0.0487
     19 C          -2.0060   -4.3333   -1.1312 C.ar    1  LIG1        0.1331
     20 C          -2.5648   -4.2469    0.1323 C.ar    1  LIG1        0.0227
     21 C          -2.5744   -3.0228    0.8013 C.ar    1  LIG1        0.1305
     22 O          -3.2491   -3.0107    1.9906 O.3     1  LIG1       -0.4857
     23 C          -2.6209   -2.2503    3.0227 C.3     1  LIG1        0.1060
     24 C          -2.2589   -0.8178    2.5941 C.3     1  LIG1       -0.0022
     25 C          -1.4195   -3.0489    3.5409 C.3     1  LIG1       -0.0252
     26 C          -3.6473   -2.1806    4.1681 C.3     1  LIG1       -0.0252
     27 O          -1.9708   -5.5752   -1.7065 O.3     1  LIG1       -0.5059
     28 C           0.5464   -0.0594    1.2425 C.ar    1  LIG1        0.1381
     29 C           1.6549    0.7631    0.9334 C.ar    1  LIG1        0.0412
     30 C           1.4650    2.0304    0.3410 C.ar    1  LIG1        0.0673
     31 C           0.1634    2.4110   -0.0193 C.ar    1  LIG1        0.0882
     32 C          -0.0233    3.6950   -0.7418 C.ar    1  LIG1        0.2007
     33 O          -1.1517    4.1140   -0.9811 O.2     1  LIG1       -0.2864
     34 C           1.1651    4.4362   -1.2109 C.ar    1  LIG1        0.0495
     35 C           2.4282    4.0127   -0.7877 C.ar    1  LIG1        0.0949
     36 N           2.5718    2.9317    0.1366 N.ar    1  LIG1       -0.3393
     37 C           2.9369    3.5141    1.4611 C.3     1  LIG1        0.0126
     38 C           3.5529    4.6799   -1.2983 C.ar    1  LIG1        0.1409
     39 O           4.8142    4.2345   -1.0084 O.3     1  LIG1       -0.5047
     40 C           3.4293    5.7802   -2.1399 C.ar    1  LIG1       -0.0181
     41 C           2.1597    6.2174   -2.5157 C.ar    1  LIG1       -0.0575
     42 C           1.0253    5.5406   -2.0616 C.ar    1  LIG1       -0.0487
     43 C           3.0032    0.2493    1.1887 C.2     1  LIG1       -0.0493
     44 C           3.1342   -0.7622    2.0477 C.2     1  LIG1       -0.0408
     45 C           1.9321   -1.3849    2.7070 C.3     1  LIG1        0.1235
     46 O           0.7251   -1.2525    1.9118 O.3     1  LIG1       -0.4811
     47 C           2.1987   -2.8862    2.8768 C.3     1  LIG1       -0.0215
     48 C           1.7069   -0.7456    4.0863 C.3     1  LIG1       -0.0215
     49 H          -2.1624    2.8595   -0.4738 H       1  LIG1        0.2922
     50 H          -2.8817   -0.0497    0.7565 H       1  LIG1        0.0403
     51 H          -3.3846   -0.6884   -2.9411 H       1  LIG1        0.0456
     52 H          -2.7658    0.9145   -2.4947 H       1  LIG1        0.0456
     53 H          -3.4699   -0.1226   -1.2815 H       1  LIG1        0.0456
     54 H          -0.2784    2.3085   -3.8925 H       1  LIG1        0.2922
     55 H           0.4867    1.2242   -5.6654 H       1  LIG1        0.0655
     56 H           0.8187   -0.9689   -6.7457 H       1  LIG1        0.0619
     57 H           0.1422   -3.0453   -5.5779 H       1  LIG1        0.0625
     58 H          -2.9806   -5.1316    0.6058 H       1  LIG1        0.0691
     59 H          -1.4461   -0.4382    3.2266 H       1  LIG1        0.0313
     60 H          -3.0988   -0.1517    2.8457 H       1  LIG1        0.0313
     61 H          -0.6854   -3.2126    2.7499 H       1  LIG1        0.0268
     62 H          -1.7279   -4.0491    3.8686 H       1  LIG1        0.0268
     63 H          -0.9359   -2.5512    4.3850 H       1  LIG1        0.0268
     64 H          -4.5734   -1.6995    3.8323 H       1  LIG1        0.0268
     65 H          -3.2570   -1.6255    5.0277 H       1  LIG1        0.0268
     66 H          -3.9315   -3.1853    4.5030 H       1  LIG1        0.0268
     67 H          -1.5696   -5.4760   -2.6002 H       1  LIG1        0.2922
     68 H           2.1522    4.1862    1.8339 H       1  LIG1        0.0456
     69 H           3.8730    4.0813    1.4071 H       1  LIG1        0.0456
     70 H           3.1037    2.7437    2.2219 H       1  LIG1        0.0456
     71 H           4.6930    3.3414   -0.6322 H       1  LIG1        0.2922
     72 H           4.3180    6.2846   -2.5094 H       1  LIG1        0.0655
     73 H           2.0550    7.0767   -3.1739 H       1  LIG1        0.0619
     74 H           0.0369    5.8740   -2.3703 H       1  LIG1        0.0625
     75 H           3.8585    0.7027    0.7028 H       1  LIG1        0.0623
     76 H           4.1238   -1.1346    2.2957 H       1  LIG1        0.0611
     77 H           2.2384   -3.3912    1.9048 H       1  LIG1        0.0271
     78 H           1.4034   -3.3706    3.4503 H       1  LIG1        0.0271
     79 H           3.1396   -3.0773    3.4062 H       1  LIG1        0.0271
     80 H           1.4947    0.3270    4.0023 H       1  LIG1        0.0271
     81 H           2.5792   -0.8669    4.7381 H       1  LIG1        0.0271
     82 H           0.8413   -1.1862    4.5893 H       1  LIG1        0.0271
@<TRIPOS>BOND
     1     1     2    1
     2     2     3   ar
     3     3     4    1
     4     4     5    1
     5     5     6   ar
     6     6     7   ar
     7     7     8   ar
     8     8     9    2
     9     8    10   ar
    10    10    11   ar
    11    11    12   ar
    12     6    12   ar
    13    12    13    1
    14    11    14   ar
    15    14    15    1
    16    14    16   ar
    17    16    17   ar
    18    17    18   ar
    19    10    18   ar
    20     7    19   ar
    21    19    20   ar
    22    20    21   ar
    23     5    21   ar
    24    21    22    1
    25    22    23    1
    26    23    24    1
    27     4    24    1
    28    23    25    1
    29    23    26    1
    30    19    27    1
    31     3    28   ar
    32    28    29   ar
    33    29    30   ar
    34    30    31   ar
    35     2    31   ar
    36    31    32   ar
    37    32    33    2
    38    32    34   ar
    39    34    35   ar
    40    35    36   ar
    41    30    36   ar
    42    36    37    1
    43    35    38   ar
    44    38    39    1
    45    38    40   ar
    46    40    41   ar
    47    41    42   ar
    48    34    42   ar
    49    29    43    1
    50    43    44    2
    51    44    45    1
    52    45    46    1
    53    28    46    1
    54    45    47    1
    55    45    48    1
    56     1    49    1
    57     4    50    1
    58    13    51    1
    59    13    52    1
    60    13    53    1
    61    15    54    1
    62    16    55    1
    63    17    56    1
    64    18    57    1
    65    20    58    1
    66    24    59    1
    67    24    60    1
    68    25    61    1
    69    25    62    1
    70    25    63    1
    71    26    64    1
    72    26    65    1
    73    26    66    1
    74    27    67    1
    75    37    68    1
    76    37    69    1
    77    37    70    1
    78    39    71    1
    79    40    72    1
    80    41    73    1
    81    42    74    1
    82    43    75    1
    83    44    76    1
    84    47    77    1
    85    47    78    1
    86    47    79    1
    87    48    80    1
    88    48    81    1
    89    48    82    1
