REMARK  Name = NuBBE_150
REMARK  5 active torsions:
REMARK  status: ('A' for Active; 'I' for Inactive)
REMARK    1  A    between atoms: C_2  and  C_3
REMARK    2  A    between atoms: C_2  and  O_15
REMARK    3  A    between atoms: C_8  and  C_9
REMARK    4  A    between atoms: C_8  and  C_14
REMARK    5  A    between atoms: O_15  and  C_16
REMARK                            x       y       z     vdW  Elec       q    Type
REMARK                         _______ _______ _______ _____ _____    ______ ____
ROOT
ATOM      1  C   LIG A   1      -0.539   1.690   1.163  0.00  0.00    +0.060 A 
ATOM      2  C   LIG A   1       0.314   2.103   0.130  0.00  0.00    +0.018 A 
ATOM      3  C   LIG A   1       0.820   1.172  -0.774  0.00  0.00    +0.047 A 
ATOM      4  C   LIG A   1       0.482  -0.174  -0.653  0.00  0.00    +0.129 A 
ATOM      5  O   LIG A   1       1.033  -0.999  -1.589  0.00  0.00    -0.482 OA
ATOM      6  C   LIG A   1       0.731  -2.406  -1.545  0.00  0.00    +0.123 C 
ATOM      7  C   LIG A   1       0.085  -2.744  -2.893  0.00  0.00    +0.060 C 
ATOM      8  C   LIG A   1      -0.182  -2.851  -0.424  0.00  0.00    +0.020 C 
ATOM      9  C   LIG A   1      -0.703  -2.013   0.478  0.00  0.00    +0.011 C 
ATOM     10  C   LIG A   1      -0.366  -0.603   0.371  0.00  0.00    +0.017 A 
ATOM     11  C   LIG A   1      -0.878   0.334   1.280  0.00  0.00    +0.026 A 
ATOM     12  C   LIG A   1       2.080  -3.124  -1.421  0.00  0.00    +0.060 C 
ENDROOT
BRANCH   1  14
ATOM     13  O   LIG A   1      -1.899   2.367   3.018  0.00  0.00    -0.245 OA
ATOM     14  C   LIG A   1      -1.110   2.663   2.133  0.00  0.00    +0.339 C 
BRANCH  14  15
ATOM     15  O   LIG A   1      -0.633   3.904   1.869  0.00  0.00    -0.465 OA
ATOM     16  C   LIG A   1      -1.168   4.944   2.686  0.00  0.00    +0.280 C 
ENDBRANCH  14  15
ENDBRANCH   1  14
TORSDOF 2
