@<TRIPOS>MOLECULE
NuBBE_46
 73 77 0 0 0
SMALL
GASTEIGER

@<TRIPOS>ATOM
      1 O           2.2433    4.9950    3.6561 O.3     1  LIG1       -0.5065
      2 C           1.4786    4.2210    2.8345 C.ar    1  LIG1        0.1239
      3 C           0.7640    3.1387    3.3381 C.ar    1  LIG1        0.0223
      4 C          -0.0860    2.4338    2.4884 C.ar    1  LIG1        0.1348
      5 O          -0.8075    1.3998    3.0103 O.3     1  LIG1       -0.5058
      6 C          -0.1910    2.7746    1.1389 C.ar    1  LIG1        0.1092
      7 C          -1.1542    2.1547    0.2123 C.ar    1  LIG1        0.2382
      8 C          -0.8276    2.2418   -1.2378 C.ar    1  LIG1        0.2138
      9 O          -1.4119    1.4246   -2.1941 O.3     1  LIG1       -0.4532
     10 C          -1.7192    0.0678   -1.8122 C.3     1  LIG1        0.2311
     11 H          -2.5450    0.0801   -1.0929 H       1  LIG1        0.1084
     12 O          -0.5696   -0.5858   -1.2483 O.3     1  LIG1       -0.3313
     13 C          -0.8865   -1.9347   -0.8570 C.3     1  LIG1        0.1144
     14 H          -1.8086   -1.9297   -0.2603 H       1  LIG1        0.0647
     15 C           0.2345   -2.5065    0.0116 C.3     1  LIG1        0.0796
     16 O           0.3262   -1.8048    1.2644 O.3     1  LIG1       -0.3461
     17 C           1.4646   -2.2387    1.9994 C.3     1  LIG1        0.1879
     18 H           2.3612   -2.0570    1.3948 H       1  LIG1        0.0937
     19 C           1.6522   -1.5084    3.3388 C.3     1  LIG1        0.1341
     20 H           1.7656   -0.4281    3.2042 H       1  LIG1        0.0671
     21 O           2.8575   -1.9834    3.9928 O.3     1  LIG1       -0.3841
     22 C           0.4813   -1.7928    4.2778 C.3     1  LIG1        0.1140
     23 H          -0.4160   -1.2566    3.9532 H       1  LIG1        0.0648
     24 O           0.7941   -1.2907    5.5976 O.3     1  LIG1       -0.3864
     25 C           0.1902   -3.2967    4.4023 C.3     1  LIG1        0.1095
     26 H           0.8890   -3.7356    5.1247 H       1  LIG1        0.0646
     27 O          -1.1200   -3.4817    4.9573 O.3     1  LIG1       -0.3866
     28 C           0.2975   -4.0414    3.0596 C.3     1  LIG1        0.0873
     29 H          -0.6164   -3.8931    2.4713 H       1  LIG1        0.0621
     30 C           0.4599   -5.5435    3.2848 C.3     1  LIG1       -0.0361
     31 O           1.4403   -3.6427    2.2871 O.3     1  LIG1       -0.3431
     32 C          -1.0602   -2.7643   -2.1364 C.3     1  LIG1        0.1120
     33 H          -0.1620   -2.6962   -2.7639 H       1  LIG1        0.0647
     34 O          -1.2649   -4.1507   -1.8611 O.3     1  LIG1       -0.3865
     35 C          -2.2583   -2.2067   -2.9029 C.3     1  LIG1        0.1152
     36 H          -3.1851   -2.4649   -2.3756 H       1  LIG1        0.0648
     37 O          -2.3678   -2.8756   -4.1770 O.3     1  LIG1       -0.3864
     38 C          -2.1700   -0.6837   -3.1030 C.3     1  LIG1        0.1454
     39 H          -1.4641   -0.4669   -3.9141 H       1  LIG1        0.0683
     40 O          -3.4505   -0.2195   -3.5615 O.3     1  LIG1       -0.3829
     41 C          -0.0310    3.2759   -1.5812 C.ar    1  LIG1        0.1810
     42 C           0.1853    3.6114   -2.9924 C.ar    1  LIG1        0.0247
     43 C           1.2200    3.0109   -3.7215 C.ar    1  LIG1       -0.0057
     44 C           1.3520    3.3055   -5.0742 C.ar    1  LIG1        0.1589
     45 O           2.3285    2.7352   -5.8447 O.3     1  LIG1       -0.5033
     46 C           0.4729    4.1904   -5.6967 C.ar    1  LIG1        0.1583
     47 O           0.6039    4.4578   -7.0291 O.3     1  LIG1       -0.5033
     48 C          -0.5470    4.8004   -4.9836 C.ar    1  LIG1       -0.0159
     49 C          -0.6917    4.5094   -3.6269 C.ar    1  LIG1       -0.0473
     50 O           0.5775    4.1495   -0.6999 O.2     1  LIG1       -0.4507
     51 O          -2.2421    1.7070    0.6097 O.2     1  LIG1       -0.2830
     52 C           0.6022    3.8086    0.6289 C.ar    1  LIG1        0.1465
     53 C           1.4161    4.5546    1.4836 C.ar    1  LIG1        0.0231
     54 H           2.0479    4.7624    4.5805 H       1  LIG1        0.2921
     55 H           0.8623    2.8429    4.3781 H       1  LIG1        0.0691
     56 H          -1.1293    1.6690    3.8881 H       1  LIG1        0.2922
     57 H           1.1900   -2.4315   -0.5180 H       1  LIG1        0.0587
     58 H           0.0181   -3.5585    0.2243 H       1  LIG1        0.0587
     59 H           2.9836   -2.9080    3.6928 H       1  LIG1        0.2101
     60 H           1.7611   -1.4289    5.6996 H       1  LIG1        0.2100
     61 H          -1.2058   -2.8280    5.6779 H       1  LIG1        0.2100
     62 H          -0.3625   -5.9608    3.8712 H       1  LIG1        0.0255
     63 H           1.4051   -5.7564    3.7990 H       1  LIG1        0.0255
     64 H           0.5097   -6.0680    2.3239 H       1  LIG1        0.0255
     65 H          -1.5739   -4.5661   -2.6905 H       1  LIG1        0.2100
     66 H          -1.5375   -2.7426   -4.6698 H       1  LIG1        0.2100
     67 H          -3.7330   -0.8259   -4.2724 H       1  LIG1        0.2102
     68 H           1.8921    2.3157   -3.2295 H       1  LIG1        0.0662
     69 H           2.8553    2.1477   -5.2763 H       1  LIG1        0.2923
     70 H           1.3636    3.9127   -7.3141 H       1  LIG1        0.2923
     71 H          -1.2306    5.4834   -5.4783 H       1  LIG1        0.0655
     72 H          -1.5044    4.9703   -3.0686 H       1  LIG1        0.0626
     73 H           1.9840    5.4025    1.1082 H       1  LIG1        0.0691
@<TRIPOS>BOND
     1     1     2    1
     2     2     3   ar
     3     3     4   ar
     4     4     5    1
     5     4     6   ar
     6     6     7   ar
     7     7     8   ar
     8     8     9    1
     9     9    10    1
    10    10    11    1
    11    10    12    1
    12    12    13    1
    13    13    14    1
    14    13    15    1
    15    15    16    1
    16    16    17    1
    17    17    18    1
    18    17    19    1
    19    19    22    1
    20    22    23    1
    21    22    24    1
    22    22    25    1
    23    25    28    1
    24    28    29    1
    25    28    30    1
    26    28    31    1
    27    17    31    1
    28    13    32    1
    29    32    35    1
    30    35    36    1
    31    35    37    1
    32    35    38    1
    33    10    38    1
    34     8    41   ar
    35    41    42    1
    36    42    43   ar
    37    43    44   ar
    38    44    45    1
    39    44    46   ar
    40    46    47    1
    41    46    48   ar
    42    48    49   ar
    43    42    49   ar
    44    41    50   ar
    45     7    51    2
    46     6    52   ar
    47    50    52   ar
    48    52    53   ar
    49     2    53   ar
    50    19    21    1
    51    19    20    1
    52    25    27    1
    53    25    26    1
    54    32    34    1
    55    32    33    1
    56    38    40    1
    57    38    39    1
    58     1    54    1
    59     3    55    1
    60     5    56    1
    61    15    57    1
    62    15    58    1
    63    21    59    1
    64    24    60    1
    65    27    61    1
    66    30    62    1
    67    30    63    1
    68    30    64    1
    69    34    65    1
    70    37    66    1
    71    40    67    1
    72    43    68    1
    73    45    69    1
    74    47    70    1
    75    48    71    1
    76    49    72    1
    77    53    73    1
