@<TRIPOS>MOLECULE
NuBBE_88
 53 55 0 0 0
SMALL
GASTEIGER

@<TRIPOS>ATOM
      1 O          -4.5370   -0.9242    2.1679 O.3     1  LIG1       -0.3912
      2 C          -3.4991   -0.6505    1.2276 C.3     1  LIG1        0.0606
      3 H          -3.9218   -0.8320    0.2305 H       1  LIG1        0.0599
      4 C          -3.1194    0.8239    1.3281 C.3     1  LIG1       -0.0258
      5 C          -2.0507    1.1892    0.3071 C.3     1  LIG1       -0.0444
      6 C          -0.7525    0.3538    0.4419 C.3     1  LIG1       -0.0218
      7 C          -1.1113   -1.1772    0.4993 C.3     1  LIG1       -0.0242
      8 H          -1.4884   -1.4087   -0.5121 H       1  LIG1        0.0315
      9 C          -2.2943   -1.6094    1.4479 C.3     1  LIG1       -0.0053
     10 C          -2.7605   -3.0392    1.0519 C.3     1  LIG1       -0.0572
     11 C          -1.9272   -1.6946    2.9461 C.3     1  LIG1       -0.0572
     12 C           0.1759   -2.0167    0.6608 C.3     1  LIG1       -0.0306
     13 C           1.2452   -1.6181   -0.3147 C.2     1  LIG1       -0.0842
     14 C           1.2293   -0.4773   -1.0281 C.2     1  LIG1       -0.0690
     15 C           0.1407    0.5760   -0.8569 C.3     1  LIG1       -0.0142
     16 C           0.7176    2.0066   -0.9618 C.3     1  LIG1       -0.0452
     17 C           1.6262    2.1909   -2.1803 C.3     1  LIG1       -0.0433
     18 C           2.8201    1.2072   -2.1731 C.3     1  LIG1       -0.0106
     19 C           3.6020    1.3697   -3.4937 C.3     1  LIG1       -0.0558
     20 C           2.2526   -0.2349   -2.1199 C.3     1  LIG1       -0.0226
     21 C           3.7849    1.5813   -1.0478 C.2     1  LIG1       -0.0849
     22 C           4.2515    0.8016   -0.0632 C.2     1  LIG1       -0.1021
     23 C           0.0168    0.8302    1.7003 C.3     1  LIG1       -0.0587
     24 H          -5.2819   -0.3330    1.9653 H       1  LIG1        0.2098
     25 H          -2.7974    1.0759    2.3446 H       1  LIG1        0.0290
     26 H          -4.0105    1.4399    1.1522 H       1  LIG1        0.0290
     27 H          -1.8328    2.2599    0.3988 H       1  LIG1        0.0272
     28 H          -2.4754    1.0495   -0.6958 H       1  LIG1        0.0272
     29 H          -3.0025   -3.0976   -0.0152 H       1  LIG1        0.0236
     30 H          -3.6583   -3.3365    1.6061 H       1  LIG1        0.0236
     31 H          -1.9927   -3.7901    1.2643 H       1  LIG1        0.0236
     32 H          -1.0192   -2.2802    3.1151 H       1  LIG1        0.0236
     33 H          -2.7217   -2.1916    3.5167 H       1  LIG1        0.0236
     34 H          -1.7969   -0.7172    3.4101 H       1  LIG1        0.0236
     35 H          -0.0488   -3.0740    0.4856 H       1  LIG1        0.0310
     36 H           0.5886   -1.9393    1.6714 H       1  LIG1        0.0310
     37 H           2.0388   -2.3459   -0.4704 H       1  LIG1        0.0572
     38 H          -0.5175    0.4447   -1.7299 H       1  LIG1        0.0351
     39 H           1.2907    2.2686   -0.0669 H       1  LIG1        0.0271
     40 H          -0.1009    2.7316   -1.0332 H       1  LIG1        0.0271
     41 H           1.9819    3.2293   -2.2064 H       1  LIG1        0.0274
     42 H           1.0288    2.0485   -3.0910 H       1  LIG1        0.0274
     43 H           2.9650    1.1631   -4.3616 H       1  LIG1        0.0238
     44 H           4.4544    0.6814   -3.5376 H       1  LIG1        0.0238
     45 H           3.9901    2.3889   -3.6095 H       1  LIG1        0.0238
     46 H           3.0746   -0.9602   -2.0577 H       1  LIG1        0.0318
     47 H           1.7449   -0.4489   -3.0718 H       1  LIG1        0.0318
     48 H           4.1336    2.6150   -1.0623 H       1  LIG1        0.0572
     49 H           3.9714   -0.2398    0.0453 H       1  LIG1        0.0532
     50 H           4.9381    1.2024    0.6767 H       1  LIG1        0.0532
     51 H          -0.4890    0.5747    2.6283 H       1  LIG1        0.0235
     52 H           0.1176    1.9211    1.7164 H       1  LIG1        0.0235
     53 H           1.0266    0.4123    1.7549 H       1  LIG1        0.0235
@<TRIPOS>BOND
     1     2     4    1
     2     4     5    1
     3     5     6    1
     4     6     7    1
     5     7     9    1
     6     2     9    1
     7     7    12    1
     8    12    13    1
     9    13    14    2
    10    14    15    1
    11     6    15    1
    12    15    16    1
    13    16    17    1
    14    17    18    1
    15    18    20    1
    16    14    20    1
    17    21    22    2
    18     1     2    1
    19     2     3    1
    20     6    23    1
    21     7     8    1
    22     9    10    1
    23     9    11    1
    24    18    19    1
    25    18    21    1
    26     1    24    1
    27     4    25    1
    28     4    26    1
    29     5    27    1
    30     5    28    1
    31    10    29    1
    32    10    30    1
    33    10    31    1
    34    11    32    1
    35    11    33    1
    36    11    34    1
    37    12    35    1
    38    12    36    1
    39    13    37    1
    40    15    38    1
    41    16    39    1
    42    16    40    1
    43    17    41    1
    44    17    42    1
    45    19    43    1
    46    19    44    1
    47    19    45    1
    48    20    46    1
    49    20    47    1
    50    21    48    1
    51    22    49    1
    52    22    50    1
    53    23    51    1
    54    23    52    1
    55    23    53    1
