@<TRIPOS>MOLECULE
NuBBE_1420
 44 49 0 0 0
SMALL
GASTEIGER

@<TRIPOS>ATOM
      1 C           0.4598    0.0174   -0.1859 C.3     1  LIG1        0.0205
      2 H          -0.0257    0.4234    0.7090 H       1  LIG1        0.0356
      3 C           0.7477   -1.4540   -0.0633 C.3     1  LIG1        0.0205
      4 H           1.1128   -1.7164    0.9358 H       1  LIG1        0.0356
      5 C          -0.5556   -2.1241   -0.4667 C.3     1  LIG1        0.0891
      6 H          -0.3859   -3.0546   -1.0213 H       1  LIG1        0.0650
      7 O          -1.2150   -1.2017   -1.3569 O.3     1  LIG1       -0.3712
      8 C          -0.5087    0.0507   -1.3580 C.3     1  LIG1        0.0544
      9 C          -1.4401   -2.4546    0.7268 C.ar    1  LIG1       -0.0149
     10 C          -0.9813   -3.3719    1.6917 C.ar    1  LIG1       -0.0105
     11 C          -1.7923   -3.6541    2.7714 C.ar    1  LIG1        0.1666
     12 C          -3.0310   -3.0792    2.9177 C.ar    1  LIG1        0.1662
     13 C          -3.5292   -2.1933    1.9904 C.ar    1  LIG1       -0.0158
     14 C          -2.7255   -1.8827    0.8871 C.ar    1  LIG1       -0.0524
     15 O          -3.6644   -3.4907    4.0480 O.3     1  LIG1       -0.4526
     16 C          -2.6776   -4.3860    4.6006 C.3     1  LIG1        0.2332
     17 O          -1.4882   -4.5005    3.7914 O.3     1  LIG1       -0.4526
     18 C           1.8720   -1.6387   -1.0709 C.3     1  LIG1        0.0544
     19 O           2.5936   -0.3990   -1.1236 O.3     1  LIG1       -0.3712
     20 C           1.8392    0.6127   -0.4233 C.3     1  LIG1        0.0891
     21 H           2.3511    0.7396    0.5400 H       1  LIG1        0.0650
     22 C           1.8584    1.9519   -1.1280 C.ar    1  LIG1       -0.0149
     23 C           1.1659    3.0424   -0.5694 C.ar    1  LIG1       -0.0105
     24 C           1.2129    4.2551   -1.2258 C.ar    1  LIG1        0.1666
     25 C           1.9169    4.4224   -2.3932 C.ar    1  LIG1        0.1662
     26 C           2.6155    3.3862   -2.9700 C.ar    1  LIG1       -0.0158
     27 C           2.5853    2.1439   -2.3271 C.ar    1  LIG1       -0.0524
     28 O           1.8367    5.6921   -2.8720 O.3     1  LIG1       -0.4526
     29 C           1.0033    6.3073   -1.8681 C.3     1  LIG1        0.2332
     30 O           0.5993    5.3996   -0.8213 O.3     1  LIG1       -0.4526
     31 H          -1.2334    0.8656   -1.2665 H       1  LIG1        0.0564
     32 H          -0.0129    0.1477   -2.3295 H       1  LIG1        0.0564
     33 H          -0.0127   -3.8535    1.6052 H       1  LIG1        0.0659
     34 H          -4.5125   -1.7524    2.1091 H       1  LIG1        0.0655
     35 H          -3.1122   -1.1887    0.1424 H       1  LIG1        0.0622
     36 H          -3.1261   -5.3804    4.7071 H       1  LIG1        0.1166
     37 H          -2.3912   -4.0215    5.5940 H       1  LIG1        0.1166
     38 H           1.5129   -1.8593   -2.0823 H       1  LIG1        0.0564
     39 H           2.5559   -2.4407   -0.7770 H       1  LIG1        0.0564
     40 H           0.6088    2.9509    0.3571 H       1  LIG1        0.0659
     41 H           3.1737    3.5292   -3.8878 H       1  LIG1        0.0655
     42 H           3.1401    1.3159   -2.7667 H       1  LIG1        0.0622
     43 H           0.1047    6.7043   -2.3540 H       1  LIG1        0.1166
     44 H           1.5554    7.1396   -1.4163 H       1  LIG1        0.1166
@<TRIPOS>BOND
     1     1     3    1
     2     3     5    1
     3     5     7    1
     4     7     8    1
     5     1     8    1
     6     9    10   ar
     7    10    11   ar
     8    11    12   ar
     9    12    13   ar
    10    13    14   ar
    11     9    14   ar
    12    12    15    1
    13    15    16    1
    14    16    17    1
    15    11    17    1
    16     3    18    1
    17    18    19    1
    18    19    20    1
    19     1    20    1
    20    22    23   ar
    21    23    24   ar
    22    24    25   ar
    23    25    26   ar
    24    26    27   ar
    25    22    27   ar
    26    25    28    1
    27    28    29    1
    28    29    30    1
    29    24    30    1
    30     1     2    1
    31     3     4    1
    32    20    21    1
    33    20    22    1
    34     5     9    1
    35     5     6    1
    36     8    31    1
    37     8    32    1
    38    10    33    1
    39    13    34    1
    40    14    35    1
    41    16    36    1
    42    16    37    1
    43    18    38    1
    44    18    39    1
    45    23    40    1
    46    26    41    1
    47    27    42    1
    48    29    43    1
    49    29    44    1
