@<TRIPOS>MOLECULE
NuBBE_2475
 53 55 0 0 0
SMALL
GASTEIGER

@<TRIPOS>ATOM
      1 C          -4.0298    6.5166   -1.0922 C.3     1  LIG1        0.0790
      2 O          -3.3764    5.3760   -0.5466 O.3     1  LIG1       -0.4915
      3 C          -3.2520    4.2697   -1.3566 C.ar    1  LIG1        0.1615
      4 C          -2.6008    3.1745   -0.7527 C.ar    1  LIG1       -0.0131
      5 C          -2.4060    1.9512   -1.4396 C.ar    1  LIG1       -0.0433
      6 C          -1.7402    0.7621   -0.7422 C.3     1  LIG1       -0.0222
      7 C          -0.4234    0.2506   -1.3984 C.3     1  LIG1       -0.0060
      8 H          -0.6104    0.0252   -2.4547 H       1  LIG1        0.0330
      9 C           0.2547   -0.9465   -0.6998 C.3     1  LIG1        0.0178
     10 H           1.0127   -1.3220   -1.4066 H       1  LIG1        0.0355
     11 C          -0.6008   -2.1420   -0.3016 C.3     1  LIG1        0.0500
     12 O          -1.2256   -2.6979   -1.4502 O.3     1  LIG1       -0.3946
     13 C           0.9632   -0.2696    0.4780 C.3     1  LIG1        0.0890
     14 H           0.2501   -0.0747    1.2894 H       1  LIG1        0.0650
     15 C           2.1260   -1.0492    1.0533 C.ar    1  LIG1       -0.0149
     16 C           3.4447   -0.9013    0.6156 C.ar    1  LIG1       -0.0524
     17 C           4.4663   -1.6770    1.1775 C.ar    1  LIG1       -0.0160
     18 C           4.1920   -2.6598    2.1394 C.ar    1  LIG1        0.1615
     19 O           5.3046   -3.3422    2.5590 O.3     1  LIG1       -0.4915
     20 C           5.1138   -4.6794    3.0041 C.3     1  LIG1        0.0790
     21 C           2.8704   -2.8293    2.5751 C.ar    1  LIG1        0.1618
     22 O           2.5782   -3.7787    3.5196 O.3     1  LIG1       -0.4914
     23 C           1.2755   -4.3507    3.4198 C.3     1  LIG1        0.0790
     24 C           1.8709   -1.9879    2.0645 C.ar    1  LIG1       -0.0107
     25 O           1.3684    1.0222   -0.0066 O.3     1  LIG1       -0.3713
     26 C           0.7027    1.2749   -1.2578 C.3     1  LIG1        0.0520
     27 C          -2.9005    1.8421   -2.7405 C.ar    1  LIG1       -0.0549
     28 C          -3.5454    2.9246   -3.3578 C.ar    1  LIG1       -0.0163
     29 C          -3.7077    4.1348   -2.6688 C.ar    1  LIG1        0.1585
     30 O          -4.3247    5.1584   -3.3316 O.3     1  LIG1       -0.5033
     31 H          -4.1047    7.2800   -0.3113 H       1  LIG1        0.0660
     32 H          -5.0564    6.2867   -1.3987 H       1  LIG1        0.0660
     33 H          -3.4430    6.9496   -1.9102 H       1  LIG1        0.0660
     34 H          -2.2503    3.2865    0.2679 H       1  LIG1        0.0658
     35 H          -2.4749   -0.0456   -0.7246 H       1  LIG1        0.0317
     36 H          -1.5493    1.0301    0.2996 H       1  LIG1        0.0317
     37 H           0.0258   -2.9263    0.1383 H       1  LIG1        0.0561
     38 H          -1.3724   -1.8786    0.4269 H       1  LIG1        0.0561
     39 H          -1.5345   -3.5889   -1.2045 H       1  LIG1        0.2094
     40 H           3.6905   -0.1751   -0.1558 H       1  LIG1        0.0622
     41 H           5.4928   -1.5305    0.8441 H       1  LIG1        0.0655
     42 H           6.1020   -5.1335    3.1303 H       1  LIG1        0.0660
     43 H           4.5684   -5.2730    2.2621 H       1  LIG1        0.0660
     44 H           4.6331   -4.7136    3.9848 H       1  LIG1        0.0660
     45 H           1.2819   -5.3103    3.9434 H       1  LIG1        0.0660
     46 H           0.9922   -4.5437    2.3779 H       1  LIG1        0.0660
     47 H           0.5393   -3.7053    3.9096 H       1  LIG1        0.0660
     48 H           0.8583   -2.0543    2.4533 H       1  LIG1        0.0659
     49 H           1.4476    1.1372   -2.0499 H       1  LIG1        0.0563
     50 H           0.3715    2.3152   -1.2821 H       1  LIG1        0.0563
     51 H          -2.8093    0.9113   -3.2930 H       1  LIG1        0.0621
     52 H          -3.9234    2.8086   -4.3639 H       1  LIG1        0.0655
     53 H          -4.5354    4.8989   -4.2353 H       1  LIG1        0.2923
@<TRIPOS>BOND
     1     1     2    1
     2     2     3    1
     3     3     4   ar
     4     4     5   ar
     5     5     6    1
     6     7     9    1
     7    11    12    1
     8     9    13    1
     9    15    16   ar
    10    16    17   ar
    11    17    18   ar
    12    18    19    1
    13    19    20    1
    14    18    21   ar
    15    21    22    1
    16    22    23    1
    17    21    24   ar
    18    15    24   ar
    19    13    25    1
    20    25    26    1
    21     7    26    1
    22     5    27   ar
    23    27    28   ar
    24    28    29   ar
    25     3    29   ar
    26    29    30    1
    27     9    11    1
    28     9    10    1
    29     7     8    1
    30     7     6    1
    31    13    15    1
    32    13    14    1
    33     1    31    1
    34     1    32    1
    35     1    33    1
    36     4    34    1
    37     6    35    1
    38     6    36    1
    39    11    37    1
    40    11    38    1
    41    12    39    1
    42    16    40    1
    43    17    41    1
    44    20    42    1
    45    20    43    1
    46    20    44    1
    47    23    45    1
    48    23    46    1
    49    23    47    1
    50    24    48    1
    51    26    49    1
    52    26    50    1
    53    27    51    1
    54    28    52    1
    55    30    53    1
