REMARK  Name = NuBBE_1595
REMARK  15 active torsions:
REMARK  status: ('A' for Active; 'I' for Inactive)
REMARK    1  A    between atoms: C_1  and  C_3
REMARK    2  A    between atoms: C_4  and  C_5
REMARK    3  A    between atoms: C_6  and  C_7
REMARK    4  A    between atoms: C_7  and  C_8
REMARK    5  A    between atoms: C_8  and  C_9
REMARK    6  A    between atoms: C_9  and  C_10
REMARK    7  A    between atoms: C_10  and  C_11
REMARK    8  A    between atoms: C_11  and  C_12
REMARK    9  A    between atoms: C_12  and  C_13
REMARK   10  A    between atoms: C_13  and  C_14
REMARK   11  A    between atoms: C_14  and  C_15
REMARK   12  A    between atoms: N_16  and  C_17
REMARK   13  A    between atoms: C_17  and  C_18
REMARK   14  A    between atoms: C_18  and  C_19
REMARK   15  A    between atoms: C_18  and  C_20
REMARK                            x       y       z     vdW  Elec       q    Type
REMARK                         _______ _______ _______ _____ _____    ______ ____
ROOT
ATOM      1  C   LIG A   1       2.074  -0.122  -1.080  0.00  0.00    -0.004 C 
ATOM      2  C   LIG A   1       1.426  -1.047  -1.803  0.00  0.00    -0.027 C 
ENDROOT
BRANCH   1   4
ATOM      3  C   LIG A   1       3.438   0.505   0.840  0.00  0.00    +0.067 C 
ATOM      4  C   LIG A   1       2.808  -0.436   0.125  0.00  0.00    +0.005 C 
BRANCH   3   5
ATOM      5  C   LIG A   1       4.173   0.135   2.078  0.00  0.00    +0.237 C 
ATOM      6  O   LIG A   1       4.242  -1.007   2.495  0.00  0.00    -0.271 OA
ATOM      7  N   LIG A   1       4.754   1.224   2.683  0.00  0.00    -0.312 N 
ATOM      8  H   LIG A   1       4.571   2.149   2.321  0.00  0.00    +0.149 HD
BRANCH   7   9
ATOM      9  C   LIG A   1       5.540   1.085   3.893  0.00  0.00    +0.107 C 
BRANCH   9  10
ATOM     10  C   LIG A   1       6.110   2.422   4.387  0.00  0.00    +0.000 C 
ATOM     11  C   LIG A   1       4.997   3.402   4.766  0.00  0.00    +0.009 C 
ATOM     12  C   LIG A   1       7.032   2.189   5.586  0.00  0.00    +0.009 C 
ENDBRANCH   9  10
ENDBRANCH   7   9
ENDBRANCH   3   5
ENDBRANCH   1   4
BRANCH   2  13
ATOM     13  C   LIG A   1       0.613  -0.730  -3.031  0.00  0.00    +0.027 C 
BRANCH  13  14
ATOM     14  C   LIG A   1      -0.834  -1.206  -2.853  0.00  0.00    +0.004 C 
BRANCH  14  15
ATOM     15  C   LIG A   1      -1.721  -0.914  -4.071  0.00  0.00    +0.000 C 
BRANCH  15  16
ATOM     16  C   LIG A   1      -3.180  -1.387  -3.901  0.00  0.00    +0.000 C 
BRANCH  16  17
ATOM     17  C   LIG A   1      -3.884  -0.745  -2.700  0.00  0.00    -0.000 C 
BRANCH  17  18
ATOM     18  C   LIG A   1      -5.358  -1.148  -2.546  0.00  0.00    -0.000 C 
BRANCH  18  19
ATOM     19  C   LIG A   1      -5.968  -0.446  -1.323  0.00  0.00    -0.000 C 
BRANCH  19  20
ATOM     20  C   LIG A   1      -7.443  -0.762  -1.061  0.00  0.00    -0.003 C 
ATOM     21  C   LIG A   1      -7.728  -2.237  -0.823  0.00  0.00    +0.004 C 
ENDBRANCH  19  20
ENDBRANCH  18  19
ENDBRANCH  17  18
ENDBRANCH  16  17
ENDBRANCH  15  16
ENDBRANCH  14  15
ENDBRANCH  13  14
ENDBRANCH   2  13
TORSDOF 12
