REMARK  Name = NuBBE_268
REMARK  6 active torsions:
REMARK  status: ('A' for Active; 'I' for Inactive)
REMARK    1  A    between atoms: C_4  and  C_5
REMARK    2  A    between atoms: C_5  and  C_6
REMARK    3  A    between atoms: C_21  and  C_22
REMARK    4  A    between atoms: C_27  and  O_29
REMARK    5  A    between atoms: C_34  and  O_35
REMARK    6  A    between atoms: C_38  and  C_39
REMARK                            x       y       z     vdW  Elec       q    Type
REMARK                         _______ _______ _______ _____ _____    ______ ____
ROOT
ATOM      1  O   LIG A   1      -2.194  -2.697   0.957  0.00  0.00    -0.271 OA
ATOM      2  C   LIG A   1      -1.013  -2.538   0.698  0.00  0.00    +0.258 C 
ATOM      3  N   LIG A   1      -0.137  -3.564   0.403  0.00  0.00    -0.308 N 
ATOM      4  C   LIG A   1       1.231  -3.144   0.252  0.00  0.00    +0.085 C 
ATOM      5  C   LIG A   1       1.233  -1.726   0.865  0.00  0.00    +0.070 C 
ATOM      6  C   LIG A   1      -0.235  -1.204   0.652  0.00  0.00    +0.202 C 
ATOM      7  O   LIG A   1      -0.262  -0.428  -0.575  0.00  0.00    -0.444 OA
ATOM      8  C   LIG A   1      -0.720  -0.278   1.815  0.00  0.00    +0.098 C 
ATOM      9  C   LIG A   1      -1.853   0.663   1.431  0.00  0.00    -0.020 C 
ATOM     10  C   LIG A   1      -3.080   0.701   1.972  0.00  0.00    -0.030 C 
ATOM     11  C   LIG A   1      -4.185   1.694   1.683  0.00  0.00    +0.030 C 
ATOM     12  C   LIG A   1      -3.949   2.922   0.758  0.00  0.00    -0.010 C 
ATOM     13  C   LIG A   1      -2.859   3.855   1.299  0.00  0.00    +0.008 C 
ATOM     14  C   LIG A   1      -3.775   2.496  -0.717  0.00  0.00    +0.004 C 
ATOM     15  C   LIG A   1      -3.252   3.586  -1.664  0.00  0.00    +0.003 C 
ATOM     16  C   LIG A   1      -3.011   3.057  -3.091  0.00  0.00    +0.035 C 
ATOM     17  C   LIG A   1      -1.588   2.533  -3.380  0.00  0.00    +0.138 C 
ATOM     18  C   LIG A   1      -1.107   1.490  -2.420  0.00  0.00    +0.011 C 
ATOM     19  C   LIG A   1      -1.207   0.171  -2.650  0.00  0.00    +0.090 C 
ATOM     20  C   LIG A   1      -0.909  -0.895  -1.671  0.00  0.00    +0.333 C 
ATOM     21  O   LIG A   1      -1.239  -2.044  -1.897  0.00  0.00    -0.246 OA
ATOM     22  C   LIG A   1       0.445   0.590   2.356  0.00  0.00    +0.151 C 
ATOM     23  C   LIG A   1       1.649  -0.218   2.791  0.00  0.00    -0.045 C 
ATOM     24  C   LIG A   1       1.661  -1.683   2.360  0.00  0.00    +0.023 C 
ATOM     25  C   LIG A   1       3.011  -2.377   2.615  0.00  0.00    +0.013 C 
ATOM     26  C   LIG A   1       2.630   0.402   3.476  0.00  0.00    +0.010 C 
ATOM     27  H   LIG A   1      -0.477  -4.516   0.332  0.00  0.00    +0.149 HD
ENDROOT
BRANCH  17  28
ATOM     28  O   LIG A   1      -0.650   3.601  -3.317  0.00  0.00    -0.388 OA
ATOM     29  H   LIG A   1      -0.930   4.270  -3.964  0.00  0.00    +0.210 HD
ENDBRANCH  17  28
BRANCH  22  30
ATOM     30  O   LIG A   1       0.898   1.541   1.386  0.00  0.00    -0.387 OA
ATOM     31  H   LIG A   1       1.086   1.070   0.558  0.00  0.00    +0.210 HD
ENDBRANCH  22  30
BRANCH   4  32
ATOM     32  C   LIG A   1       1.738  -3.216  -1.206  0.00  0.00    +0.057 C 
BRANCH  32  33
ATOM     33  C   LIG A   1       3.201  -2.849  -1.336  0.00  0.00    -0.046 A 
ATOM     34  C   LIG A   1       4.201  -3.817  -1.181  0.00  0.00    +0.003 A 
ATOM     35  C   LIG A   1       5.549  -3.452  -1.224  0.00  0.00    +0.000 A 
ATOM     36  C   LIG A   1       5.911  -2.118  -1.404  0.00  0.00    +0.000 A 
ATOM     37  C   LIG A   1       4.926  -1.150  -1.576  0.00  0.00    +0.000 A 
ATOM     38  C   LIG A   1       3.582  -1.517  -1.566  0.00  0.00    +0.003 A 
ENDBRANCH  32  33
ENDBRANCH   4  32
TORSDOF 4
