@<TRIPOS>MOLECULE
NuBBE_206
 51 53 0 0 0
SMALL
GASTEIGER

@<TRIPOS>ATOM
      1 O           3.9765    0.9288   -2.7926 O.2     1  LIG1       -0.2452
      2 C           2.7818    0.8787   -2.9898 C.2     1  LIG1        0.3381
      3 O           2.0624    1.6309   -3.8695 O.3     1  LIG1       -0.4646
      4 C           2.7401    2.7641   -4.4099 C.3     1  LIG1        0.0820
      5 C           1.8250    0.0445   -2.2164 C.2     1  LIG1        0.0749
      6 C           0.5152   -0.4093   -2.8143 C.3     1  LIG1        0.0095
      7 H          -0.0996    0.4725   -3.0327 H       1  LIG1        0.0363
      8 C          -0.2382   -1.3535   -1.8462 C.3     1  LIG1        0.0522
      9 H          -1.3152   -1.3054   -2.0619 H       1  LIG1        0.0413
     10 C           0.2473   -2.7233   -2.3015 C.2     1  LIG1       -0.0388
     11 C           0.0474   -3.9614   -1.4978 C.3     1  LIG1        0.0658
     12 O           0.6842   -3.8382   -0.2387 O.3     1  LIG1       -0.3907
     13 C           0.7476   -2.6583   -3.5460 C.2     1  LIG1       -0.0815
     14 C           0.7118   -1.2615   -4.0836 C.3     1  LIG1       -0.0265
     15 C           2.1789   -0.2379   -0.9563 C.2     1  LIG1        0.0981
     16 O           1.3900   -0.8819   -0.0389 O.2     1  LIG1       -0.4699
     17 C          -0.0071   -0.9242   -0.3799 C.3     1  LIG1        0.2106
     18 H          -0.4871   -1.6631    0.2698 H       1  LIG1        0.1062
     19 O          -0.6513    0.3524   -0.1569 O.3     1  LIG1       -0.3093
     20 C          -0.6002    0.7469    1.2238 C.3     1  LIG1        0.1918
     21 H           0.4513    0.8116    1.5313 H       1  LIG1        0.0939
     22 O          -1.2856   -0.2374    1.9999 O.3     1  LIG1       -0.3404
     23 C          -1.2408    0.0269    3.3990 C.3     1  LIG1        0.1130
     24 H          -0.1999    0.1447    3.7304 H       1  LIG1        0.0647
     25 C          -1.8231   -1.1955    4.1120 C.3     1  LIG1        0.0730
     26 O          -1.7680   -1.0318    5.5256 O.3     1  LIG1       -0.3924
     27 C          -2.0281    1.3063    3.7125 C.3     1  LIG1        0.1119
     28 H          -3.0857    1.1895    3.4465 H       1  LIG1        0.0647
     29 O          -1.9805    1.6605    5.1004 O.3     1  LIG1       -0.3865
     30 C          -1.4301    2.4652    2.9098 C.3     1  LIG1        0.1141
     31 H          -0.4587    2.7519    3.3336 H       1  LIG1        0.0648
     32 O          -2.2581    3.6348    3.0543 O.3     1  LIG1       -0.3864
     33 C          -1.2735    2.1327    1.4164 C.3     1  LIG1        0.1342
     34 H          -2.2534    2.1429    0.9249 H       1  LIG1        0.0671
     35 O          -0.5100    3.1905    0.8086 O.3     1  LIG1       -0.3841
     36 H           2.1152    3.6377   -4.2009 H       1  LIG1        0.0661
     37 H           2.8280    2.6494   -5.4935 H       1  LIG1        0.0661
     38 H           3.7280    2.9393   -3.9757 H       1  LIG1        0.0661
     39 H           0.4565   -4.8460   -1.9978 H       1  LIG1        0.0604
     40 H          -1.0200   -4.1302   -1.3312 H       1  LIG1        0.0604
     41 H           1.6178   -3.6199   -0.4104 H       1  LIG1        0.2098
     42 H           1.0898   -3.5019   -4.1327 H       1  LIG1        0.0573
     43 H          -0.1405   -1.1535   -4.7648 H       1  LIG1        0.0313
     44 H           1.6247   -1.0214   -4.6364 H       1  LIG1        0.0313
     45 H           3.1310    0.0266   -0.5121 H       1  LIG1        0.1029
     46 H          -1.2742   -2.1004    3.8245 H       1  LIG1        0.0584
     47 H          -2.8666   -1.3538    3.8186 H       1  LIG1        0.0584
     48 H          -1.0960   -1.6585    5.8546 H       1  LIG1        0.2095
     49 H          -2.1393    0.8332    5.6080 H       1  LIG1        0.2100
     50 H          -2.4518    3.6911    4.0131 H       1  LIG1        0.2100
     51 H          -0.9675    4.0151    1.0709 H       1  LIG1        0.2101
@<TRIPOS>BOND
     1     1     2    2
     2     2     3    1
     3     3     4    1
     4     2     5    1
     5     5     6    1
     6     6     7    1
     7     6     8    1
     8     8     9    1
     9     8    10    1
    10    10    11    1
    11    11    12    1
    12    10    13    2
    13    13    14    1
    14     6    14    1
    15     5    15    2
    16    15    16    1
    17    16    17    1
    18    17    18    1
    19     8    17    1
    20    17    19    1
    21    20    22    1
    22    22    23    1
    23    23    24    1
    24    23    25    1
    25    25    26    1
    26    23    27    1
    27    27    30    1
    28    30    31    1
    29    30    32    1
    30    30    33    1
    31    20    33    1
    32    33    35    1
    33    33    34    1
    34    20    21    1
    35    20    19    1
    36    27    29    1
    37    27    28    1
    38     4    36    1
    39     4    37    1
    40     4    38    1
    41    11    39    1
    42    11    40    1
    43    12    41    1
    44    13    42    1
    45    14    43    1
    46    14    44    1
    47    15    45    1
    48    25    46    1
    49    25    47    1
    50    26    48    1
    51    29    49    1
    52    32    50    1
    53    35    51    1
