REMARK  Name = NuBBE_2426
REMARK  9 active torsions:
REMARK  status: ('A' for Active; 'I' for Inactive)
REMARK    1  A    between atoms: O_1  and  C_2
REMARK    2  A    between atoms: C_4  and  C_36
REMARK    3  A    between atoms: C_6  and  C_35
REMARK    4  A    between atoms: C_9  and  C_32
REMARK    5  A    between atoms: C_12  and  C_29
REMARK    6  A    between atoms: C_13  and  C_28
REMARK    7  A    between atoms: C_16  and  C_25
REMARK    8  A    between atoms: C_21  and  C_23
REMARK    9  A    between atoms: C_21  and  C_24
REMARK                            x       y       z     vdW  Elec       q    Type
REMARK                         _______ _______ _______ _____ _____    ______ ____
ROOT
ATOM      1  C   LIG A   1      -4.542   0.069  -1.990  0.00  0.00    +0.118 C 
ATOM      2  C   LIG A   1      -3.578  -0.989  -2.584  0.00  0.00    +0.021 C 
ATOM      3  C   LIG A   1      -2.391  -1.049  -1.577  0.00  0.00    -0.024 C 
ATOM      4  C   LIG A   1      -1.767   0.539  -1.675  0.00  0.00    +0.002 C 
ATOM      5  C   LIG A   1      -0.573   0.907  -0.741  0.00  0.00    -0.025 C 
ATOM      6  C   LIG A   1       0.465  -0.764  -0.702  0.00  0.00    +0.002 C 
ATOM      7  C   LIG A   1       1.937  -0.964   0.658  0.00  0.00    -0.023 C 
ATOM      8  C   LIG A   1       2.635   1.056   1.234  0.00  0.00    -0.023 C 
ATOM      9  C   LIG A   1       3.434   0.528   2.242  0.00  0.00    +0.002 C 
ATOM     10  C   LIG A   1       3.852  -0.001   0.530  0.00  0.00    -0.029 C 
ATOM     11  C   LIG A   1       4.185  -1.448   0.838  0.00  0.00    +0.007 C 
ATOM     12  C   LIG A   1       3.077  -1.959   0.030  0.00  0.00    +0.008 C 
ATOM     13  C   LIG A   1       2.236   0.527  -0.494  0.00  0.00    +0.007 C 
ATOM     14  C   LIG A   1       0.723   0.575   1.013  0.00  0.00    +0.007 C 
ATOM     15  C   LIG A   1       0.467   0.300   2.594  0.00  0.00    -0.035 C 
ATOM     16  C   LIG A   1       1.989   0.378   3.215  0.00  0.00    +0.011 C 
ATOM     17  C   LIG A   1      -0.892  -0.807   2.449  0.00  0.00    +0.011 C 
ATOM     18  C   LIG A   1      -0.494   1.138   3.557  0.00  0.00    +0.011 C 
ATOM     19  C   LIG A   1       4.925   0.246  -0.636  0.00  0.00    +0.011 C 
ATOM     20  C   LIG A   1       1.595   2.542   0.671  0.00  0.00    +0.008 C 
ATOM     21  C   LIG A   1       0.542   2.284  -0.842  0.00  0.00    +0.008 C 
ATOM     22  C   LIG A   1       3.902   2.262   0.652  0.00  0.00    +0.012 C 
ATOM     23  C   LIG A   1       1.530  -2.088   1.782  0.00  0.00    +0.012 C 
ATOM     24  C   LIG A   1      -0.227  -2.113  -0.884  0.00  0.00    +0.005 C 
ATOM     25  C   LIG A   1      -1.251  -2.003  -2.007  0.00  0.00    +0.007 C 
ATOM     26  C   LIG A   1      -1.471   1.971   0.418  0.00  0.00    +0.012 C 
ATOM     27  C   LIG A   1      -2.858   1.672  -1.690  0.00  0.00    +0.007 C 
ATOM     28  C   LIG A   1      -4.077   1.402  -2.513  0.00  0.00    +0.032 C 
ATOM     29  C   LIG A   1      -3.026  -1.804  -0.329  0.00  0.00    +0.012 C 
ATOM     30  C   LIG A   1      -4.319  -2.262  -2.953  0.00  0.00    +0.010 C 
ENDROOT
BRANCH   1  31
ATOM     31  O   LIG A   1      -5.915  -0.164  -2.175  0.00  0.00    -0.392 OA
ATOM     32  H   LIG A   1      -6.197  -0.629  -1.361  0.00  0.00    +0.210 HD
ENDBRANCH   1  31
TORSDOF 1
