@<TRIPOS>MOLECULE
NuBBE_101
 67 71 0 0 0
SMALL
GASTEIGER

@<TRIPOS>ATOM
      1 C          -3.4277   -3.3968    2.1616 C.2     1  LIG1       -0.1022
      2 C          -2.2902   -2.7734    1.8143 C.2     1  LIG1       -0.0816
      3 C          -2.1149   -1.2724    1.9323 C.3     1  LIG1        0.0470
      4 C          -2.4437   -0.5034    0.6165 C.3     1  LIG1        0.2102
      5 H          -3.4334   -0.8496    0.2921 H       1  LIG1        0.1062
      6 O          -1.5223   -0.7461   -0.4594 O.3     1  LIG1       -0.3093
      7 C          -1.9059   -0.0039   -1.6328 C.3     1  LIG1        0.1918
      8 H          -1.8773    1.0656   -1.3878 H       1  LIG1        0.0939
      9 C          -0.9130   -0.2531   -2.7936 C.3     1  LIG1        0.1342
     10 H          -0.8019   -1.3286   -2.9756 H       1  LIG1        0.0671
     11 O           0.4015    0.2531   -2.4920 O.3     1  LIG1       -0.3841
     12 O          -3.2284   -0.3826   -2.0295 O.3     1  LIG1       -0.3404
     13 C          -3.7296    0.3888   -3.1215 C.3     1  LIG1        0.1130
     14 H          -3.6852    1.4590   -2.8758 H       1  LIG1        0.0647
     15 C          -5.2051    0.0274   -3.3337 C.3     1  LIG1        0.0730
     16 O          -5.7889    0.7675   -4.3983 O.3     1  LIG1       -0.3924
     17 C          -2.8785    0.1126   -4.3682 C.3     1  LIG1        0.1119
     18 H          -2.9480   -0.9459   -4.6468 H       1  LIG1        0.0647
     19 O          -3.3074    0.8626   -5.5129 O.3     1  LIG1       -0.3865
     20 C          -1.4158    0.4509   -4.0659 C.3     1  LIG1        0.1141
     21 H          -1.2968    1.5376   -3.9656 H       1  LIG1        0.0648
     22 O          -0.5862    0.0842   -5.1797 O.3     1  LIG1       -0.3864
     23 O          -2.5721    0.9074    0.8718 O.2     1  LIG1       -0.4699
     24 C          -1.7568    1.4352    1.8326 C.2     1  LIG1        0.0981
     25 C          -0.9322    0.7636    2.6470 C.2     1  LIG1        0.0748
     26 C          -0.3009    1.5011    3.7661 C.2     1  LIG1        0.3360
     27 O          -1.0065    2.5693    4.1417 O.3     1  LIG1       -0.4773
     28 O           0.6931    1.1821    4.3961 O.2     1  LIG1       -0.2454
     29 C          -0.7884   -0.7555    2.5805 C.3     1  LIG1        0.0112
     30 C           0.4880   -1.2577    1.8719 C.3     1  LIG1       -0.0009
     31 C           1.7990   -0.8209    2.5108 C.2     1  LIG1        0.0600
     32 N           2.0911   -1.2197    3.7088 N.2     1  LIG1       -0.2858
     33 C           3.3193   -0.6805    4.3563 C.3     1  LIG1        0.0441
     34 C           4.5212   -0.4330    3.4265 C.3     1  LIG1       -0.0055
     35 C           4.0668    0.0901    2.1154 C.ar    1  LIG1       -0.0115
     36 C           2.7536   -0.0722    1.7262 C.ar    1  LIG1        0.0646
     37 N           2.6203    0.4907    0.4838 N.ar    1  LIG1       -0.3530
     38 C           3.8612    0.8554    0.0019 C.ar    1  LIG1        0.0472
     39 C           4.2268    1.3301   -1.2626 C.ar    1  LIG1       -0.0378
     40 C           5.5866    1.5474   -1.5031 C.ar    1  LIG1       -0.0598
     41 C           6.5359    1.3350   -0.5052 C.ar    1  LIG1       -0.0611
     42 C           6.1502    0.8932    0.7664 C.ar    1  LIG1       -0.0523
     43 C           4.7899    0.6302    1.0203 C.ar    1  LIG1        0.0035
     44 H          -3.5376   -4.4723    2.0584 H       1  LIG1        0.0532
     45 H          -4.2876   -2.8528    2.5458 H       1  LIG1        0.0532
     46 H          -1.4723   -3.3680    1.4162 H       1  LIG1        0.0571
     47 H          -2.8986   -0.9523    2.6420 H       1  LIG1        0.0410
     48 H           0.8981    0.1602   -3.3317 H       1  LIG1        0.2101
     49 H          -5.7708    0.2471   -2.4211 H       1  LIG1        0.0584
     50 H          -5.3288   -1.0438   -3.5268 H       1  LIG1        0.0584
     51 H          -5.3100    0.5226   -5.2157 H       1  LIG1        0.2095
     52 H          -3.3515    1.8071   -5.2671 H       1  LIG1        0.2100
     53 H          -1.0910    0.3190   -5.9853 H       1  LIG1        0.2100
     54 H          -1.9336    2.5020    1.9001 H       1  LIG1        0.1029
     55 H          -0.5056    2.8840    4.9240 H       1  LIG1        0.2954
     56 H          -0.7672   -1.1357    3.6124 H       1  LIG1        0.0363
     57 H           0.4855   -0.9779    0.8175 H       1  LIG1        0.0335
     58 H           0.5079   -2.3549    1.8951 H       1  LIG1        0.0335
     59 H           3.6255   -1.3812    5.1416 H       1  LIG1        0.0511
     60 H           3.0584    0.2526    4.8729 H       1  LIG1        0.0511
     61 H           5.0578   -1.3751    3.2684 H       1  LIG1        0.0332
     62 H           5.2181    0.2663    3.9042 H       1  LIG1        0.0332
     63 H           1.7701    0.5340   -0.0636 H       1  LIG1        0.1659
     64 H           3.4887    1.4875   -2.0420 H       1  LIG1        0.0638
     65 H           5.9084    1.8749   -2.4889 H       1  LIG1        0.0618
     66 H           7.5895    1.4968   -0.7194 H       1  LIG1        0.0618
     67 H           6.8990    0.7149    1.5322 H       1  LIG1        0.0624
@<TRIPOS>BOND
     1     1     2    2
     2     2     3    1
     3     3     4    1
     4     7     9    1
     5     7    12    1
     6    12    13    1
     7    13    14    1
     8    13    15    1
     9    15    16    1
    10    13    17    1
    11    17    20    1
    12    20    21    1
    13     9    20    1
    14    20    22    1
    15     4    23    1
    16    23    24    1
    17    24    25    2
    18    25    26    1
    19    26    27    1
    20    26    28    2
    21    25    29    1
    22     3    29    1
    23    29    30    1
    24    30    31    1
    25    31    32    2
    26    32    33    1
    27    33    34    1
    28    34    35    1
    29    35    36   ar
    30    31    36    1
    31    36    37   ar
    32    37    38   ar
    33    38    39   ar
    34    39    40   ar
    35    40    41   ar
    36    41    42   ar
    37    42    43   ar
    38    38    43   ar
    39    35    43   ar
    40     9    11    1
    41     9    10    1
    42     4     6    1
    43     4     5    1
    44     7     8    1
    45     7     6    1
    46    17    19    1
    47    17    18    1
    48     1    44    1
    49     1    45    1
    50     2    46    1
    51     3    47    1
    52    11    48    1
    53    15    49    1
    54    15    50    1
    55    16    51    1
    56    19    52    1
    57    22    53    1
    58    24    54    1
    59    27    55    1
    60    29    56    1
    61    30    57    1
    62    30    58    1
    63    33    59    1
    64    33    60    1
    65    34    61    1
    66    34    62    1
    67    37    63    1
    68    39    64    1
    69    40    65    1
    70    41    66    1
    71    42    67    1
