REMARK  Name = NuBBE_226
REMARK  18 active torsions:
REMARK  status: ('A' for Active; 'I' for Inactive)
REMARK    1  A    between atoms: C_1  and  C_2
REMARK    2  A    between atoms: C_4  and  O_6
REMARK    3  A    between atoms: O_6  and  C_7
REMARK    4  A    between atoms: C_7  and  C_8
REMARK    5  A    between atoms: C_8  and  C_9
REMARK    6  A    between atoms: C_9  and  C_10
REMARK    7  A    between atoms: C_15  and  O_17
REMARK    8  A    between atoms: O_17  and  C_18
REMARK    9  A    between atoms: C_18  and  C_19
REMARK   10  A    between atoms: C_22  and  O_24
REMARK   11  A    between atoms: O_24  and  C_25
REMARK   12  A    between atoms: C_25  and  C_26
REMARK   13  A    between atoms: C_29  and  O_31
REMARK   14  A    between atoms: C_35  and  C_36
REMARK   15  A    between atoms: C_35  and  C_37
REMARK   16  A    between atoms: C_37  and  C_38
REMARK   17  A    between atoms: C_39  and  C_40
REMARK   18  A    between atoms: C_39  and  C_42
REMARK                            x       y       z     vdW  Elec       q    Type
REMARK                         _______ _______ _______ _____ _____    ______ ____
ROOT
ATOM      1  C   LIG A   1       1.135   1.320   2.774  0.00  0.00    +0.012 C 
ATOM      2  C   LIG A   1      -0.165   0.883   2.085  0.00  0.00    +0.033 C 
ATOM      3  C   LIG A   1      -0.453  -0.590   2.412  0.00  0.00    +0.181 C 
ATOM      4  C   LIG A   1       0.424  -1.561   1.599  0.00  0.00    +0.062 C 
ATOM      5  C   LIG A   1       0.885  -1.124   0.168  0.00  0.00    +0.067 C 
ATOM      6  C   LIG A   1       0.882  -2.364  -0.710  0.00  0.00    +0.009 C 
ATOM      7  C   LIG A   1       2.121  -3.179  -0.439  0.00  0.00    +0.343 C 
ATOM      8  O   LIG A   1       3.032  -2.260   0.176  0.00  0.00    -0.297 OA
ATOM      9  C   LIG A   1       2.451  -0.941   0.160  0.00  0.00    +0.325 C 
ATOM     10  C   LIG A   1      -0.022  -2.639  -1.644  0.00  0.00    +0.010 C 
ATOM     11  C   LIG A   1      -1.151  -1.760  -1.987  0.00  0.00    +0.138 C 
ATOM     12  C   LIG A   1      -1.015  -0.315  -1.510  0.00  0.00    +0.040 C 
ATOM     13  C   LIG A   1       0.076   0.077  -0.444  0.00  0.00    +0.015 C 
ATOM     14  C   LIG A   1      -0.391   1.242   0.569  0.00  0.00    -0.019 C 
ATOM     15  C   LIG A   1      -1.927   1.532   0.455  0.00  0.00    +0.012 C 
ENDROOT
BRANCH  11  16
ATOM     16  O   LIG A   1      -1.282  -1.754  -3.405  0.00  0.00    -0.388 OA
ATOM     17  H   LIG A   1      -1.426  -2.673  -3.689  0.00  0.00    +0.210 HD
ENDBRANCH  11  16
BRANCH   3  18
ATOM     18  O   LIG A   1      -1.837  -1.009   2.317  0.00  0.00    -0.461 OA
BRANCH  18  19
ATOM     19  C   LIG A   1      -2.699  -0.428   3.208  0.00  0.00    +0.307 C 
ATOM     20  O   LIG A   1      -2.675   0.737   3.577  0.00  0.00    -0.251 OA
BRANCH  19  21
ATOM     21  C   LIG A   1      -3.687  -1.416   3.765  0.00  0.00    +0.120 C 
BRANCH  21  22
ATOM     22  C   LIG A   1      -4.990  -1.370   2.985  0.00  0.00    +0.008 C 
ATOM     23  C   LIG A   1      -6.058  -2.261   3.595  0.00  0.00    +0.004 C 
ENDBRANCH  21  22
ENDBRANCH  19  21
ENDBRANCH  18  19
ENDBRANCH   3  18
BRANCH   7  24
ATOM     24  O   LIG A   1       2.698  -3.703  -1.642  0.00  0.00    -0.431 OA
BRANCH  24  25
ATOM     25  C   LIG A   1       2.164  -4.861  -2.116  0.00  0.00    +0.306 C 
ATOM     26  C   LIG A   1       2.788  -5.242  -3.417  0.00  0.00    +0.136 C 
ATOM     27  O   LIG A   1       1.253  -5.496  -1.590  0.00  0.00    -0.251 OA
ENDBRANCH  24  25
ENDBRANCH   7  24
BRANCH   9  28
ATOM     28  O   LIG A   1       2.914  -0.196  -0.975  0.00  0.00    -0.434 OA
BRANCH  28  29
ATOM     29  C   LIG A   1       4.101   0.440  -0.809  0.00  0.00    +0.306 C 
ATOM     30  C   LIG A   1       4.379   1.316  -1.998  0.00  0.00    +0.136 C 
ATOM     31  O   LIG A   1       4.827   0.384   0.175  0.00  0.00    -0.251 OA
ENDBRANCH  28  29
ENDBRANCH   9  28
BRANCH  14  32
ATOM     32  C   LIG A   1       0.321   2.618   0.224  0.00  0.00    +0.034 C 
BRANCH  32  33
ATOM     33  C   LIG A   1      -0.021   3.184  -1.139  0.00  0.00    -0.023 C 
ATOM     34  C   LIG A   1       0.363   4.340  -1.715  0.00  0.00    -0.055 C 
ATOM     35  C   LIG A   1      -0.139   4.660  -3.106  0.00  0.00    +0.043 C 
BRANCH  34  36
ATOM     36  C   LIG A   1       1.232   5.304  -1.064  0.00  0.00    -0.005 C 
ATOM     37  C   LIG A   1       1.992   6.206  -1.704  0.00  0.00    +0.008 C 
ENDBRANCH  34  36
ENDBRANCH  32  33
ENDBRANCH  14  32
TORSDOF 12
