REMARK  Name = NuBBE_1289
REMARK  17 active torsions:
REMARK  status: ('A' for Active; 'I' for Inactive)
REMARK    1  A    between atoms: C_1  and  C_2
REMARK    2  A    between atoms: C_3  and  C_5
REMARK    3  A    between atoms: C_5  and  C_6
REMARK    4  A    between atoms: C_6  and  O_8
REMARK    5  A    between atoms: O_8  and  C_9
REMARK    6  A    between atoms: C_10  and  C_11
REMARK    7  A    between atoms: C_22  and  C_23
REMARK    8  A    between atoms: C_24  and  C_27
REMARK    9  A    between atoms: C_34  and  C_35
REMARK   10  A    between atoms: C_36  and  O_48
REMARK   11  A    between atoms: C_39  and  O_41
REMARK   12  A    between atoms: O_41  and  C_42
REMARK   13  A    between atoms: C_42  and  C_44
REMARK   14  A    between atoms: C_44  and  C_47
REMARK   15  A    between atoms: C_45  and  C_46
REMARK   16  A    between atoms: O_48  and  C_49
REMARK   17  A    between atoms: C_49  and  C_51
REMARK                            x       y       z     vdW  Elec       q    Type
REMARK                         _______ _______ _______ _____ _____    ______ ____
ROOT
ATOM      1  C   LIG A   1       0.241  -1.248   2.288  0.00  0.00    +0.019 C 
ATOM      2  C   LIG A   1       1.027  -0.572   1.136  0.00  0.00    +0.024 C 
ATOM      3  C   LIG A   1       0.189  -0.304  -0.192  0.00  0.00    +0.022 C 
ATOM      4  C   LIG A   1      -0.957   0.816   0.061  0.00  0.00    +0.015 C 
ATOM      5  C   LIG A   1      -1.952   0.285   1.151  0.00  0.00    +0.015 C 
ATOM      6  C   LIG A   1      -0.321   2.108   0.600  0.00  0.00    +0.042 C 
ATOM      7  C   LIG A   1       0.992   2.068   1.379  0.00  0.00    +0.152 C 
ATOM      8  C   LIG A   1       1.724   0.740   1.626  0.00  0.00    +0.158 C 
ATOM      9  O   LIG A   1       3.111   0.632   1.185  0.00  0.00    -0.366 OA
ATOM     10  C   LIG A   1       3.415  -0.703   1.586  0.00  0.00    +0.146 C 
ATOM     11  C   LIG A   1       2.242  -1.448   1.056  0.00  0.00    -0.033 C 
ATOM     12  C   LIG A   1       2.542  -2.716   0.751  0.00  0.00    -0.063 C 
ATOM     13  C   LIG A   1       1.614  -3.774   0.271  0.00  0.00    +0.040 C 
ATOM     14  C   LIG A   1       4.027  -2.961   1.009  0.00  0.00    +0.051 C 
ATOM     15  C   LIG A   1       4.587  -1.503   1.051  0.00  0.00    +0.048 C 
ATOM     16  O   LIG A   1       1.734   3.206   0.921  0.00  0.00    -0.373 OA
ATOM     17  C   LIG A   1       0.718   4.181   0.555  0.00  0.00    +0.171 C 
ATOM     18  C   LIG A   1      -0.258   3.365  -0.305  0.00  0.00    +0.034 C 
ATOM     19  C   LIG A   1       0.377   3.345  -1.718  0.00  0.00    +0.017 C 
ATOM     20  C   LIG A   1      -1.722   3.810  -0.522  0.00  0.00    +0.188 C 
ATOM     21  C   LIG A   1      -2.599   2.581  -0.992  0.00  0.00    +0.090 C 
ATOM     22  C   LIG A   1      -1.862   1.201  -1.177  0.00  0.00    +0.187 C 
ENDROOT
BRANCH  14  23
ATOM     23  C   LIG A   1       4.253  -3.745   2.286  0.00  0.00    -0.003 A 
ATOM     24  C   LIG A   1       4.976  -3.358   3.458  0.00  0.00    +0.045 A 
ATOM     25  C   LIG A   1       4.915  -4.409   4.341  0.00  0.00    +0.195 A 
ATOM     26  O   LIG A   1       4.199  -5.426   3.807  0.00  0.00    -0.471 OA
ATOM     27  C   LIG A   1       3.807  -5.026   2.571  0.00  0.00    +0.199 A 
ENDBRANCH  14  23
BRANCH   3  28
ATOM     28  C   LIG A   1       1.079   0.124  -1.390  0.00  0.00    +0.125 C 
BRANCH  28  29
ATOM     29  C   LIG A   1       2.163  -0.768  -1.947  0.00  0.00    +0.307 C 
ATOM     30  O   LIG A   1       3.349  -0.671  -1.657  0.00  0.00    -0.251 OA
BRANCH  29  31
ATOM     31  O   LIG A   1       1.680  -1.568  -2.931  0.00  0.00    -0.468 OA
ATOM     32  C   LIG A   1       2.700  -2.232  -3.684  0.00  0.00    +0.280 C 
ENDBRANCH  29  31
ENDBRANCH  28  29
ENDBRANCH   3  28
BRANCH  22  33
ATOM     33  O   LIG A   1      -2.842   0.140  -1.338  0.00  0.00    -0.457 OA
BRANCH  33  34
ATOM     34  C   LIG A   1      -3.474  -0.059  -2.509  0.00  0.00    +0.335 C 
ATOM     35  O   LIG A   1      -3.259   0.552  -3.554  0.00  0.00    -0.245 OA
BRANCH  34  36
ATOM     36  C   LIG A   1      -4.493  -1.147  -2.329  0.00  0.00    +0.029 C 
ATOM     37  C   LIG A   1      -4.998  -1.741  -3.436  0.00  0.00    -0.020 C 
ATOM     38  C   LIG A   1      -6.023  -2.834  -3.472  0.00  0.00    +0.035 C 
ATOM     39  C   LIG A   1      -4.909  -1.526  -0.937  0.00  0.00    +0.051 C 
ENDBRANCH  34  36
ENDBRANCH  33  34
ENDBRANCH  22  33
BRANCH  20  40
ATOM     40  O   LIG A   1      -2.359   4.399   0.641  0.00  0.00    -0.461 OA
BRANCH  40  41
ATOM     41  C   LIG A   1      -2.050   5.719   0.872  0.00  0.00    +0.304 C 
ATOM     42  O   LIG A   1      -1.073   6.297   0.464  0.00  0.00    -0.251 OA
ATOM     43  C   LIG A   1      -3.154   6.398   1.628  0.00  0.00    +0.136 C 
ENDBRANCH  40  41
ENDBRANCH  20  40
TORSDOF 9
