REMARK  Name = NuBBE_484
REMARK  20 active torsions:
REMARK  status: ('A' for Active; 'I' for Inactive)
REMARK    1  A    between atoms: C_1  and  C_2
REMARK    2  A    between atoms: C_7  and  C_8
REMARK    3  A    between atoms: C_7  and  C_47
REMARK    4  A    between atoms: C_8  and  O_9
REMARK    5  A    between atoms: O_9  and  C_10
REMARK    6  A    between atoms: C_10  and  C_11
REMARK    7  A    between atoms: C_13  and  O_43
REMARK    8  A    between atoms: C_17  and  C_42
REMARK    9  A    between atoms: C_23  and  C_41
REMARK   10  A    between atoms: C_26  and  C_37
REMARK   11  A    between atoms: C_29  and  O_36
REMARK   12  A    between atoms: C_31  and  C_32
REMARK   13  A    between atoms: C_31  and  C_35
REMARK   14  A    between atoms: C_37  and  O_38
REMARK   15  A    between atoms: O_38  and  C_39
REMARK   16  A    between atoms: O_43  and  C_44
REMARK   17  A    between atoms: C_44  and  C_45
REMARK   18  A    between atoms: C_47  and  O_48
REMARK   19  A    between atoms: O_48  and  C_49
REMARK   20  A    between atoms: C_49  and  C_50
REMARK                            x       y       z     vdW  Elec       q    Type
REMARK                         _______ _______ _______ _____ _____    ______ ____
ROOT
ATOM      1  C   LIG A   1      -2.257   1.666  -2.387  0.00  0.00    +0.012 C 
ATOM      2  C   LIG A   1      -0.985   1.250  -1.570  0.00  0.00    -0.019 C 
ATOM      3  C   LIG A   1      -0.398   0.066  -2.346  0.00  0.00    +0.008 C 
ATOM      4  C   LIG A   1      -1.226  -1.198  -2.178  0.00  0.00    +0.005 C 
ATOM      5  C   LIG A   1      -1.132  -1.617  -0.704  0.00  0.00    +0.011 C 
ATOM      6  C   LIG A   1      -1.184  -3.157  -0.420  0.00  0.00    +0.079 C 
ATOM      7  C   LIG A   1      -0.637  -3.337   1.048  0.00  0.00    +0.189 C 
ATOM      8  C   LIG A   1      -1.461  -2.467   2.051  0.00  0.00    +0.046 C 
ATOM      9  C   LIG A   1      -1.717  -0.982   1.702  0.00  0.00    +0.011 C 
ATOM     10  C   LIG A   1      -1.964  -0.634   0.191  0.00  0.00    -0.025 C 
ATOM     11  C   LIG A   1      -1.399   0.824  -0.102  0.00  0.00    +0.006 C 
ATOM     12  C   LIG A   1      -2.213   1.999   0.508  0.00  0.00    +0.031 C 
ATOM     13  C   LIG A   1      -1.495   3.328   0.325  0.00  0.00    -0.026 C 
ATOM     14  C   LIG A   1      -0.205   3.264  -0.083  0.00  0.00    -0.060 C 
ATOM     15  C   LIG A   1       0.080   2.500  -1.423  0.00  0.00    -0.005 C 
ATOM     16  C   LIG A   1       1.605   2.144  -1.591  0.00  0.00    +0.012 C 
ATOM     17  C   LIG A   1       2.426   1.883  -0.334  0.00  0.00    +0.019 C 
ATOM     18  C   LIG A   1       2.274   3.009   0.725  0.00  0.00    +0.077 C 
ATOM     19  C   LIG A   1       0.786   3.068   1.103  0.00  0.00    +0.061 C 
ATOM     20  C   LIG A   1       0.452   3.807   2.440  0.00  0.00    +0.128 C 
ATOM     21  C   LIG A   1       1.313   3.340   3.640  0.00  0.00    -0.008 C 
ATOM     22  C   LIG A   1       1.069   4.280   4.841  0.00  0.00    +0.013 C 
ATOM     23  C   LIG A   1       2.803   3.373   3.252  0.00  0.00    +0.010 C 
ATOM     24  C   LIG A   1       3.121   2.600   1.965  0.00  0.00    +0.019 C 
ATOM     25  C   LIG A   1       0.898   1.917   4.092  0.00  0.00    +0.013 C 
ATOM     26  C   LIG A   1      -0.151   3.501  -2.600  0.00  0.00    +0.016 C 
ATOM     27  C   LIG A   1      -3.490  -0.644  -0.024  0.00  0.00    +0.012 C 
ENDROOT
BRANCH  20  28
ATOM     28  O   LIG A   1       0.498   5.221   2.298  0.00  0.00    -0.391 OA
ATOM     29  H   LIG A   1       1.380   5.486   1.969  0.00  0.00    +0.210 HD
ENDBRANCH  20  28
BRANCH  18  30
ATOM     30  C   LIG A   1       2.812   4.341   0.181  0.00  0.00    +0.314 C 
ATOM     31  O   LIG A   1       2.432   5.448   0.541  0.00  0.00    -0.250 OA
BRANCH  30  32
ATOM     32  O   LIG A   1       3.876   4.119  -0.639  0.00  0.00    -0.468 OA
ATOM     33  C   LIG A   1       4.751   5.214  -0.906  0.00  0.00    +0.280 C 
ENDBRANCH  30  32
ENDBRANCH  18  30
BRANCH   6  34
ATOM     34  C   LIG A   1      -2.584  -3.834  -0.597  0.00  0.00    +0.246 C 
BRANCH  34  35
ATOM     35  O   LIG A   1      -2.982  -3.822  -1.991  0.00  0.00    -0.464 OA
BRANCH  35  36
ATOM     36  C   LIG A   1      -3.481  -4.992  -2.499  0.00  0.00    +0.304 C 
ATOM     37  C   LIG A   1      -3.365  -5.022  -4.000  0.00  0.00    +0.136 C 
ATOM     38  O   LIG A   1      -3.903  -5.924  -1.836  0.00  0.00    -0.251 OA
ENDBRANCH  35  36
ENDBRANCH  34  35
ENDBRANCH   6  34
BRANCH   7  39
ATOM     39  O   LIG A   1       0.785  -2.964   1.244  0.00  0.00    -0.461 OA
BRANCH  39  40
ATOM     40  C   LIG A   1       1.801  -3.810   0.870  0.00  0.00    +0.304 C 
ATOM     41  C   LIG A   1       3.125  -3.447   1.483  0.00  0.00    +0.136 C 
ATOM     42  O   LIG A   1       1.710  -4.791   0.191  0.00  0.00    -0.251 OA
ENDBRANCH  39  40
ENDBRANCH   7  39
BRANCH   6  43
ATOM     43  C   LIG A   1      -0.262  -3.861  -1.459  0.00  0.00    +0.246 C 
BRANCH  43  44
ATOM     44  O   LIG A   1      -0.253  -5.290  -1.310  0.00  0.00    -0.464 OA
BRANCH  44  45
ATOM     45  C   LIG A   1      -0.238  -5.986  -2.484  0.00  0.00    +0.304 C 
ATOM     46  C   LIG A   1      -0.176  -7.455  -2.251  0.00  0.00    +0.136 C 
ATOM     47  O   LIG A   1      -0.327  -5.491  -3.598  0.00  0.00    -0.251 OA
ENDBRANCH  44  45
ENDBRANCH  43  44
ENDBRANCH   6  43
TORSDOF 11
