@<TRIPOS>MOLECULE
NuBBE_221
 36 37 0 0 0
SMALL
GASTEIGER

@<TRIPOS>ATOM
      1 O          -4.3728   -0.4456   -0.4137 O.3     1  LIG1       -0.5065
      2 C          -3.0228   -0.3502   -0.2313 C.ar    1  LIG1        0.1204
      3 C          -2.2301   -1.4918   -0.1937 C.ar    1  LIG1       -0.0119
      4 C          -0.8287   -1.4237   -0.0237 C.ar    1  LIG1       -0.0112
      5 C          -0.2053   -0.1419    0.1045 C.ar    1  LIG1       -0.0112
      6 C           1.2258   -0.0603    0.2286 C.ar    1  LIG1       -0.0065
      7 C           1.9875    1.2822    0.2828 C.3     1  LIG1        0.1116
      8 C           1.8819    2.0408   -1.0702 C.3     1  LIG1        0.0769
      9 O           2.5392    3.3114   -1.0039 O.3     1  LIG1       -0.3918
     10 O           1.4357    2.1216    1.3172 O.3     1  LIG1       -0.3819
     11 C           3.4810    1.1718    0.6608 C.3     1  LIG1       -0.0297
     12 C           1.9614   -1.2607    0.2565 C.ar    1  LIG1       -0.0549
     13 C           1.3435   -2.5015    0.1614 C.ar    1  LIG1       -0.0579
     14 C          -0.0399   -2.5991    0.0153 C.ar    1  LIG1       -0.0426
     15 C          -0.6380   -3.9795   -0.1052 C.3     1  LIG1       -0.0391
     16 C          -1.0660    0.9887    0.0946 C.ar    1  LIG1       -0.0473
     17 C          -2.4551    0.9054   -0.0844 C.ar    1  LIG1       -0.0084
     18 C          -3.2998    2.1460   -0.1084 C.3     1  LIG1       -0.0362
     19 H          -4.6084   -1.3771   -0.5471 H       1  LIG1        0.2921
     20 H          -2.7149   -2.4574   -0.3050 H       1  LIG1        0.0660
     21 H           0.8479    2.2531   -1.3513 H       1  LIG1        0.0589
     22 H           2.3330    1.4632   -1.8840 H       1  LIG1        0.0589
     23 H           2.2467    3.7044   -0.1579 H       1  LIG1        0.2095
     24 H           1.1562    1.5274    2.0375 H       1  LIG1        0.2107
     25 H           4.0645    0.6649   -0.1156 H       1  LIG1        0.0261
     26 H           3.6118    0.6365    1.6088 H       1  LIG1        0.0261
     27 H           3.9266    2.1612    0.8191 H       1  LIG1        0.0261
     28 H           3.0449   -1.2667    0.3447 H       1  LIG1        0.0621
     29 H           1.9611   -3.3976    0.1905 H       1  LIG1        0.0620
     30 H           0.1256   -4.7604   -0.0182 H       1  LIG1        0.0278
     31 H          -1.1185   -4.1011   -1.0814 H       1  LIG1        0.0278
     32 H          -1.3671   -4.1522    0.6929 H       1  LIG1        0.0278
     33 H          -0.6575    1.9874    0.2298 H       1  LIG1        0.0627
     34 H          -2.6859    3.0520   -0.0770 H       1  LIG1        0.0279
     35 H          -3.9713    2.1630    0.7557 H       1  LIG1        0.0279
     36 H          -3.8923    2.1854   -1.0288 H       1  LIG1        0.0279
@<TRIPOS>BOND
     1     1     2    1
     2     2     3   ar
     3     3     4   ar
     4     4     5   ar
     5     5     6   ar
     6     6     7    1
     7     7     8    1
     8     8     9    1
     9     7    10    1
    10     7    11    1
    11     6    12   ar
    12    12    13   ar
    13    13    14   ar
    14     4    14   ar
    15    14    15    1
    16     5    16   ar
    17    16    17   ar
    18     2    17   ar
    19    17    18    1
    20     1    19    1
    21     3    20    1
    22     8    21    1
    23     8    22    1
    24     9    23    1
    25    10    24    1
    26    11    25    1
    27    11    26    1
    28    11    27    1
    29    12    28    1
    30    13    29    1
    31    15    30    1
    32    15    31    1
    33    15    32    1
    34    16    33    1
    35    18    34    1
    36    18    35    1
    37    18    36    1
