@<TRIPOS>MOLECULE
NuBBE_1580
 47 49 0 0 0
SMALL
GASTEIGER

@<TRIPOS>ATOM
      1 C           0.1547   -3.7199   -5.2554 C.3     1  LIG1        0.0788
      2 O           0.0433   -2.5333   -4.4727 O.3     1  LIG1       -0.4942
      3 C           0.0146   -2.7025   -3.1136 C.ar    1  LIG1        0.1381
      4 C          -0.5068   -3.8465   -2.5047 C.ar    1  LIG1        0.0264
      5 C          -0.5818   -3.9699   -1.1073 C.ar    1  LIG1        0.1687
      6 O          -1.0866   -5.1909   -0.7260 O.3     1  LIG1       -0.4912
      7 C          -1.1982   -5.4678    0.6631 C.3     1  LIG1        0.0790
      8 C          -0.1837   -2.9013   -0.2835 C.ar    1  LIG1        0.2051
      9 O          -0.2916   -3.0997    1.0642 O.3     1  LIG1       -0.4885
     10 C           0.0900   -2.1127    2.0029 C.3     1  LIG1        0.0791
     11 C           0.2734   -1.7249   -0.8994 C.ar    1  LIG1        0.1878
     12 O           0.5500   -0.6421   -0.1047 O.2     1  LIG1       -0.4507
     13 C           0.6461    0.6101   -0.6734 C.ar    1  LIG1        0.1395
     14 C           0.4886    1.7143    0.2965 C.ar    1  LIG1        0.0211
     15 C          -0.0697    2.9480   -0.0602 C.ar    1  LIG1       -0.0056
     16 C          -0.2553    3.9732    0.8839 C.ar    1  LIG1        0.1622
     17 O          -0.7736    5.1201    0.3370 O.3     1  LIG1       -0.4914
     18 C          -1.5793    5.9251    1.1884 C.3     1  LIG1        0.0790
     19 C           0.1450    3.7763    2.2147 C.ar    1  LIG1        0.1615
     20 O          -0.0065    4.7934    3.1180 O.3     1  LIG1       -0.4915
     21 C           0.9475    4.8346    4.1750 C.3     1  LIG1        0.0790
     22 C           0.6664    2.5340    2.5853 C.ar    1  LIG1       -0.0156
     23 C           0.8410    1.5229    1.6386 C.ar    1  LIG1       -0.0474
     24 C           0.9213    0.7904   -1.9710 C.ar    1  LIG1        0.0288
     25 C           0.4249   -1.6452   -2.2932 C.ar    1  LIG1        0.1094
     26 C           1.0596   -0.4148   -2.8086 C.ar    1  LIG1        0.1967
     27 O           1.7149   -0.3667   -3.8497 O.2     1  LIG1       -0.2869
     28 H          -0.7351   -4.3516   -5.1691 H       1  LIG1        0.0660
     29 H           1.0587   -4.2762   -4.9864 H       1  LIG1        0.0660
     30 H           0.2345   -3.4303   -6.3077 H       1  LIG1        0.0660
     31 H          -0.8877   -4.6750   -3.0949 H       1  LIG1        0.0692
     32 H          -1.8922   -4.7721    1.1467 H       1  LIG1        0.0660
     33 H          -0.2115   -5.4744    1.1393 H       1  LIG1        0.0660
     34 H          -1.6209   -6.4681    0.7834 H       1  LIG1        0.0660
     35 H          -0.0379   -2.5375    3.0027 H       1  LIG1        0.0660
     36 H          -0.5700   -1.2430    1.9390 H       1  LIG1        0.0660
     37 H           1.1474   -1.8515    1.8987 H       1  LIG1        0.0660
     38 H          -0.3935    3.1310   -1.0828 H       1  LIG1        0.0662
     39 H          -2.1099    6.6443    0.5567 H       1  LIG1        0.0660
     40 H          -0.9675    6.5108    1.8792 H       1  LIG1        0.0660
     41 H          -2.3302    5.3269    1.7156 H       1  LIG1        0.0660
     42 H           0.8527    5.8034    4.6737 H       1  LIG1        0.0660
     43 H           1.9714    4.7503    3.7940 H       1  LIG1        0.0660
     44 H           0.7398    4.0606    4.9204 H       1  LIG1        0.0660
     45 H           0.9450    2.3187    3.6117 H       1  LIG1        0.0655
     46 H           1.2667    0.5808    1.9737 H       1  LIG1        0.0626
     47 H           1.0923    1.7487   -2.4384 H       1  LIG1        0.0693
@<TRIPOS>BOND
     1     1     2    1
     2     2     3    1
     3     3     4   ar
     4     4     5   ar
     5     5     6    1
     6     6     7    1
     7     5     8   ar
     8     8     9    1
     9     9    10    1
    10     8    11   ar
    11    11    12   ar
    12    12    13   ar
    13    13    14    1
    14    14    15   ar
    15    15    16   ar
    16    16    17    1
    17    17    18    1
    18    16    19   ar
    19    19    20    1
    20    20    21    1
    21    19    22   ar
    22    22    23   ar
    23    14    23   ar
    24    13    24   ar
    25    11    25   ar
    26     3    25   ar
    27    25    26   ar
    28    24    26   ar
    29    26    27    2
    30     1    28    1
    31     1    29    1
    32     1    30    1
    33     4    31    1
    34     7    32    1
    35     7    33    1
    36     7    34    1
    37    10    35    1
    38    10    36    1
    39    10    37    1
    40    15    38    1
    41    18    39    1
    42    18    40    1
    43    18    41    1
    44    21    42    1
    45    21    43    1
    46    21    44    1
    47    22    45    1
    48    23    46    1
    49    24    47    1
