REMARK  Name = NuBBE_1602
REMARK  11 active torsions:
REMARK  status: ('A' for Active; 'I' for Inactive)
REMARK    1  A    between atoms: C_1  and  C_2
REMARK    2  A    between atoms: C_8  and  C_9
REMARK    3  A    between atoms: C_13  and  C_14
REMARK    4  A    between atoms: C_13  and  C_15
REMARK    5  A    between atoms: C_21  and  C_40
REMARK    6  A    between atoms: C_22  and  C_24
REMARK    7  A    between atoms: C_28  and  C_30
REMARK    8  A    between atoms: C_30  and  C_31
REMARK    9  A    between atoms: C_30  and  O_32
REMARK   10  A    between atoms: C_30  and  C_33
REMARK   11  A    between atoms: C_34  and  O_36
REMARK                            x       y       z     vdW  Elec       q    Type
REMARK                         _______ _______ _______ _____ _____    ______ ____
ROOT
ATOM      1  C   LIG A   1       2.835   1.668  -0.633  0.00  0.00    +0.016 C 
ATOM      2  C   LIG A   1       1.612   0.747  -0.847  0.00  0.00    -0.005 C 
ATOM      3  C   LIG A   1       0.379   1.681  -0.984  0.00  0.00    -0.063 C 
ATOM      4  C   LIG A   1      -0.119   2.086  -2.167  0.00  0.00    -0.026 C 
ATOM      5  C   LIG A   1      -1.159   3.141  -2.338  0.00  0.00    +0.032 C 
ATOM      6  C   LIG A   1      -1.292   4.109  -1.147  0.00  0.00    +0.012 C 
ATOM      7  C   LIG A   1      -1.331   3.312   0.210  0.00  0.00    -0.021 C 
ATOM      8  C   LIG A   1      -2.729   2.634   0.291  0.00  0.00    +0.012 C 
ATOM      9  C   LIG A   1      -1.222   4.295   1.420  0.00  0.00    +0.015 C 
ATOM     10  C   LIG A   1      -1.649   5.714   1.077  0.00  0.00    +0.075 C 
ATOM     11  C   LIG A   1      -0.726   6.274   0.018  0.00  0.00    +0.139 C 
ATOM     12  C   LIG A   1      -0.341   5.360  -1.159  0.00  0.00    +0.027 C 
ATOM     13  C   LIG A   1      -0.548   6.184  -2.451  0.00  0.00    +0.019 C 
ATOM     14  C   LIG A   1       1.155   5.050  -1.037  0.00  0.00    +0.019 C 
ATOM     15  O   LIG A   1      -0.321   7.439   0.103  0.00  0.00    -0.297 OA
ATOM     16  C   LIG A   1      -0.161   2.244   0.323  0.00  0.00    +0.021 C 
ATOM     17  C   LIG A   1      -0.493   1.067   1.256  0.00  0.00    +0.009 C 
ATOM     18  C   LIG A   1       0.731   0.194   1.530  0.00  0.00    +0.008 C 
ATOM     19  C   LIG A   1       1.437  -0.368   0.268  0.00  0.00    -0.020 C 
ATOM     20  C   LIG A   1       0.582  -1.489  -0.465  0.00  0.00    +0.001 C 
ATOM     21  C   LIG A   1       0.879  -1.280  -1.974  0.00  0.00    +0.005 C 
ATOM     22  C   LIG A   1       1.878  -0.138  -2.082  0.00  0.00    +0.012 C 
ATOM     23  C   LIG A   1       2.822  -0.909   0.726  0.00  0.00    +0.012 C 
ENDROOT
BRANCH  20  24
ATOM     24  C   LIG A   1       0.804  -2.980  -0.058  0.00  0.00    +0.021 C 
ATOM     25  C   LIG A   1      -0.066  -3.974  -0.859  0.00  0.00    +0.164 C 
ATOM     26  O   LIG A   1       0.297  -5.330  -0.565  0.00  0.00    -0.371 OA
ATOM     27  C   LIG A   1       0.141  -5.740   0.811  0.00  0.00    +0.177 C 
ATOM     28  C   LIG A   1       0.873  -4.751   1.736  0.00  0.00    +0.146 C 
ATOM     29  C   LIG A   1       0.542  -3.290   1.426  0.00  0.00    +0.040 C 
BRANCH  27  30
ATOM     30  C   LIG A   1      -1.330  -6.090   1.209  0.00  0.00    +0.089 C 
ATOM     31  C   LIG A   1      -1.397  -6.688   2.625  0.00  0.00    +0.044 C 
ATOM     32  C   LIG A   1      -1.908  -7.110   0.218  0.00  0.00    +0.044 C 
BRANCH  30  33
ATOM     33  O   LIG A   1      -2.188  -4.946   1.166  0.00  0.00    -0.387 OA
ATOM     34  H   LIG A   1      -2.218  -4.534   2.046  0.00  0.00    +0.210 HD
ENDBRANCH  30  33
ENDBRANCH  27  30
BRANCH  28  35
ATOM     35  O   LIG A   1       2.292  -4.927   1.567  0.00  0.00    -0.389 OA
ATOM     36  H   LIG A   1       2.445  -5.088   0.616  0.00  0.00    +0.210 HD
ENDBRANCH  28  35
ENDBRANCH  20  24
TORSDOF 4
