REMARK  Name = NuBBE_1767
REMARK  4 active torsions:
REMARK  status: ('A' for Active; 'I' for Inactive)
REMARK    1  A    between atoms: O_1  and  C_2
REMARK    2  A    between atoms: C_6  and  O_9
REMARK    3  A    between atoms: C_7  and  O_8
REMARK    4  A    between atoms: O_9  and  C_10
REMARK                            x       y       z     vdW  Elec       q    Type
REMARK                         _______ _______ _______ _____ _____    ______ ____
ROOT
ATOM      1  C   LIG A   1      -1.386  -0.004   0.003  0.00  0.00    +0.206 A 
ATOM      2  C   LIG A   1      -0.598   1.137   0.084  0.00  0.00    +0.184 A 
ATOM      3  C   LIG A   1       0.788   1.044   0.082  0.00  0.00    +0.025 A 
ATOM      4  C   LIG A   1       1.380  -0.221  -0.003  0.00  0.00    +0.061 A 
ATOM      5  C   LIG A   1       0.599  -1.388  -0.088  0.00  0.00    +0.166 A 
ATOM      6  C   LIG A   1      -0.794  -1.266  -0.083  0.00  0.00    +0.205 A 
ATOM      7  C   LIG A   1       1.574   2.264   0.169  0.00  0.00    +0.019 A 
ATOM      8  C   LIG A   1       0.950   3.443   0.247  0.00  0.00    +0.092 A 
ATOM      9  C   LIG A   1      -0.518   3.562   0.249  0.00  0.00    +0.337 A 
ATOM     10  O   LIG A   1      -1.061   4.658   0.321  0.00  0.00    -0.245 OA
ATOM     11  O   LIG A   1      -1.248   2.383   0.167  0.00  0.00    -0.418 OA
ENDROOT
BRANCH   1  12
ATOM     12  O   LIG A   1      -2.756   0.069   0.004  0.00  0.00    -0.501 OA
ATOM     13  H   LIG A   1      -2.984   1.017   0.069  0.00  0.00    +0.292 HD
ENDBRANCH   1  12
BRANCH   6  14
ATOM     14  O   LIG A   1      -1.636  -2.343  -0.158  0.00  0.00    -0.501 OA
ATOM     15  H   LIG A   1      -2.538  -1.963  -0.132  0.00  0.00    +0.292 HD
ENDBRANCH   6  14
BRANCH   5  16
ATOM     16  O   LIG A   1       1.353  -2.528  -0.165  0.00  0.00    -0.491 OA
ATOM     17  C   LIG A   1       0.673  -3.770  -0.285  0.00  0.00    +0.277 C 
ENDBRANCH   5  16
TORSDOF 3
