@<TRIPOS>MOLECULE
NuBBE_739
 21 22 0 0 0
SMALL
GASTEIGER

@<TRIPOS>ATOM
      1 O          -1.7458   -4.9010   -1.3873 O.2     1  LIG1       -0.2963
      2 C          -1.5275   -3.7509   -1.7444 C.2     1  LIG1        0.1431
      3 C          -0.9222   -2.7669   -0.8263 C.2     1  LIG1       -0.0219
      4 C          -0.6989   -1.5088   -1.2317 C.2     1  LIG1       -0.0515
      5 C          -0.1086   -0.4684   -0.3739 C.ar    1  LIG1       -0.0212
      6 C          -0.4820    0.8688   -0.5829 C.ar    1  LIG1       -0.0090
      7 C           0.0885    1.8398    0.2157 C.ar    1  LIG1        0.1668
      8 O          -0.1705    3.1738    0.1518 O.3     1  LIG1       -0.4526
      9 C           0.6887    3.6679    1.2012 C.3     1  LIG1        0.2332
     10 O           1.4436    2.6302    1.8603 O.3     1  LIG1       -0.4526
     11 C           1.0086    1.5320    1.1883 C.ar    1  LIG1        0.1663
     12 C           1.4160    0.2369    1.4123 C.ar    1  LIG1       -0.0156
     13 C           0.8549   -0.7691    0.6167 C.ar    1  LIG1       -0.0509
     14 H          -1.7673   -3.3942   -2.7599 H       1  LIG1        0.1075
     15 H          -0.6945   -3.1334    0.1674 H       1  LIG1        0.0650
     16 H          -0.9751   -1.1904   -2.2349 H       1  LIG1        0.0624
     17 H          -1.2064    1.1503   -1.3399 H       1  LIG1        0.0661
     18 H           0.0714    4.1807    1.9478 H       1  LIG1        0.1166
     19 H           1.3906    4.3903    0.7689 H       1  LIG1        0.1166
     20 H           2.1498    0.0055    2.1761 H       1  LIG1        0.0655
     21 H           1.1867   -1.7931    0.7748 H       1  LIG1        0.0625
@<TRIPOS>BOND
     1     1     2    2
     2     2     3    1
     3     3     4    2
     4     4     5    1
     5     5     6   ar
     6     6     7   ar
     7     7     8    1
     8     8     9    1
     9     9    10    1
    10     7    11   ar
    11    10    11    1
    12    11    12   ar
    13    12    13   ar
    14     5    13   ar
    15     2    14    1
    16     3    15    1
    17     4    16    1
    18     6    17    1
    19     9    18    1
    20     9    19    1
    21    12    20    1
    22    13    21    1
