@<TRIPOS>MOLECULE
NuBBE_2484
 74 79 0 0 0
SMALL
GASTEIGER

@<TRIPOS>ATOM
      1 C          -3.9470   -0.5486    0.3512 C.3     1  LIG1       -0.0582
      2 C          -3.0008    0.6353    0.4288 C.3     1  LIG1        0.0046
      3 H          -3.5520    1.5250    0.0901 H       1  LIG1        0.0343
      4 C          -2.3407    0.9361    1.8324 C.3     1  LIG1        0.1239
      5 O          -1.0814    1.6150    1.5263 O.3     1  LIG1       -0.3553
      6 C          -1.0389    1.7513    0.1159 C.3     1  LIG1        0.0649
      7 H          -1.5708    2.6715   -0.1653 H       1  LIG1        0.0600
      8 C          -1.7243    0.4980   -0.3731 C.3     1  LIG1       -0.0025
      9 H          -1.1990   -0.3626    0.0540 H       1  LIG1        0.0335
     10 C          -1.4772    0.4453   -1.8908 C.3     1  LIG1       -0.0233
     11 C          -2.6148    1.1024   -2.6892 C.3     1  LIG1       -0.0590
     12 C          -0.1638    1.3157   -2.0286 C.3     1  LIG1       -0.0296
     13 H          -0.4765    2.2855   -2.4518 H       1  LIG1        0.0310
     14 C           0.2884    1.6886   -0.5935 C.3     1  LIG1       -0.0226
     15 C           0.9043    0.8112   -3.0117 C.3     1  LIG1       -0.0306
     16 H           0.4897    1.0555   -4.0037 H       1  LIG1        0.0310
     17 C           1.1448   -0.7088   -3.0336 C.3     1  LIG1       -0.0285
     18 H           1.7003   -0.8739   -3.9716 H       1  LIG1        0.0312
     19 C          -0.2008   -1.4098   -3.2736 C.3     1  LIG1       -0.0486
     20 C          -1.3423   -1.0438   -2.3255 C.3     1  LIG1       -0.0467
     21 C           2.1016   -1.2820   -1.9039 C.3     1  LIG1       -0.0078
     22 C           1.3316   -1.8280   -0.6838 C.3     1  LIG1       -0.0556
     23 C           3.1449   -0.2399   -1.4663 C.2     1  LIG1       -0.0648
     24 C           3.1934    1.0115   -1.9469 C.2     1  LIG1       -0.0839
     25 C           2.2264    1.5807   -2.9328 C.3     1  LIG1       -0.0311
     26 C           4.2168   -0.7202   -0.5125 C.3     1  LIG1       -0.0051
     27 C           4.9535   -1.9388   -1.0758 C.3     1  LIG1        0.0590
     28 H           5.5838   -1.6202   -1.9149 H       1  LIG1        0.0596
     29 C           3.9961   -3.0298   -1.5607 C.3     1  LIG1       -0.0258
     30 C           2.9149   -2.4785   -2.5019 C.3     1  LIG1       -0.0413
     31 O           5.8238   -2.4820   -0.0837 O.3     1  LIG1       -0.3915
     32 C          -2.0010   -0.3521    2.6219 C.3     1  LIG1       -0.0094
     33 C          -1.2721   -0.0369    3.9222 C.3     1  LIG1       -0.0431
     34 C          -2.0680    0.9685    4.7560 C.3     1  LIG1       -0.0051
     35 H          -2.9800    0.4771    5.1227 H       1  LIG1        0.0335
     36 C          -2.5055    2.1764    3.9054 C.3     1  LIG1        0.0033
     37 N          -3.1893    1.7912    2.6577 N.3     1  LIG1       -0.2885
     38 C          -1.2324    1.4016    5.9633 C.3     1  LIG1        0.0482
     39 O          -2.0107    2.2075    6.8355 O.3     1  LIG1       -0.3947
     40 H          -4.3894   -0.6204   -0.6475 H       1  LIG1        0.0234
     41 H          -4.7655   -0.4381    1.0695 H       1  LIG1        0.0234
     42 H          -3.4380   -1.4967    0.5488 H       1  LIG1        0.0234
     43 H          -2.7879    2.1366   -2.3722 H       1  LIG1        0.0235
     44 H          -3.5587    0.5618   -2.5658 H       1  LIG1        0.0235
     45 H          -2.3774    1.1167   -3.7590 H       1  LIG1        0.0235
     46 H           0.7999    2.6562   -0.5592 H       1  LIG1        0.0293
     47 H           0.9508    0.9627   -0.1242 H       1  LIG1        0.0293
     48 H          -0.0656   -2.4980   -3.2807 H       1  LIG1        0.0268
     49 H          -0.5330   -1.1552   -4.2900 H       1  LIG1        0.0268
     50 H          -1.2627   -1.6977   -1.4511 H       1  LIG1        0.0271
     51 H          -2.2809   -1.3769   -2.7903 H       1  LIG1        0.0271
     52 H           0.7100   -1.0714   -0.2187 H       1  LIG1        0.0238
     53 H           1.9871   -2.1930    0.1124 H       1  LIG1        0.0238
     54 H           0.6965   -2.6763   -0.9583 H       1  LIG1        0.0238
     55 H           3.9914    1.6851   -1.6355 H       1  LIG1        0.0572
     56 H           2.7131    1.5685   -3.9167 H       1  LIG1        0.0310
     57 H           2.0376    2.6352   -2.7012 H       1  LIG1        0.0310
     58 H           3.7759   -0.9511    0.4646 H       1  LIG1        0.0335
     59 H           4.9526    0.0669   -0.3011 H       1  LIG1        0.0335
     60 H           3.5397   -3.5397   -0.7037 H       1  LIG1        0.0290
     61 H           4.5708   -3.8089   -2.0766 H       1  LIG1        0.0290
     62 H           2.2364   -3.2956   -2.7765 H       1  LIG1        0.0274
     63 H           3.4111   -2.1634   -3.4299 H       1  LIG1        0.0274
     64 H           5.2823   -2.7290    0.6856 H       1  LIG1        0.2098
     65 H          -1.3562   -1.0201    2.0411 H       1  LIG1        0.0306
     66 H          -2.9162   -0.9110    2.8550 H       1  LIG1        0.0306
     67 H          -1.1218   -0.9634    4.4894 H       1  LIG1        0.0270
     68 H          -0.2734    0.3581    3.6966 H       1  LIG1        0.0270
     69 H          -1.6445    2.8157    3.6734 H       1  LIG1        0.0428
     70 H          -3.1937    2.8015    4.4860 H       1  LIG1        0.0428
     71 H          -4.0400    1.2859    2.8961 H       1  LIG1        0.1246
     72 H          -0.3514    1.9726    5.6499 H       1  LIG1        0.0560
     73 H          -0.8922    0.5253    6.5264 H       1  LIG1        0.0560
     74 H          -1.4319    2.4619    7.5753 H       1  LIG1        0.2094
@<TRIPOS>BOND
     1     2     4    1
     2     4     5    1
     3     5     6    1
     4     6     8    1
     5     2     8    1
     6     8    10    1
     7    10    12    1
     8    12    14    1
     9     6    14    1
    10    12    15    1
    11    15    17    1
    12    17    19    1
    13    19    20    1
    14    10    20    1
    15    17    21    1
    16    21    23    1
    17    23    24    2
    18    24    25    1
    19    15    25    1
    20    23    26    1
    21    26    27    1
    22    27    29    1
    23    29    30    1
    24    21    30    1
    25     4    32    1
    26    32    33    1
    27    33    34    1
    28    34    35    1
    29    34    36    1
    30    36    37    1
    31     4    37    1
    32    34    38    1
    33    38    39    1
    34     1     2    1
    35     2     3    1
    36     6     7    1
    37     8     9    1
    38    10    11    1
    39    12    13    1
    40    15    16    1
    41    17    18    1
    42    21    22    1
    43    27    28    1
    44    27    31    1
    45     1    40    1
    46     1    41    1
    47     1    42    1
    48    11    43    1
    49    11    44    1
    50    11    45    1
    51    14    46    1
    52    14    47    1
    53    19    48    1
    54    19    49    1
    55    20    50    1
    56    20    51    1
    57    22    52    1
    58    22    53    1
    59    22    54    1
    60    24    55    1
    61    25    56    1
    62    25    57    1
    63    26    58    1
    64    26    59    1
    65    29    60    1
    66    29    61    1
    67    30    62    1
    68    30    63    1
    69    31    64    1
    70    32    65    1
    71    32    66    1
    72    33    67    1
    73    33    68    1
    74    36    69    1
    75    36    70    1
    76    37    71    1
    77    38    72    1
    78    38    73    1
    79    39    74    1
