@<TRIPOS>MOLECULE
NuBBE_963
 77 78 0 0 0
SMALL
GASTEIGER

@<TRIPOS>ATOM
      1 C          -6.5132   -3.6164    6.9446 C.3     1  LIG1       -0.0252
      2 C          -5.8548   -3.2918    5.5768 C.3     1  LIG1        0.1268
      3 H          -4.9283   -3.8533    5.5115 H       1  LIG1        0.0757
      4 O          -6.6470   -3.7415    4.4970 O.3     1  LIG1       -0.4587
      5 C          -6.6645   -2.8317    3.4635 C.2     1  LIG1        0.3132
      6 C          -5.7023   -1.7664    3.7475 C.3     1  LIG1        0.0857
      7 H          -6.1222   -0.7713    3.4408 H       1  LIG1        0.0440
      8 C          -4.2715   -1.9150    3.0868 C.3     1  LIG1       -0.0376
      9 C          -4.1446   -1.6017    1.5640 C.3     1  LIG1       -0.0522
     10 C          -2.7198   -1.7893    0.9034 C.3     1  LIG1       -0.0530
     11 C          -1.6047   -0.8336    1.3908 C.3     1  LIG1       -0.0531
     12 C          -0.1216   -1.1179    0.9042 C.3     1  LIG1       -0.0531
     13 C           0.1751   -0.9029   -0.6038 C.3     1  LIG1       -0.0531
     14 C           1.6180   -1.2250   -1.1745 C.3     1  LIG1       -0.0531
     15 C           1.7522   -1.0209   -2.7172 C.3     1  LIG1       -0.0531
     16 C           3.1354   -1.1428   -3.3560 C.3     1  LIG1       -0.0531
     17 C           4.1036   -2.2960   -3.1964 C.3     1  LIG1       -0.0531
     18 C           5.4588   -1.9160   -3.8655 C.3     1  LIG1       -0.0531
     19 C           6.2814   -0.7309   -3.2515 C.3     1  LIG1       -0.0531
     20 C           6.0735    0.8466   -3.4336 C.3     1  LIG1       -0.0531
     21 C           4.7731    1.6261   -2.9795 C.3     1  LIG1       -0.0530
     22 C           4.7041    3.1860   -3.1162 C.3     1  LIG1       -0.0528
     23 C           3.3629    3.9393   -2.6750 C.3     1  LIG1       -0.0491
     24 C           2.7542    3.5957   -1.2918 C.3     1  LIG1       -0.0277
     25 C           1.2927    4.0247   -1.0542 C.ar    1  LIG1       -0.0474
     26 C           0.2784    3.0519   -1.1023 C.ar    1  LIG1       -0.0586
     27 C          -1.0684    3.3297   -0.8147 C.ar    1  LIG1       -0.0615
     28 C          -1.4537    4.6256   -0.5150 C.ar    1  LIG1       -0.0617
     29 C          -0.4742    5.6203   -0.4609 C.ar    1  LIG1       -0.0615
     30 C           0.8912    5.3241   -0.7069 C.ar    1  LIG1       -0.0586
     31 C          -5.6652   -1.8231    5.2873 C.3     1  LIG1        0.1046
     32 H          -4.7444   -1.4291    5.7466 H       1  LIG1        0.0638
     33 O          -6.7571   -1.0612    5.8152 O.3     1  LIG1       -0.3873
     34 O          -7.3983   -2.9346    2.4325 O.2     1  LIG1       -0.2504
     35 H          -6.6264   -4.6997    7.0714 H       1  LIG1        0.0266
     36 H          -7.5239   -3.2011    7.0348 H       1  LIG1        0.0266
     37 H          -5.9070   -3.2419    7.7756 H       1  LIG1        0.0266
     38 H          -3.8917   -2.9297    3.2733 H       1  LIG1        0.0274
     39 H          -3.6051   -1.2118    3.6019 H       1  LIG1        0.0274
     40 H          -4.4653   -0.5674    1.3837 H       1  LIG1        0.0265
     41 H          -4.8468   -2.2445    1.0129 H       1  LIG1        0.0265
     42 H          -2.8367   -1.6206   -0.1765 H       1  LIG1        0.0265
     43 H          -2.3958   -2.8297    1.0221 H       1  LIG1        0.0265
     44 H          -1.6063   -0.8639    2.4877 H       1  LIG1        0.0265
     45 H          -1.8808    0.1945    1.1194 H       1  LIG1        0.0265
     46 H           0.1804   -2.1300    1.2055 H       1  LIG1        0.0265
     47 H           0.5092   -0.4193    1.4736 H       1  LIG1        0.0265
     48 H          -0.0374    0.1535   -0.7753 H       1  LIG1        0.0265
     49 H          -0.5448   -1.4927   -1.1756 H       1  LIG1        0.0265
     50 H           1.8885   -2.2641   -0.9581 H       1  LIG1        0.0265
     51 H           2.3620   -0.5905   -0.6757 H       1  LIG1        0.0265
     52 H           1.4879    0.0237   -2.9466 H       1  LIG1        0.0265
     53 H           1.0673   -1.6688   -3.2685 H       1  LIG1        0.0265
     54 H           3.6622   -0.3448   -2.8668 H       1  LIG1        0.0265
     55 H           3.0454   -0.8976   -4.4319 H       1  LIG1        0.0265
     56 H           3.7148   -3.2200   -3.6531 H       1  LIG1        0.0265
     57 H           4.2701   -2.5202   -2.1374 H       1  LIG1        0.0265
     58 H           5.3396   -1.8013   -4.9498 H       1  LIG1        0.0265
     59 H           6.0938   -2.8176   -3.7643 H       1  LIG1        0.0265
     60 H           7.2954   -0.9029   -3.6608 H       1  LIG1        0.0265
     61 H           6.3894   -0.9440   -2.1820 H       1  LIG1        0.0265
     62 H           6.3323    1.1159   -4.4695 H       1  LIG1        0.0265
     63 H           6.8927    1.2717   -2.8240 H       1  LIG1        0.0265
     64 H           4.6064    1.3725   -1.9229 H       1  LIG1        0.0265
     65 H           3.9424    1.3031   -3.6114 H       1  LIG1        0.0265
     66 H           4.8429    3.4167   -4.1850 H       1  LIG1        0.0265
     67 H           5.5560    3.6332   -2.5942 H       1  LIG1        0.0265
     68 H           2.5898    3.7627   -3.4497 H       1  LIG1        0.0268
     69 H           3.5538    5.0374   -2.6923 H       1  LIG1        0.0268
     70 H           3.3752    4.0357   -0.5011 H       1  LIG1        0.0313
     71 H           2.8085    2.5086   -1.1411 H       1  LIG1        0.0313
     72 H           0.5452    2.0336   -1.3481 H       1  LIG1        0.0620
     73 H          -1.8080    2.5304   -0.8239 H       1  LIG1        0.0618
     74 H          -2.5033    4.8508   -0.3200 H       1  LIG1        0.0618
     75 H          -0.7936    6.6314   -0.2052 H       1  LIG1        0.0618
     76 H           1.6337    6.1130   -0.5889 H       1  LIG1        0.0620
     77 H          -6.5109   -0.1223    5.8404 H       1  LIG1        0.2100
@<TRIPOS>BOND
     1     1     2    1
     2     2     3    1
     3     2     4    1
     4     4     5    1
     5     5     6    1
     6     6     7    1
     7     6     8    1
     8     8     9    1
     9     9    10    1
    10    10    11    1
    11    11    12    1
    12    12    13    1
    13    13    14    1
    14    14    15    1
    15    15    16    1
    16    16    17    1
    17    17    18    1
    18    18    19    1
    19    19    20    1
    20    20    21    1
    21    21    22    1
    22    22    23    1
    23    23    24    1
    24    24    25    1
    25    25    26   ar
    26    26    27   ar
    27    27    28   ar
    28    28    29   ar
    29    29    30   ar
    30    25    30   ar
    31     6    31    1
    32     2    31    1
    33     5    34    2
    34    31    33    1
    35    31    32    1
    36     1    35    1
    37     1    36    1
    38     1    37    1
    39     8    38    1
    40     8    39    1
    41     9    40    1
    42     9    41    1
    43    10    42    1
    44    10    43    1
    45    11    44    1
    46    11    45    1
    47    12    46    1
    48    12    47    1
    49    13    48    1
    50    13    49    1
    51    14    50    1
    52    14    51    1
    53    15    52    1
    54    15    53    1
    55    16    54    1
    56    16    55    1
    57    17    56    1
    58    17    57    1
    59    18    58    1
    60    18    59    1
    61    19    60    1
    62    19    61    1
    63    20    62    1
    64    20    63    1
    65    21    64    1
    66    21    65    1
    67    22    66    1
    68    22    67    1
    69    23    68    1
    70    23    69    1
    71    24    70    1
    72    24    71    1
    73    26    72    1
    74    27    73    1
    75    28    74    1
    76    29    75    1
    77    30    76    1
    78    33    77    1
