REMARK  Name = NuBBE_213
REMARK  13 active torsions:
REMARK  status: ('A' for Active; 'I' for Inactive)
REMARK    1  A    between atoms: C_1  and  O_2
REMARK    2  A    between atoms: O_2  and  C_3
REMARK    3  A    between atoms: C_4  and  O_16
REMARK    4  A    between atoms: C_5  and  O_6
REMARK    5  A    between atoms: O_6  and  C_7
REMARK    6  A    between atoms: C_9  and  C_10
REMARK    7  A    between atoms: C_11  and  C_12
REMARK    8  A    between atoms: O_16  and  C_17
REMARK    9  A    between atoms: C_20  and  C_28
REMARK   10  A    between atoms: C_22  and  O_27
REMARK   11  A    between atoms: C_24  and  O_26
REMARK   12  A    between atoms: C_28  and  O_29
REMARK   13  A    between atoms: C_30  and  O_32
REMARK                            x       y       z     vdW  Elec       q    Type
REMARK                         _______ _______ _______ _____ _____    ______ ____
ROOT
ATOM      1  O   LIG A   1      -0.716   0.222  -0.203  0.00  0.00    -0.454 OA
ENDROOT
BRANCH   1   3
ATOM      2  C   LIG A   1       1.397  -1.105   0.026  0.00  0.00    +0.166 A 
ATOM      3  C   LIG A   1       0.608   0.058   0.180  0.00  0.00    +0.207 A 
ATOM      4  C   LIG A   1       1.242   1.194   0.777  0.00  0.00    +0.166 A 
ATOM      5  C   LIG A   1       2.610   1.150   1.135  0.00  0.00    +0.057 A 
ATOM      6  C   LIG A   1       3.369   0.007   0.938  0.00  0.00    -0.018 A 
ATOM      7  C   LIG A   1       2.757  -1.106   0.386  0.00  0.00    +0.057 A 
BRANCH   2   9
ATOM      8  C   LIG A   1       1.426  -3.482  -0.107  0.00  0.00    +0.277 C 
ATOM      9  O   LIG A   1       0.875  -2.240  -0.528  0.00  0.00    -0.491 OA
ENDBRANCH   2   9
BRANCH   4  10
ATOM     10  O   LIG A   1       0.481   2.325   1.014  0.00  0.00    -0.491 OA
ATOM     11  C   LIG A   1       1.161   3.442   1.603  0.00  0.00    +0.277 C 
ENDBRANCH   4  10
BRANCH   6  12
ATOM     12  C   LIG A   1       4.782  -0.060   1.315  0.00  0.00    +0.011 C 
ATOM     13  C   LIG A   1       5.759   0.265   0.459  0.00  0.00    +0.043 C 
BRANCH  13  14
ATOM     14  C   LIG A   1       7.173   0.101   0.863  0.00  0.00    +0.251 C 
ATOM     15  O   LIG A   1       8.071   0.087   0.048  0.00  0.00    -0.296 OA
ENDBRANCH  13  14
ENDBRANCH   6  12
ENDBRANCH   1   3
BRANCH   1  16
ATOM     16  C   LIG A   1      -1.540  -0.854  -0.705  0.00  0.00    +0.340 C 
ATOM     17  O   LIG A   1      -2.135  -0.580  -1.992  0.00  0.00    -0.331 OA
ATOM     18  C   LIG A   1      -3.300   0.243  -2.021  0.00  0.00    +0.179 C 
ATOM     19  C   LIG A   1      -4.376  -0.165  -0.994  0.00  0.00    +0.177 C 
ATOM     20  C   LIG A   1      -3.785  -0.369   0.404  0.00  0.00    +0.180 C 
ATOM     21  C   LIG A   1      -2.584  -1.323   0.336  0.00  0.00    +0.214 C 
BRANCH  20  22
ATOM     22  O   LIG A   1      -3.451   0.891   0.975  0.00  0.00    -0.386 OA
ATOM     23  H   LIG A   1      -3.549   0.813   1.940  0.00  0.00    +0.210 HD
ENDBRANCH  20  22
BRANCH  19  24
ATOM     24  O   LIG A   1      -4.983  -1.413  -1.400  0.00  0.00    -0.387 OA
ATOM     25  H   LIG A   1      -5.670  -1.185  -2.055  0.00  0.00    +0.210 HD
ENDBRANCH  19  24
BRANCH  21  26
ATOM     26  O   LIG A   1      -3.056  -2.654   0.016  0.00  0.00    -0.383 OA
ATOM     27  H   LIG A   1      -3.721  -2.551  -0.703  0.00  0.00    +0.210 HD
ENDBRANCH  21  26
BRANCH  18  28
ATOM     28  C   LIG A   1      -2.908   1.719  -1.982  0.00  0.00    +0.190 C 
BRANCH  28  29
ATOM     29  O   LIG A   1      -4.059   2.551  -2.074  0.00  0.00    -0.392 OA
ATOM     30  H   LIG A   1      -3.744   3.459  -1.922  0.00  0.00    +0.209 HD
ENDBRANCH  28  29
ENDBRANCH  18  28
ENDBRANCH   1  16
TORSDOF 11
