REMARK  Name = NuBBE_1928
REMARK  3 active torsions:
REMARK  status: ('A' for Active; 'I' for Inactive)
REMARK    1  A    between atoms: C_1  and  C_2
REMARK    2  A    between atoms: C_2  and  C_3
REMARK    3  A    between atoms: C_8  and  C_18
REMARK                            x       y       z     vdW  Elec       q    Type
REMARK                         _______ _______ _______ _____ _____    ______ ____
ROOT
ATOM      1  C   LIG A   1      -1.988  -0.840   1.842  0.00  0.00    +0.011 C 
ATOM      2  C   LIG A   1      -0.461  -0.738   1.702  0.00  0.00    -0.031 C 
ATOM      3  C   LIG A   1       0.133  -0.389   3.075  0.00  0.00    +0.011 C 
ATOM      4  C   LIG A   1      -0.001   0.281   0.670  0.00  0.00    +0.006 C 
ATOM      5  C   LIG A   1      -0.866   0.550  -0.572  0.00  0.00    +0.003 C 
ATOM      6  C   LIG A   1       0.137   0.016  -1.606  0.00  0.00    -0.008 C 
ATOM      7  C   LIG A   1       1.390   0.811  -1.065  0.00  0.00    -0.067 C 
ATOM      8  C   LIG A   1       2.372   1.337  -1.797  0.00  0.00    +0.008 C 
ATOM      9  C   LIG A   1       0.998   1.372   0.375  0.00  0.00    +0.019 C 
ATOM     10  C   LIG A   1       0.128   2.605   0.253  0.00  0.00    +0.008 C 
ATOM     11  C   LIG A   1      -1.030   2.096  -0.604  0.00  0.00    +0.005 C 
ATOM     12  C   LIG A   1       0.018  -1.573  -1.470  0.00  0.00    +0.011 C 
ATOM     13  C   LIG A   1       0.564  -2.377  -0.257  0.00  0.00    +0.001 C 
ATOM     14  C   LIG A   1       0.063  -2.172   1.224  0.00  0.00    +0.007 C 
ATOM     15  C   LIG A   1      -0.218   0.377  -3.057  0.00  0.00    +0.016 C 
ENDROOT
TORSDOF 0
