@<TRIPOS>MOLECULE
NuBBE_1305
 38 41 0 0 0
SMALL
GASTEIGER

@<TRIPOS>ATOM
      1 O          -3.7292   -0.0406   -0.0159 O.2     1  LIG1       -0.2869
      2 C          -2.5051    0.0141   -0.0214 C.ar    1  LIG1        0.1966
      3 C          -1.7461   -1.2489   -0.0156 C.ar    1  LIG1        0.0288
      4 C          -0.4078   -1.2328   -0.0684 C.ar    1  LIG1        0.1393
      5 C           0.3972   -2.4792   -0.0813 C.ar    1  LIG1        0.0211
      6 C           1.6961   -2.4930    0.4612 C.ar    1  LIG1       -0.0055
      7 C           2.4150   -3.6731    0.4276 C.ar    1  LIG1        0.1669
      8 O           3.6736   -3.8531    0.9131 O.3     1  LIG1       -0.4526
      9 C           3.8862   -5.2486    0.6098 C.3     1  LIG1        0.2332
     10 O           2.7633   -5.8690   -0.0487 O.3     1  LIG1       -0.4526
     11 C           1.8999   -4.8223   -0.1202 C.ar    1  LIG1        0.1663
     12 C           0.6413   -4.8557   -0.6720 C.ar    1  LIG1       -0.0155
     13 C          -0.1072   -3.6728   -0.6570 C.ar    1  LIG1       -0.0474
     14 O           0.3368   -0.0673   -0.1011 O.2     1  LIG1       -0.4544
     15 C          -1.7136    1.2661   -0.0372 C.ar    1  LIG1        0.1057
     16 C          -0.3207    1.1401   -0.0751 C.ar    1  LIG1        0.1462
     17 C           0.5012    2.2700   -0.0905 C.ar    1  LIG1        0.0233
     18 C          -0.0662    3.5389   -0.0665 C.ar    1  LIG1        0.1271
     19 O           0.6144    4.7249   -0.0794 O.3     1  LIG1       -0.4949
     20 C           2.0343    4.6503   -0.1132 C.3     1  LIG1        0.0788
     21 C          -1.4580    3.6690   -0.0266 C.ar    1  LIG1        0.0227
     22 C          -2.2968    2.5460   -0.0137 C.ar    1  LIG1        0.1379
     23 O          -3.6623    2.6299    0.0220 O.3     1  LIG1       -0.4942
     24 C          -4.2574    3.9210    0.0319 C.3     1  LIG1        0.0788
     25 H          -2.3435   -2.1497    0.0322 H       1  LIG1        0.0693
     26 H           2.1385   -1.6092    0.9093 H       1  LIG1        0.0662
     27 H           4.0842   -5.7855    1.5448 H       1  LIG1        0.1166
     28 H           4.7650   -5.3378   -0.0393 H       1  LIG1        0.1166
     29 H           0.2437   -5.7659   -1.1065 H       1  LIG1        0.0655
     30 H          -1.0947   -3.6948   -1.1133 H       1  LIG1        0.0626
     31 H           1.5756    2.1232   -0.1210 H       1  LIG1        0.0691
     32 H           2.4226    5.6728   -0.1300 H       1  LIG1        0.0660
     33 H           2.3809    4.1465   -1.0215 H       1  LIG1        0.0660
     34 H           2.4221    4.1591    0.7853 H       1  LIG1        0.0660
     35 H          -1.8607    4.6775   -0.0057 H       1  LIG1        0.0691
     36 H          -5.3439    3.7925    0.0183 H       1  LIG1        0.0660
     37 H          -3.9816    4.4924   -0.8608 H       1  LIG1        0.0660
     38 H          -3.9972    4.4648    0.9461 H       1  LIG1        0.0660
@<TRIPOS>BOND
     1     1     2    2
     2     2     3   ar
     3     3     4   ar
     4     4     5    1
     5     5     6   ar
     6     6     7   ar
     7     7     8    1
     8     8     9    1
     9     9    10    1
    10     7    11   ar
    11    10    11    1
    12    11    12   ar
    13    12    13   ar
    14     5    13   ar
    15     4    14   ar
    16     2    15   ar
    17    15    16   ar
    18    14    16   ar
    19    16    17   ar
    20    17    18   ar
    21    18    19    1
    22    19    20    1
    23    18    21   ar
    24    21    22   ar
    25    15    22   ar
    26    22    23    1
    27    23    24    1
    28     3    25    1
    29     6    26    1
    30     9    27    1
    31     9    28    1
    32    12    29    1
    33    13    30    1
    34    17    31    1
    35    20    32    1
    36    20    33    1
    37    20    34    1
    38    21    35    1
    39    24    36    1
    40    24    37    1
    41    24    38    1
