@<TRIPOS>MOLECULE
NuBBE_1085
 54 58 0 0 0
SMALL
GASTEIGER

@<TRIPOS>ATOM
      1 C          -2.8781   -4.2711    2.0951 C.3     1  LIG1       -0.0440
      2 C          -1.4181   -3.9906    1.8653 C.2     1  LIG1       -0.0790
      3 C          -0.4978   -5.0135    2.4809 C.3     1  LIG1       -0.0440
      4 C          -0.9217   -2.9367    1.1834 C.2     1  LIG1       -0.0778
      5 C          -1.6915   -1.8203    0.5197 C.3     1  LIG1        0.0038
      6 H          -2.7724   -1.9579    0.6131 H       1  LIG1        0.0392
      7 C          -1.3336   -0.4278    1.0974 C.3     1  LIG1       -0.0298
      8 H          -2.2695    0.0694    1.3882 H       1  LIG1        0.0285
      9 H          -0.7579   -0.5100    2.0297 H       1  LIG1        0.0285
     10 C          -0.5651    0.4041    0.0170 C.3     1  LIG1        0.0124
     11 C          -1.2403    1.7660   -0.1557 C.2     1  LIG1       -0.0732
     12 C          -0.8098    3.0376   -0.0486 C.2     1  LIG1       -0.0576
     13 C           0.5260    3.5347    0.2921 C.ar    1  LIG1       -0.0233
     14 C           0.8626    3.7746    1.6330 C.ar    1  LIG1       -0.0307
     15 C           2.1691    4.2020    1.9151 C.ar    1  LIG1        0.0470
     16 N           2.7807    4.4645    3.1211 N.ar    1  LIG1       -0.3606
     17 H           2.3299    4.3836    4.0219 H       1  LIG1        0.1653
     18 C           4.0910    4.8126    2.9229 C.ar    1  LIG1        0.0027
     19 C           4.3248    4.8133    1.5666 C.ar    1  LIG1       -0.0367
     20 C           3.1189    4.4274    0.9185 C.ar    1  LIG1       -0.0003
     21 C           2.7470    4.2373   -0.4256 C.ar    1  LIG1       -0.0520
     22 C           1.4524    3.7882   -0.7239 C.ar    1  LIG1       -0.0539
     23 C           0.9284    0.4327    0.3691 C.3     1  LIG1       -0.0520
     24 C          -0.7597   -0.4517   -1.2273 C.ar    1  LIG1       -0.0320
     25 C          -0.3614   -0.1318   -2.5253 C.ar    1  LIG1       -0.0335
     26 C          -0.6181   -1.0914   -3.5164 C.ar    1  LIG1        0.0468
     27 C          -1.2495   -2.3091   -3.2579 C.ar    1  LIG1       -0.0001
     28 C          -1.3486   -3.0035   -4.4968 C.ar    1  LIG1       -0.0367
     29 C          -0.7658   -2.2179   -5.4644 C.ar    1  LIG1        0.0027
     30 N          -0.3258   -1.0694   -4.8638 N.ar    1  LIG1       -0.3606
     31 H           0.1528   -0.3120   -5.3314 H       1  LIG1        0.1653
     32 C          -1.6413   -2.6129   -1.9381 C.ar    1  LIG1       -0.0486
     33 C          -1.3726   -1.6718   -0.9394 C.ar    1  LIG1       -0.0358
     34 H          -3.1525   -5.2275    1.6376 H       1  LIG1        0.0274
     35 H          -3.5443   -3.5119    1.6829 H       1  LIG1        0.0274
     36 H          -3.0844   -4.3307    3.1690 H       1  LIG1        0.0274
     37 H          -0.6561   -5.0577    3.5641 H       1  LIG1        0.0274
     38 H           0.5590   -4.7832    2.3108 H       1  LIG1        0.0274
     39 H          -0.6955   -6.0056    2.0617 H       1  LIG1        0.0274
     40 H           0.1617   -2.8589    1.0795 H       1  LIG1        0.0578
     41 H          -2.2929    1.6713   -0.4388 H       1  LIG1        0.0581
     42 H          -1.5232    3.8385   -0.2435 H       1  LIG1        0.0621
     43 H           0.1438    3.6096    2.4291 H       1  LIG1        0.0644
     44 H           4.7417    5.0276    3.7600 H       1  LIG1        0.0807
     45 H           5.2679    5.0483    1.0901 H       1  LIG1        0.0638
     46 H           3.4608    4.4180   -1.2236 H       1  LIG1        0.0624
     47 H           1.1801    3.6245   -1.7639 H       1  LIG1        0.0624
     48 H           1.1025    0.9439    1.3211 H       1  LIG1        0.0241
     49 H           1.5199    0.9261   -0.4089 H       1  LIG1        0.0241
     50 H           1.3361   -0.5795    0.4747 H       1  LIG1        0.0241
     51 H           0.1296    0.8081   -2.7527 H       1  LIG1        0.0641
     52 H          -1.7912   -3.9767   -4.6569 H       1  LIG1        0.0638
     53 H          -0.6236   -2.3790   -6.5253 H       1  LIG1        0.0807
     54 H          -2.1242   -3.5543   -1.7025 H       1  LIG1        0.0627
@<TRIPOS>BOND
     1     1     2    1
     2     2     3    1
     3     2     4    2
     4     5     7    1
     5     7     8    1
     6     7     9    1
     7     7    10    1
     8    10    11    1
     9    11    12    2
    10    12    13    1
    11    13    14   ar
    12    14    15   ar
    13    15    16   ar
    14    16    17    1
    15    16    18   ar
    16    18    19   ar
    17    15    20   ar
    18    19    20   ar
    19    20    21   ar
    20    21    22   ar
    21    13    22   ar
    22    10    23    1
    23    10    24    1
    24    24    25   ar
    25    25    26   ar
    26    26    27   ar
    27    27    28   ar
    28    28    29   ar
    29    29    30   ar
    30    26    30   ar
    31    30    31    1
    32    27    32   ar
    33    32    33   ar
    34    24    33   ar
    35     5    33    1
    36     5     6    1
    37     5     4    1
    38     1    34    1
    39     1    35    1
    40     1    36    1
    41     3    37    1
    42     3    38    1
    43     3    39    1
    44     4    40    1
    45    11    41    1
    46    12    42    1
    47    14    43    1
    48    18    44    1
    49    19    45    1
    50    21    46    1
    51    22    47    1
    52    23    48    1
    53    23    49    1
    54    23    50    1
    55    25    51    1
    56    28    52    1
    57    29    53    1
    58    32    54    1
