REMARK  Name = NuBBE_1223
REMARK  7 active torsions:
REMARK  status: ('A' for Active; 'I' for Inactive)
REMARK    1  A    between atoms: C_3  and  O_4
REMARK    2  A    between atoms: O_4  and  C_5
REMARK    3  A    between atoms: C_6  and  C_16
REMARK    4  A    between atoms: C_10  and  O_11
REMARK    5  A    between atoms: C_13  and  O_14
REMARK    6  A    between atoms: C_18  and  O_19
REMARK    7  A    between atoms: C_20  and  O_23
REMARK                            x       y       z     vdW  Elec       q    Type
REMARK                         _______ _______ _______ _____ _____    ______ ____
ROOT
ATOM      1  O   LIG A   1      -3.027   1.324   0.363  0.00  0.00    -0.283 OA
ATOM      2  C   LIG A   1      -1.825   1.113   0.230  0.00  0.00    +0.238 A 
ATOM      3  C   LIG A   1      -1.237  -0.244   0.012  0.00  0.00    +0.211 A 
ATOM      4  C   LIG A   1       0.107  -0.323  -0.043  0.00  0.00    +0.181 A 
ATOM      5  O   LIG A   1       0.985   0.739   0.062  0.00  0.00    -0.451 OA
ATOM      6  C   LIG A   1       0.470   2.000   0.201  0.00  0.00    +0.146 A 
ATOM      7  C   LIG A   1      -0.895   2.250   0.288  0.00  0.00    +0.109 A 
ATOM      8  C   LIG A   1      -1.351   3.567   0.428  0.00  0.00    +0.135 A 
ATOM      9  C   LIG A   1      -0.448   4.627   0.475  0.00  0.00    +0.091 A 
ATOM     10  C   LIG A   1       0.915   4.359   0.389  0.00  0.00    +0.124 A 
ATOM     11  C   LIG A   1       1.381   3.055   0.254  0.00  0.00    +0.092 A 
ENDROOT
BRANCH   4  12
ATOM     12  C   LIG A   1       0.796  -1.608  -0.233  0.00  0.00    +0.025 A 
ATOM     13  C   LIG A   1       1.164  -2.382   0.877  0.00  0.00    +0.060 A 
ATOM     14  C   LIG A   1       1.818  -3.593   0.676  0.00  0.00    +0.159 A 
ATOM     15  C   LIG A   1       2.107  -4.034  -0.614  0.00  0.00    +0.158 A 
ATOM     16  C   LIG A   1       1.750  -3.279  -1.720  0.00  0.00    +0.050 A 
ATOM     17  C   LIG A   1       1.093  -2.061  -1.530  0.00  0.00    +0.015 A 
BRANCH  14  18
ATOM     18  O   LIG A   1       2.202  -4.391   1.719  0.00  0.00    -0.503 OA
ATOM     19  H   LIG A   1       1.924  -3.962   2.547  0.00  0.00    +0.292 HD
ENDBRANCH  14  18
BRANCH  15  20
ATOM     20  O   LIG A   1       2.750  -5.224  -0.799  0.00  0.00    -0.503 OA
ATOM     21  H   LIG A   1       2.894  -5.567   0.105  0.00  0.00    +0.292 HD
ENDBRANCH  15  20
ENDBRANCH   4  12
BRANCH   3  22
ATOM     22  O   LIG A   1      -2.014  -1.389  -0.089  0.00  0.00    -0.488 OA
ATOM     23  C   LIG A   1      -3.305  -1.226  -0.663  0.00  0.00    +0.277 C 
ENDBRANCH   3  22
BRANCH   8  24
ATOM     24  O   LIG A   1      -2.678   3.893   0.524  0.00  0.00    -0.506 OA
ATOM     25  H   LIG A   1      -3.199   3.058   0.506  0.00  0.00    +0.292 HD
ENDBRANCH   8  24
BRANCH  10  26
ATOM     26  O   LIG A   1       1.838   5.361   0.431  0.00  0.00    -0.506 OA
ATOM     27  H   LIG A   1       1.375   6.212   0.521  0.00  0.00    +0.292 HD
ENDBRANCH  10  26
TORSDOF 6
