@<TRIPOS>MOLECULE
NuBBE_1952
 27 27 0 0 0
SMALL
GASTEIGER

@<TRIPOS>ATOM
      1 O          -2.2991    0.6113    0.6802 O.3     1  LIG1       -0.4914
      2 C          -2.9711    1.8590    0.7432 C.3     1  LIG1        0.0790
      3 C          -0.9444    0.6067    0.4697 C.ar    1  LIG1        0.1620
      4 C          -0.0701    1.6961    0.3430 C.ar    1  LIG1        0.1615
      5 O          -0.5601    2.9674    0.4757 O.3     1  LIG1       -0.4915
      6 C           0.0838    3.9752   -0.2960 C.3     1  LIG1        0.0790
      7 C           1.2983    1.4490    0.1607 C.ar    1  LIG1       -0.0157
      8 C           1.7899    0.1421    0.0571 C.ar    1  LIG1       -0.0509
      9 C           0.9227   -0.9475    0.1330 C.ar    1  LIG1       -0.0211
     10 C          -0.4346   -0.6978    0.3685 C.ar    1  LIG1       -0.0091
     11 C           1.4537   -2.3134    0.0111 C.2     1  LIG1       -0.0477
     12 C           0.7480   -3.3251   -0.5169 C.2     1  LIG1        0.0229
     13 C           1.3341   -4.6754   -0.6097 C.2     1  LIG1        0.3296
     14 O           2.4484   -4.9748   -0.2297 O.2     1  LIG1       -0.2458
     15 O           0.4766   -5.5560   -1.1678 O.3     1  LIG1       -0.4775
     16 H          -4.0362    1.6549    0.8897 H       1  LIG1        0.0660
     17 H          -2.8735    2.4085   -0.1985 H       1  LIG1        0.0660
     18 H          -2.6355    2.4463    1.6032 H       1  LIG1        0.0660
     19 H          -0.5197    4.8851   -0.2209 H       1  LIG1        0.0660
     20 H           0.1383    3.6935   -1.3531 H       1  LIG1        0.0660
     21 H           1.0742    4.2091    0.1042 H       1  LIG1        0.0660
     22 H           2.0162    2.2618    0.1169 H       1  LIG1        0.0655
     23 H           2.8583   -0.0062   -0.0869 H       1  LIG1        0.0625
     24 H          -1.1328   -1.5233    0.4871 H       1  LIG1        0.0661
     25 H           2.4752   -2.4724    0.3562 H       1  LIG1        0.0626
     26 H          -0.2552   -3.1788   -0.8903 H       1  LIG1        0.0689
     27 H          -0.3850   -5.1950   -1.4298 H       1  LIG1        0.2954
@<TRIPOS>BOND
     1     1     2    1
     2     1     3    1
     3     3     4   ar
     4     4     5    1
     5     5     6    1
     6     4     7   ar
     7     7     8   ar
     8     8     9   ar
     9     9    10   ar
    10     3    10   ar
    11     9    11    1
    12    11    12    2
    13    12    13    1
    14    13    14    2
    15    13    15    1
    16     2    16    1
    17     2    17    1
    18     2    18    1
    19     6    19    1
    20     6    20    1
    21     6    21    1
    22     7    22    1
    23     8    23    1
    24    10    24    1
    25    11    25    1
    26    12    26    1
    27    15    27    1
