@<TRIPOS>MOLECULE
NuBBE_1406
 89 93 0 0 0
SMALL
GASTEIGER

@<TRIPOS>ATOM
      1 C          -0.5549    1.0404   -1.8228 C.3     1  LIG1       -0.0553
      2 C           0.9363    1.1910   -1.3875 C.3     1  LIG1       -0.0051
      3 C           1.2855    0.7340    0.0755 C.3     1  LIG1       -0.0197
      4 C           2.7994    1.0088    0.4266 C.3     1  LIG1       -0.0585
      5 C           0.4652    1.7134    0.9813 C.3     1  LIG1       -0.0273
      6 H           1.0176    1.8699    1.9190 H       1  LIG1        0.0311
      7 C           0.5367    3.0437    0.1454 C.3     1  LIG1       -0.0485
      8 C           1.1621    2.7097   -1.2420 C.3     1  LIG1       -0.0431
      9 C          -0.9999    1.3603    1.4133 C.3     1  LIG1        0.0159
     10 H          -1.6287    1.3107    0.5220 H       1  LIG1        0.0353
     11 C          -1.1841    0.0634    2.2157 C.3     1  LIG1        0.1623
     12 H          -0.2812   -0.5340    2.3037 H       1  LIG1        0.0912
     13 O          -2.2095   -0.7059    1.5777 O.3     1  LIG1       -0.3542
     14 C          -2.4560   -1.9401    2.2377 C.3     1  LIG1        0.0394
     15 O          -1.5626    0.4113    3.5369 O.3     1  LIG1       -0.3452
     16 C          -2.2426    1.6634    3.5013 C.3     1  LIG1        0.0906
     17 H          -3.2954    1.4693    3.2612 H       1  LIG1        0.0624
     18 C          -1.5945    2.4292    2.3462 C.3     1  LIG1       -0.0163
     19 C          -2.1455    2.3640    4.8822 C.3     1  LIG1        0.1097
     20 H          -2.6807    3.3181    4.7862 H       1  LIG1        0.0648
     21 C          -2.7873    1.5517    6.0738 C.3     1  LIG1        0.0917
     22 O          -4.1688    1.3244    5.7185 O.3     1  LIG1       -0.3745
     23 C          -4.9621    0.5915    6.6431 C.3     1  LIG1        0.0372
     24 C          -2.0516    0.2241    6.3376 C.3     1  LIG1       -0.0336
     25 C          -2.7234    2.4079    7.3564 C.3     1  LIG1       -0.0336
     26 O          -0.7685    2.6864    5.1520 O.3     1  LIG1       -0.3864
     27 C           1.0759   -0.7771    0.2362 C.3     1  LIG1       -0.0460
     28 C           1.9094   -1.5757   -0.7684 C.3     1  LIG1       -0.0455
     29 C           1.5915   -1.1664   -2.2194 C.3     1  LIG1       -0.0136
     30 H           0.5254   -1.3830   -2.3311 H       1  LIG1        0.0351
     31 C           1.6942    0.3479   -2.4277 C.2     1  LIG1       -0.0634
     32 C           2.2183    0.8607   -3.5534 C.2     1  LIG1       -0.0836
     33 C           2.6568    0.0334   -4.7270 C.3     1  LIG1       -0.0302
     34 C           2.2104   -1.4543   -4.7192 C.3     1  LIG1       -0.0198
     35 H           2.9752   -1.9616   -5.3301 H       1  LIG1        0.0318
     36 C           2.3307   -2.0642   -3.2772 C.3     1  LIG1       -0.0212
     37 C           3.8457   -2.1902   -2.9494 C.3     1  LIG1       -0.0587
     38 C           1.7143   -3.4971   -3.2123 C.3     1  LIG1       -0.0401
     39 C           1.5412   -4.1423   -4.5729 C.3     1  LIG1        0.0069
     40 C           0.5952   -3.2976   -5.3889 C.2     1  LIG1        0.1392
     41 O          -0.3468   -3.8277   -5.9930 O.2     1  LIG1       -0.2968
     42 C           0.8643   -1.7847   -5.4679 C.3     1  LIG1        0.0270
     43 C           0.9932   -1.4503   -6.9713 C.3     1  LIG1       -0.0528
     44 C          -0.3799   -1.0628   -4.9371 C.3     1  LIG1       -0.0528
     45 H          -1.2061    1.8208   -1.4213 H       1  LIG1        0.0238
     46 H          -0.9848    0.0731   -1.5532 H       1  LIG1        0.0238
     47 H          -0.6519    1.1540   -2.9102 H       1  LIG1        0.0238
     48 H           3.0175    2.0705    0.5870 H       1  LIG1        0.0235
     49 H           3.4854    0.6648   -0.3527 H       1  LIG1        0.0235
     50 H           3.0709    0.5055    1.3626 H       1  LIG1        0.0235
     51 H           1.1492    3.7934    0.6594 H       1  LIG1        0.0268
     52 H          -0.4563    3.4851    0.0076 H       1  LIG1        0.0268
     53 H           2.2268    2.9713   -1.2571 H       1  LIG1        0.0274
     54 H           0.6904    3.2985   -2.0371 H       1  LIG1        0.0274
     55 H          -3.1972   -2.4975    1.6567 H       1  LIG1        0.0525
     56 H          -2.8676   -1.7706    3.2368 H       1  LIG1        0.0525
     57 H          -1.5439   -2.5414    2.2987 H       1  LIG1        0.0525
     58 H          -0.8253    3.1240    2.6980 H       1  LIG1        0.0295
     59 H          -2.3445    3.0367    1.8255 H       1  LIG1        0.0295
     60 H          -5.9521    0.4515    6.1995 H       1  LIG1        0.0524
     61 H          -5.0936    1.1446    7.5765 H       1  LIG1        0.0524
     62 H          -4.5452   -0.3991    6.8417 H       1  LIG1        0.0524
     63 H          -2.3372   -0.5453    5.6134 H       1  LIG1        0.0258
     64 H          -2.3126   -0.1879    7.3195 H       1  LIG1        0.0258
     65 H          -0.9643    0.3476    6.3233 H       1  LIG1        0.0258
     66 H          -3.3602    3.2942    7.2623 H       1  LIG1        0.0258
     67 H          -1.7044    2.7261    7.5946 H       1  LIG1        0.0258
     68 H          -3.0886    1.8528    8.2280 H       1  LIG1        0.0258
     69 H          -0.7529    3.3779    5.8333 H       1  LIG1        0.2100
     70 H           0.0262   -1.0480    0.0953 H       1  LIG1        0.0271
     71 H           1.3718   -1.1020    1.2397 H       1  LIG1        0.0271
     72 H           1.6944   -2.6397   -0.6174 H       1  LIG1        0.0271
     73 H           2.9734   -1.4483   -0.5448 H       1  LIG1        0.0271
     74 H           2.2460    1.9379   -3.7020 H       1  LIG1        0.0572
     75 H           3.7530    0.0767   -4.7691 H       1  LIG1        0.0311
     76 H           2.3132    0.5272   -5.6406 H       1  LIG1        0.0311
     77 H           4.3290   -1.2135   -2.8501 H       1  LIG1        0.0235
     78 H           4.3711   -2.7456   -3.7354 H       1  LIG1        0.0235
     79 H           4.0211   -2.7383   -2.0176 H       1  LIG1        0.0235
     80 H           0.7234   -3.4648   -2.7395 H       1  LIG1        0.0275
     81 H           2.3180   -4.1543   -2.5742 H       1  LIG1        0.0275
     82 H           1.1041   -5.1397   -4.4493 H       1  LIG1        0.0342
     83 H           2.4898   -4.2541   -5.1058 H       1  LIG1        0.0342
     84 H           1.8683   -1.9388   -7.4130 H       1  LIG1        0.0239
     85 H           1.0712   -0.3737   -7.1471 H       1  LIG1        0.0239
     86 H           0.1178   -1.7988   -7.5338 H       1  LIG1        0.0239
     87 H          -0.6819   -1.4200   -3.9510 H       1  LIG1        0.0239
     88 H          -1.2465   -1.2465   -5.5849 H       1  LIG1        0.0239
     89 H          -0.2354    0.0198   -4.9029 H       1  LIG1        0.0239
@<TRIPOS>BOND
     1     2     3    1
     2     3     5    1
     3     5     7    1
     4     7     8    1
     5     2     8    1
     6     9    10    1
     7     9    11    1
     8    13    14    1
     9    11    15    1
    10    15    16    1
    11    16    18    1
    12     9    18    1
    13    19    20    1
    14    19    21    1
    15    21    22    1
    16    22    23    1
    17    21    24    1
    18    21    25    1
    19    19    26    1
    20     3    27    1
    21    27    28    1
    22    28    29    1
    23    29    31    1
    24     2    31    1
    25    31    32    2
    26    32    33    1
    27    33    34    1
    28    34    36    1
    29    29    36    1
    30    36    38    1
    31    38    39    1
    32    39    40    1
    33    40    42    1
    34    34    42    1
    35     1     2    1
    36     3     4    1
    37     5     6    1
    38     5     9    1
    39    29    30    1
    40    34    35    1
    41    36    37    1
    42    40    41    2
    43    42    43    1
    44    42    44    1
    45    11    13    1
    46    11    12    1
    47    16    19    1
    48    16    17    1
    49     1    45    1
    50     1    46    1
    51     1    47    1
    52     4    48    1
    53     4    49    1
    54     4    50    1
    55     7    51    1
    56     7    52    1
    57     8    53    1
    58     8    54    1
    59    14    55    1
    60    14    56    1
    61    14    57    1
    62    18    58    1
    63    18    59    1
    64    23    60    1
    65    23    61    1
    66    23    62    1
    67    24    63    1
    68    24    64    1
    69    24    65    1
    70    25    66    1
    71    25    67    1
    72    25    68    1
    73    26    69    1
    74    27    70    1
    75    27    71    1
    76    28    72    1
    77    28    73    1
    78    32    74    1
    79    33    75    1
    80    33    76    1
    81    37    77    1
    82    37    78    1
    83    37    79    1
    84    38    80    1
    85    38    81    1
    86    39    82    1
    87    39    83    1
    88    43    84    1
    89    43    85    1
    90    43    86    1
    91    44    87    1
    92    44    88    1
    93    44    89    1
