REMARK  Name = NuBBE_63
REMARK  16 active torsions:
REMARK  status: ('A' for Active; 'I' for Inactive)
REMARK    1  A    between atoms: O_1  and  C_2
REMARK    2  A    between atoms: C_5  and  C_6
REMARK    3  A    between atoms: C_10  and  O_49
REMARK    4  A    between atoms: C_12  and  O_48
REMARK    5  A    between atoms: C_13  and  C_14
REMARK    6  A    between atoms: C_17  and  C_25
REMARK    7  A    between atoms: C_19  and  O_24
REMARK    8  A    between atoms: C_21  and  O_23
REMARK    9  A    between atoms: C_25  and  O_26
REMARK   10  A    between atoms: O_26  and  C_27
REMARK   11  A    between atoms: C_30  and  C_38
REMARK   12  A    between atoms: C_32  and  O_37
REMARK   13  A    between atoms: C_34  and  O_36
REMARK   14  A    between atoms: C_38  and  O_39
REMARK   15  A    between atoms: C_40  and  O_42
REMARK   16  A    between atoms: C_43  and  O_45
REMARK                            x       y       z     vdW  Elec       q    Type
REMARK                         _______ _______ _______ _____ _____    ______ ____
ROOT
ATOM      1  C   LIG A   1       1.002  -0.645   0.097  0.00  0.00    +0.187 C 
ATOM      2  O   LIG A   1       1.948   0.445  -0.040  0.00  0.00    -0.361 OA
ATOM      3  C   LIG A   1       2.435   0.699  -1.377  0.00  0.00    +0.176 C 
ATOM      4  C   LIG A   1       1.982  -0.316  -2.442  0.00  0.00    +0.176 C 
ATOM      5  C   LIG A   1       0.487  -0.652  -2.353  0.00  0.00    +0.177 C 
ATOM      6  C   LIG A   1      -0.109  -0.448  -0.946  0.00  0.00    +0.179 C 
ENDROOT
BRANCH   1  14
ATOM      7  C   LIG A   1       0.223  -4.254   2.099  0.00  0.00    +0.211 C 
ATOM      8  C   LIG A   1      -0.691  -4.333   3.314  0.00  0.00    +0.129 C 
ATOM      9  C   LIG A   1      -0.394  -3.179   4.222  0.00  0.00    +0.174 C 
ATOM     10  C   LIG A   1      -0.097  -1.894   3.558  0.00  0.00    +0.101 A 
ATOM     11  C   LIG A   1      -0.138  -0.703   4.290  0.00  0.00    +0.134 A 
ATOM     12  C   LIG A   1       0.079   0.510   3.653  0.00  0.00    +0.092 A 
ATOM     13  C   LIG A   1       0.407   0.528   2.300  0.00  0.00    +0.130 A 
ATOM     14  C   LIG A   1       0.509  -0.654   1.542  0.00  0.00    +0.068 A 
ATOM     15  C   LIG A   1       0.189  -1.874   2.185  0.00  0.00    +0.145 A 
ATOM     16  O   LIG A   1       0.109  -3.002   1.400  0.00  0.00    -0.482 OA
ATOM     17  O   LIG A   1      -0.471  -3.246   5.432  0.00  0.00    -0.292 OA
BRANCH   7  21
ATOM     18  C   LIG A   1      -0.676  -7.547  -0.570  0.00  0.00    +0.117 A 
ATOM     19  C   LIG A   1      -1.664  -6.612  -0.286  0.00  0.00    +0.046 A 
ATOM     20  C   LIG A   1      -1.370  -5.530   0.552  0.00  0.00    +0.011 A 
ATOM     21  C   LIG A   1      -0.093  -5.383   1.125  0.00  0.00    -0.007 A 
ATOM     22  C   LIG A   1       0.892  -6.331   0.804  0.00  0.00    +0.011 A 
ATOM     23  C   LIG A   1       0.601  -7.406  -0.043  0.00  0.00    +0.046 A 
BRANCH  18  24
ATOM     24  O   LIG A   1      -0.919  -8.628  -1.364  0.00  0.00    -0.507 OA
ATOM     25  H   LIG A   1      -1.865  -8.647  -1.585  0.00  0.00    +0.292 HD
ENDBRANCH  18  24
ENDBRANCH   7  21
BRANCH  13  26
ATOM     26  O   LIG A   1       0.636   1.765   1.763  0.00  0.00    -0.506 OA
ATOM     27  H   LIG A   1       1.174   1.641   0.954  0.00  0.00    +0.292 HD
ENDBRANCH  13  26
BRANCH  11  28
ATOM     28  O   LIG A   1      -0.412  -0.653   5.630  0.00  0.00    -0.506 OA
ATOM     29  H   LIG A   1      -0.469  -1.575   5.970  0.00  0.00    +0.292 HD
ENDBRANCH  11  28
ENDBRANCH   1  14
BRANCH   5  30
ATOM     30  O   LIG A   1      -0.257   0.124  -3.305  0.00  0.00    -0.387 OA
ATOM     31  H   LIG A   1      -1.192  -0.093  -3.136  0.00  0.00    +0.210 HD
ENDBRANCH   5  30
BRANCH   4  32
ATOM     32  O   LIG A   1       2.745  -1.525  -2.244  0.00  0.00    -0.387 OA
ATOM     33  H   LIG A   1       2.622  -2.081  -3.035  0.00  0.00    +0.210 HD
ENDBRANCH   4  32
BRANCH   6  34
ATOM     34  O   LIG A   1      -1.239  -1.320  -0.828  0.00  0.00    -0.386 OA
ATOM     35  H   LIG A   1      -1.652  -1.132   0.034  0.00  0.00    +0.210 HD
ENDBRANCH   6  34
BRANCH   3  36
ATOM     36  C   LIG A   1       2.118   2.158  -1.786  0.00  0.00    +0.197 C 
BRANCH  36  37
ATOM     37  O   LIG A   1       0.712   2.431  -1.778  0.00  0.00    -0.346 OA
BRANCH  37  38
ATOM     38  C   LIG A   1       0.410   3.753  -2.260  0.00  0.00    +0.282 C 
ATOM     39  O   LIG A   1       0.953   4.725  -1.363  0.00  0.00    -0.341 OA
ATOM     40  C   LIG A   1       0.103   5.851  -1.107  0.00  0.00    +0.178 C 
ATOM     41  C   LIG A   1      -1.156   5.344  -0.393  0.00  0.00    +0.177 C 
ATOM     42  C   LIG A   1      -1.913   4.322  -1.266  0.00  0.00    +0.179 C 
ATOM     43  C   LIG A   1      -1.121   3.858  -2.505  0.00  0.00    +0.201 C 
BRANCH  42  44
ATOM     44  O   LIG A   1      -2.316   3.232  -0.423  0.00  0.00    -0.386 OA
ATOM     45  H   LIG A   1      -2.470   2.445  -0.972  0.00  0.00    +0.210 HD
ENDBRANCH  42  44
BRANCH  41  46
ATOM     46  O   LIG A   1      -2.031   6.416  -0.016  0.00  0.00    -0.387 OA
ATOM     47  H   LIG A   1      -2.779   6.006   0.458  0.00  0.00    +0.210 HD
ENDBRANCH  41  46
BRANCH  43  48
ATOM     48  O   LIG A   1      -1.353   4.799  -3.576  0.00  0.00    -0.384 OA
ATOM     49  H   LIG A   1      -2.296   4.761  -3.817  0.00  0.00    +0.210 HD
ENDBRANCH  43  48
BRANCH  40  50
ATOM     50  C   LIG A   1       0.894   6.860  -0.255  0.00  0.00    +0.190 C 
BRANCH  50  51
ATOM     51  O   LIG A   1       0.181   8.056   0.034  0.00  0.00    -0.392 OA
ATOM     52  H   LIG A   1      -0.592   7.797   0.575  0.00  0.00    +0.209 HD
ENDBRANCH  50  51
ENDBRANCH  40  50
ENDBRANCH  37  38
ENDBRANCH  36  37
ENDBRANCH   3  36
TORSDOF 16
