@<TRIPOS>MOLECULE
NuBBE_1410
 51 55 0 0 0
SMALL
GASTEIGER

@<TRIPOS>ATOM
      1 O          -2.1506    1.7621   -0.9326 O.2     1  LIG1       -0.2835
      2 C          -0.9374    1.5690   -0.8955 C.2     1  LIG1        0.2539
      3 C          -0.2849    0.1859   -0.8488 C.3     1  LIG1        0.3554
      4 O          -1.2265   -0.7232   -0.2819 O.3     1  LIG1       -0.4406
      5 C          -0.9017   -2.0311   -0.5095 C.ar    1  LIG1        0.1504
      6 C          -1.3582   -3.0014    0.3954 C.ar    1  LIG1        0.0591
      7 C          -0.9987   -4.3399    0.1954 C.ar    1  LIG1        0.1324
      8 C          -0.2401   -4.7152   -0.9143 C.ar    1  LIG1       -0.0183
      9 C           0.1966   -3.7480   -1.8181 C.ar    1  LIG1       -0.0407
     10 C          -0.1290   -2.4040   -1.6055 C.ar    1  LIG1        0.1016
     11 C           0.3325   -1.3794   -2.5561 C.2     1  LIG1        0.3463
     12 O           0.8957   -1.6743   -3.5979 O.2     1  LIG1       -0.2447
     13 O           0.0919   -0.1020   -2.2009 O.3     1  LIG1       -0.4081
     14 O          -1.3720   -5.3535    1.0352 O.3     1  LIG1       -0.4815
     15 C          -1.8098   -4.9931    2.3639 C.3     1  LIG1        0.1235
     16 C          -2.3914   -3.6022    2.4731 C.2     1  LIG1       -0.0408
     17 C          -2.1898   -2.6612    1.5454 C.2     1  LIG1       -0.0478
     18 C          -2.8799   -6.0227    2.7447 C.3     1  LIG1       -0.0215
     19 C          -0.6058   -5.1313    3.3045 C.3     1  LIG1       -0.0215
     20 C           0.9404    0.3243    0.0699 C.3     1  LIG1        0.1745
     21 O           1.8936    1.2852   -0.3943 O.3     1  LIG1       -0.4829
     22 C           1.3444    2.5085   -0.6638 C.ar    1  LIG1        0.1353
     23 C          -0.0102    2.7210   -0.8994 C.ar    1  LIG1        0.0707
     24 C          -0.4822    4.0134   -1.1368 C.ar    1  LIG1       -0.0020
     25 C           0.4020    5.1004   -1.1501 C.ar    1  LIG1        0.1624
     26 C           1.7801    4.8802   -0.9775 C.ar    1  LIG1        0.1650
     27 C           2.2364    3.5804   -0.7164 C.ar    1  LIG1        0.0261
     28 O           2.6297    5.9522   -1.0451 O.3     1  LIG1       -0.4913
     29 C           3.9475    5.6841   -1.5144 C.3     1  LIG1        0.0790
     30 O          -0.2164    6.2963   -1.4077 O.3     1  LIG1       -0.4914
     31 C           0.3670    7.4570   -0.8279 C.3     1  LIG1        0.0790
     32 H           0.0130   -5.7612   -1.0697 H       1  LIG1        0.0654
     33 H           0.7882   -4.0443   -2.6824 H       1  LIG1        0.0628
     34 H          -2.9794   -3.3624    3.3551 H       1  LIG1        0.0611
     35 H          -2.6098   -1.6654    1.6360 H       1  LIG1        0.0624
     36 H          -3.7384   -5.9647    2.0648 H       1  LIG1        0.0271
     37 H          -3.2415   -5.8786    3.7689 H       1  LIG1        0.0271
     38 H          -2.4873   -7.0429    2.6598 H       1  LIG1        0.0271
     39 H           0.1937   -4.4336    3.0271 H       1  LIG1        0.0271
     40 H          -0.1724   -6.1360    3.2373 H       1  LIG1        0.0271
     41 H          -0.8780   -4.9404    4.3483 H       1  LIG1        0.0271
     42 H           1.4776   -0.6284    0.1347 H       1  LIG1        0.0781
     43 H           0.6435    0.5737    1.0981 H       1  LIG1        0.0781
     44 H          -1.5428    4.1857   -1.3131 H       1  LIG1        0.0663
     45 H           3.2870    3.3785   -0.5318 H       1  LIG1        0.0692
     46 H           4.4135    6.6427   -1.7621 H       1  LIG1        0.0660
     47 H           3.9353    5.0728   -2.4234 H       1  LIG1        0.0660
     48 H           4.5520    5.2154   -0.7318 H       1  LIG1        0.0660
     49 H           1.1697    7.8438   -1.4623 H       1  LIG1        0.0660
     50 H           0.7117    7.2796    0.1967 H       1  LIG1        0.0660
     51 H          -0.4087    8.2281   -0.7835 H       1  LIG1        0.0660
@<TRIPOS>BOND
     1     1     2    2
     2     2     3    1
     3     3     4    1
     4     4     5    1
     5     5     6   ar
     6     6     7   ar
     7     7     8   ar
     8     8     9   ar
     9     9    10   ar
    10     5    10   ar
    11    10    11    1
    12    11    12    2
    13    11    13    1
    14     3    13    1
    15     7    14    1
    16    14    15    1
    17    15    16    1
    18    16    17    2
    19     6    17    1
    20    15    18    1
    21    15    19    1
    22     3    20    1
    23    20    21    1
    24    21    22    1
    25    22    23   ar
    26     2    23    1
    27    23    24   ar
    28    24    25   ar
    29    25    26   ar
    30    26    27   ar
    31    22    27   ar
    32    26    28    1
    33    28    29    1
    34    25    30    1
    35    30    31    1
    36     8    32    1
    37     9    33    1
    38    16    34    1
    39    17    35    1
    40    18    36    1
    41    18    37    1
    42    18    38    1
    43    19    39    1
    44    19    40    1
    45    19    41    1
    46    20    42    1
    47    20    43    1
    48    24    44    1
    49    27    45    1
    50    29    46    1
    51    29    47    1
    52    29    48    1
    53    31    49    1
    54    31    50    1
    55    31    51    1
