REMARK  Name = NuBBE_2314
REMARK  10 active torsions:
REMARK  status: ('A' for Active; 'I' for Inactive)
REMARK    1  A    between atoms: C_1  and  O_29
REMARK    2  A    between atoms: C_5  and  C_6
REMARK    3  A    between atoms: C_8  and  C_24
REMARK    4  A    between atoms: C_10  and  C_21
REMARK    5  A    between atoms: C_14  and  O_20
REMARK    6  A    between atoms: C_15  and  O_18
REMARK    7  A    between atoms: C_16  and  O_17
REMARK    8  A    between atoms: O_18  and  C_19
REMARK    9  A    between atoms: C_21  and  C_22
REMARK   10  A    between atoms: O_29  and  C_30
REMARK                            x       y       z     vdW  Elec       q    Type
REMARK                         _______ _______ _______ _____ _____    ______ ____
ROOT
ATOM      1  C   LIG A   1       0.350   0.876   0.506  0.00  0.00    +0.060 C 
ATOM      2  C   LIG A   1       1.032  -0.391   1.141  0.00  0.00    +0.006 C 
ATOM      3  C   LIG A   1       2.223  -0.763   0.200  0.00  0.00    +0.013 C 
ATOM      4  C   LIG A   1       3.509   0.050   0.477  0.00  0.00    +0.087 C 
ATOM      5  C   LIG A   1       3.309   1.545   0.329  0.00  0.00    +0.165 C 
ATOM      6  O   LIG A   1       3.980   2.343   0.974  0.00  0.00    -0.294 OA
ATOM      7  C   LIG A   1       2.311   2.035  -0.726  0.00  0.00    +0.215 C 
ATOM      8  C   LIG A   1       1.095   1.075  -0.868  0.00  0.00    +0.135 C 
ATOM      9  C   LIG A   1       1.650  -0.337  -1.161  0.00  0.00    +0.157 C 
ATOM     10  C   LIG A   1       1.359  -0.190   2.617  0.00  0.00    +0.009 C 
ENDROOT
BRANCH   1  15
ATOM     11  C   LIG A   1      -3.182  -0.549  -0.177  0.00  0.00    +0.166 A 
ATOM     12  C   LIG A   1      -3.944   0.385   0.500  0.00  0.00    +0.207 A 
ATOM     13  C   LIG A   1      -3.357   1.439   1.161  0.00  0.00    +0.170 A 
ATOM     14  C   LIG A   1      -1.987   1.630   1.176  0.00  0.00    +0.053 A 
ATOM     15  C   LIG A   1      -1.171   0.716   0.486  0.00  0.00    -0.034 A 
ATOM     16  C   LIG A   1      -1.793  -0.359  -0.190  0.00  0.00    +0.053 A 
ATOM     17  O   LIG A   1      -4.266   2.235   1.789  0.00  0.00    -0.453 OA
ATOM     18  C   LIG A   1      -5.492   1.538   1.486  0.00  0.00    +0.467 C 
ATOM     19  O   LIG A   1      -5.301   0.393   0.633  0.00  0.00    -0.449 OA
BRANCH  11  20
ATOM     20  O   LIG A   1      -3.824  -1.571  -0.818  0.00  0.00    -0.491 OA
ATOM     21  C   LIG A   1      -3.089  -2.789  -0.909  0.00  0.00    +0.277 C 
ENDBRANCH  11  20
ENDBRANCH   1  15
BRANCH   9  22
ATOM     22  O   LIG A   1       2.640  -0.355  -2.183  0.00  0.00    -0.388 OA
ATOM     23  H   LIG A   1       2.151  -0.323  -3.029  0.00  0.00    +0.210 HD
ENDBRANCH   9  22
BRANCH   8  24
ATOM     24  O   LIG A   1       0.250   1.400  -1.984  0.00  0.00    -0.370 OA
ATOM     25  C   LIG A   1      -0.281   2.719  -1.998  0.00  0.00    +0.195 C 
ENDBRANCH   8  24
BRANCH   7  26
ATOM     26  O   LIG A   1       1.911   3.355  -0.332  0.00  0.00    -0.381 OA
ATOM     27  H   LIG A   1       2.733   3.809  -0.055  0.00  0.00    +0.210 HD
ENDBRANCH   7  26
BRANCH   3  28
ATOM     28  C   LIG A   1       2.592  -2.272   0.222  0.00  0.00    +0.037 C 
BRANCH  28  29
ATOM     29  C   LIG A   1       1.491  -3.224  -0.179  0.00  0.00    -0.034 C 
ATOM     30  C   LIG A   1       1.308  -3.676  -1.428  0.00  0.00    +0.004 C 
ENDBRANCH  28  29
ENDBRANCH   3  28
TORSDOF 7
