@<TRIPOS>MOLECULE
NuBBE_19
 42 43 0 0 0
SMALL
GASTEIGER

@<TRIPOS>ATOM
      1 C          -4.3345   -1.0790   -1.9349 C.3     1  LIG1        0.0790
      2 O          -2.9201   -1.0236   -1.8138 O.3     1  LIG1       -0.4913
      3 C          -2.3806    0.1278   -1.2932 C.ar    1  LIG1        0.1657
      4 C          -2.8251    1.4525   -1.4910 C.ar    1  LIG1        0.2035
      5 O          -3.9643    1.6199   -2.2334 O.3     1  LIG1       -0.4885
      6 C          -4.0921    2.7434   -3.0973 C.3     1  LIG1        0.0791
      7 C          -2.1333    2.5014   -0.8432 C.ar    1  LIG1        0.1657
      8 O          -2.6562    3.7677   -0.9160 O.3     1  LIG1       -0.4913
      9 C          -1.9446    4.8257   -0.2875 C.3     1  LIG1        0.0790
     10 C          -0.9750    2.2217   -0.1033 C.ar    1  LIG1       -0.0089
     11 C          -0.4997    0.9204    0.0384 C.ar    1  LIG1       -0.0177
     12 C           0.7051    0.7026    0.8463 C.2     1  LIG1       -0.0494
     13 C           1.5648   -0.2917    0.5893 C.2     1  LIG1        0.0013
     14 C           2.7393   -0.5172    1.4658 C.2     1  LIG1        0.2459
     15 N           3.2130   -1.8327    1.5827 N.am    1  LIG1       -0.2348
     16 C           4.3203   -2.0034    2.5232 C.3     1  LIG1        0.0263
     17 C           5.2493   -3.1635    2.1885 C.3     1  LIG1       -0.0179
     18 C           4.4770   -4.3760    1.7858 C.2     1  LIG1       -0.0776
     19 C           3.2237   -4.2795    1.3316 C.2     1  LIG1       -0.0031
     20 C           2.5437   -2.9749    1.1350 C.2     1  LIG1        0.2456
     21 O           1.4504   -3.0142    0.5617 O.2     1  LIG1       -0.2702
     22 O           3.2311    0.4349    2.0710 O.2     1  LIG1       -0.2702
     23 C          -1.2248   -0.1222   -0.5403 C.ar    1  LIG1       -0.0089
     24 H          -4.6210   -2.1362   -1.9629 H       1  LIG1        0.0660
     25 H          -4.6536   -0.6357   -2.8816 H       1  LIG1        0.0660
     26 H          -4.8451   -0.6243   -1.0797 H       1  LIG1        0.0660
     27 H          -3.8734    2.4379   -4.1244 H       1  LIG1        0.0660
     28 H          -3.4700    3.6095   -2.8815 H       1  LIG1        0.0660
     29 H          -5.1368    3.0678   -3.0541 H       1  LIG1        0.0660
     30 H          -2.4396    5.7644   -0.5503 H       1  LIG1        0.0660
     31 H          -0.9110    4.8924   -0.6457 H       1  LIG1        0.0660
     32 H          -1.9838    4.7142    0.8005 H       1  LIG1        0.0660
     33 H          -0.4176    3.0136    0.3858 H       1  LIG1        0.0661
     34 H           0.8815    1.3932    1.6695 H       1  LIG1        0.0625
     35 H           1.4207   -0.9503   -0.2548 H       1  LIG1        0.0670
     36 H           3.8648   -2.1663    3.5101 H       1  LIG1        0.0473
     37 H           4.9176   -1.0876    2.5988 H       1  LIG1        0.0473
     38 H           5.8668   -3.3918    3.0643 H       1  LIG1        0.0323
     39 H           5.9250   -2.8876    1.3710 H       1  LIG1        0.0323
     40 H           4.9580   -5.3444    1.8557 H       1  LIG1        0.0574
     41 H           2.6625   -5.1523    1.0155 H       1  LIG1        0.0666
     42 H          -0.9125   -1.1569   -0.4018 H       1  LIG1        0.0661
@<TRIPOS>BOND
     1     1     2    1
     2     2     3    1
     3     3     4   ar
     4     4     5    1
     5     5     6    1
     6     4     7   ar
     7     7     8    1
     8     8     9    1
     9     7    10   ar
    10    10    11   ar
    11    11    12    1
    12    12    13    2
    13    13    14    1
    14    14    15   am
    15    15    16    1
    16    16    17    1
    17    17    18    1
    18    18    19    2
    19    19    20    1
    20    15    20   am
    21    20    21    2
    22    14    22    2
    23    11    23   ar
    24     3    23   ar
    25     1    24    1
    26     1    25    1
    27     1    26    1
    28     6    27    1
    29     6    28    1
    30     6    29    1
    31     9    30    1
    32     9    31    1
    33     9    32    1
    34    10    33    1
    35    12    34    1
    36    13    35    1
    37    16    36    1
    38    16    37    1
    39    17    38    1
    40    17    39    1
    41    18    40    1
    42    19    41    1
    43    23    42    1
