@<TRIPOS>MOLECULE
NuBBE_535
 53 56 0 0 0
SMALL
GASTEIGER

@<TRIPOS>ATOM
      1 O          -0.0890   -6.9037    2.4194 O.3     1  LIG1       -0.5065
      2 C           0.1762   -5.8166    1.6402 C.ar    1  LIG1        0.1239
      3 C           0.9092   -5.9221    0.4633 C.ar    1  LIG1        0.0223
      4 C           1.1744   -4.7636   -0.2866 C.ar    1  LIG1        0.1348
      5 O           1.8602   -4.8850   -1.4595 O.3     1  LIG1       -0.5058
      6 C           0.7021   -3.5174    0.1426 C.ar    1  LIG1        0.1092
      7 C           0.9863   -2.2348   -0.5383 C.ar    1  LIG1        0.2382
      8 C           0.0982   -1.0606   -0.2446 C.ar    1  LIG1        0.2138
      9 O           0.2149   -0.0266   -1.1662 O.3     1  LIG1       -0.4532
     10 C          -0.0112    1.3430   -0.8221 C.3     1  LIG1        0.2311
     11 H          -0.8719    1.4096   -0.1663 H       1  LIG1        0.1084
     12 O          -0.4732    2.0951   -1.9598 O.3     1  LIG1       -0.3313
     13 C           0.4544    2.8218   -2.7756 C.3     1  LIG1        0.1140
     14 H          -0.1551    3.5858   -3.2769 H       1  LIG1        0.0647
     15 C           1.5158    3.5763   -1.9689 C.3     1  LIG1        0.1120
     16 H           2.2361    4.0872   -2.6177 H       1  LIG1        0.0647
     17 C           2.2165    2.6096   -1.0193 C.3     1  LIG1        0.1152
     18 H           2.7655    1.8486   -1.5831 H       1  LIG1        0.0648
     19 O           3.1764    3.3540   -0.2455 O.3     1  LIG1       -0.3864
     20 O           0.8854    4.6166   -1.1866 O.3     1  LIG1       -0.3865
     21 C           1.0657    1.9557   -3.8880 C.3     1  LIG1        0.0731
     22 O           1.9633    2.7346   -4.6776 O.3     1  LIG1       -0.3924
     23 C           1.1967    1.9593   -0.0756 C.3     1  LIG1        0.1454
     24 H           1.7046    1.2116    0.5418 H       1  LIG1        0.0683
     25 O           0.7468    2.9785    0.8545 O.3     1  LIG1       -0.3829
     26 C          -0.6718   -1.1870    0.8643 C.ar    1  LIG1        0.1810
     27 O          -0.6244   -2.2808    1.7304 O.2     1  LIG1       -0.4507
     28 C          -0.0706   -3.4482    1.2902 C.ar    1  LIG1        0.1465
     29 C          -0.3239   -4.5901    2.0561 C.ar    1  LIG1        0.0231
     30 C          -1.6915   -0.2513    1.3598 C.ar    1  LIG1        0.0247
     31 C          -1.4184    0.5228    2.4984 C.ar    1  LIG1       -0.0057
     32 C          -2.3681    1.4325    2.9482 C.ar    1  LIG1        0.1589
     33 O          -2.1190    2.2700    3.9999 O.3     1  LIG1       -0.5033
     34 C          -3.6024    1.5367    2.3140 C.ar    1  LIG1        0.1583
     35 C          -3.9127    0.7317    1.2283 C.ar    1  LIG1       -0.0159
     36 C          -2.9540   -0.1657    0.7473 C.ar    1  LIG1       -0.0473
     37 O          -4.5127    2.4579    2.7457 O.3     1  LIG1       -0.5033
     38 O           1.9529   -2.1007   -1.2987 O.2     1  LIG1       -0.2830
     39 H           0.3778   -7.6803    2.0684 H       1  LIG1        0.2921
     40 H           1.2663   -6.8899    0.1279 H       1  LIG1        0.0691
     41 H           2.1231   -5.8064   -1.6106 H       1  LIG1        0.2922
     42 H           2.7132    3.6037    0.5798 H       1  LIG1        0.2100
     43 H           1.6259    5.1680   -0.8635 H       1  LIG1        0.2100
     44 H           1.6070    1.0956   -3.4854 H       1  LIG1        0.0584
     45 H           0.2747    1.5745   -4.5420 H       1  LIG1        0.0584
     46 H           2.2601    2.1803   -5.4206 H       1  LIG1        0.2095
     47 H           0.3069    3.6645    0.2987 H       1  LIG1        0.2102
     48 H          -0.9134   -4.5243    2.9668 H       1  LIG1        0.0691
     49 H          -0.4702    0.4117    3.0162 H       1  LIG1        0.0662
     50 H          -1.1581    2.2692    4.1573 H       1  LIG1        0.2923
     51 H          -4.8848    0.8144    0.7510 H       1  LIG1        0.0655
     52 H          -3.2010   -0.7942   -0.1057 H       1  LIG1        0.0626
     53 H          -4.0594    2.9282    3.4740 H       1  LIG1        0.2923
@<TRIPOS>BOND
     1     1     2    1
     2     2     3   ar
     3     3     4   ar
     4     4     5    1
     5     4     6   ar
     6     6     7   ar
     7     7     8   ar
     8     8     9    1
     9    10    12    1
    10    12    13    1
    11    13    15    1
    12    15    16    1
    13    15    17    1
    14    17    18    1
    15    17    19    1
    16    15    20    1
    17    21    22    1
    18    10    23    1
    19    17    23    1
    20     8    26   ar
    21    26    27   ar
    22    27    28   ar
    23     6    28   ar
    24    28    29   ar
    25     2    29   ar
    26    26    30    1
    27    30    31   ar
    28    31    32   ar
    29    32    33    1
    30    32    34   ar
    31    34    35   ar
    32    35    36   ar
    33    30    36   ar
    34    34    37    1
    35     7    38    2
    36    10    11    1
    37    10     9    1
    38    13    21    1
    39    13    14    1
    40    23    25    1
    41    23    24    1
    42     1    39    1
    43     3    40    1
    44     5    41    1
    45    19    42    1
    46    20    43    1
    47    21    44    1
    48    21    45    1
    49    22    46    1
    50    25    47    1
    51    29    48    1
    52    31    49    1
    53    33    50    1
    54    35    51    1
    55    36    52    1
    56    37    53    1
