@<TRIPOS>MOLECULE
NuBBE_495
 68 72 0 0 0
SMALL
GASTEIGER

@<TRIPOS>ATOM
      1 C          -0.5297    2.7646   -1.2014 C.3     1  LIG1       -0.0520
      2 C          -0.1551    1.2648   -1.2686 C.3     1  LIG1        0.0369
      3 C          -0.5052    0.5107    0.0747 C.3     1  LIG1       -0.0072
      4 H           0.3602    0.6178    0.7365 H       1  LIG1        0.0355
      5 C          -0.6998   -1.0049   -0.0672 C.2     1  LIG1       -0.0644
      6 C          -1.2909   -1.7365    0.9095 C.2     1  LIG1       -0.0497
      7 C          -2.1393   -1.1281    2.0386 C.3     1  LIG1        0.0310
      8 C          -1.8078    0.3694    2.2197 C.3     1  LIG1       -0.0396
      9 C          -1.6648    1.1130    0.8890 C.3     1  LIG1       -0.0447
     10 C          -3.6229   -1.2548    1.6001 C.3     1  LIG1       -0.0521
     11 C          -1.9512   -1.9710    3.3543 C.3     1  LIG1        0.1399
     12 H          -2.6278   -2.8390    3.3301 H       1  LIG1        0.0795
     13 O          -0.6224   -2.5334    3.4212 O.3     1  LIG1       -0.4554
     14 C          -0.2562   -3.3571    2.3988 C.2     1  LIG1        0.3118
     15 O           0.6741   -4.1473    2.5150 O.2     1  LIG1       -0.2505
     16 C          -1.0625   -3.2207    1.1115 C.3     1  LIG1        0.0670
     17 C          -2.2796   -1.2442    4.6300 C.ar    1  LIG1        0.0312
     18 C          -3.5452   -1.1697    5.2852 C.ar    1  LIG1       -0.0172
     19 C          -3.3637   -0.3960    6.4074 C.ar    1  LIG1        0.0921
     20 O          -2.0721    0.0054    6.4995 O.2     1  LIG1       -0.4706
     21 C          -1.4185   -0.5204    5.4339 C.ar    1  LIG1        0.0984
     22 C          -0.1569   -1.6042   -1.3402 C.3     1  LIG1       -0.0192
     23 C          -0.5983   -0.8314   -2.5971 C.3     1  LIG1        0.0482
     24 H          -1.4566   -1.3352   -3.0593 H       1  LIG1        0.0406
     25 C          -1.0160    0.5778   -2.2931 C.2     1  LIG1        0.1459
     26 O          -1.8982    1.1409   -2.9377 O.2     1  LIG1       -0.2964
     27 C           0.5323   -0.6431   -3.5975 C.3     1  LIG1        0.0704
     28 H           0.9120   -1.6420   -3.8426 H       1  LIG1        0.0606
     29 C           1.7165    0.2590   -3.0741 C.3     1  LIG1       -0.0040
     30 C           1.3795    1.1719   -1.7730 C.3     1  LIG1       -0.0108
     31 H           1.5765    2.1894   -2.1399 H       1  LIG1        0.0321
     32 C           2.3690    1.0539   -0.5827 C.3     1  LIG1        0.0492
     33 C           3.7966    1.4691   -0.8546 C.2     1  LIG1        0.3071
     34 O           4.7618    0.7444   -0.6782 O.2     1  LIG1       -0.2509
     35 O           3.8410    2.7727   -1.2431 O.3     1  LIG1       -0.4679
     36 C           5.1410    3.3266   -1.4414 C.3     1  LIG1        0.0817
     37 C           2.1775    1.2337   -4.2004 C.3     1  LIG1       -0.0571
     38 C           2.9282   -0.6964   -2.8877 C.3     1  LIG1       -0.0571
     39 O           0.0032   -0.1693   -4.8422 O.3     1  LIG1       -0.3905
     40 H          -1.5994    2.9198   -1.0219 H       1  LIG1        0.0239
     41 H          -0.3164    3.2705   -2.1512 H       1  LIG1        0.0239
     42 H           0.0331    3.2768   -0.4139 H       1  LIG1        0.0239
     43 H          -0.8664    0.4801    2.7737 H       1  LIG1        0.0275
     44 H          -2.5841    0.8682    2.8131 H       1  LIG1        0.0275
     45 H          -1.4615    2.1621    1.1300 H       1  LIG1        0.0272
     46 H          -2.6000    1.0868    0.3188 H       1  LIG1        0.0272
     47 H          -3.8033   -0.7979    0.6207 H       1  LIG1        0.0239
     48 H          -4.2955   -0.7756    2.3188 H       1  LIG1        0.0239
     49 H          -3.9283   -2.3049    1.5144 H       1  LIG1        0.0239
     50 H          -1.9960   -3.7840    1.1899 H       1  LIG1        0.0423
     51 H          -0.4634   -3.6708    0.3161 H       1  LIG1        0.0423
     52 H          -4.4775   -1.6236    4.9787 H       1  LIG1        0.0653
     53 H          -4.0153   -0.0599    7.2023 H       1  LIG1        0.1029
     54 H          -0.3623   -0.2925    5.3781 H       1  LIG1        0.1033
     55 H          -0.5012   -2.6346   -1.4818 H       1  LIG1        0.0318
     56 H           0.9261   -1.6754   -1.2442 H       1  LIG1        0.0318
     57 H           2.3724    0.0374   -0.1750 H       1  LIG1        0.0381
     58 H           2.0519    1.7203    0.2308 H       1  LIG1        0.0381
     59 H           5.3950    3.9355   -0.5699 H       1  LIG1        0.0661
     60 H           5.1007    3.9749   -2.3213 H       1  LIG1        0.0661
     61 H           5.9186    2.5731   -1.6066 H       1  LIG1        0.0661
     62 H           1.3958    1.9599   -4.4486 H       1  LIG1        0.0236
     63 H           2.4455    0.6925   -5.1152 H       1  LIG1        0.0236
     64 H           3.0648    1.8003   -3.8924 H       1  LIG1        0.0236
     65 H           2.8103   -1.3750   -2.0409 H       1  LIG1        0.0236
     66 H           3.8699   -0.1578   -2.7748 H       1  LIG1        0.0236
     67 H           3.0706   -1.3190   -3.7810 H       1  LIG1        0.0236
     68 H          -0.6129    0.5725   -4.6800 H       1  LIG1        0.2098
@<TRIPOS>BOND
     1     1     2    1
     2     2     3    1
     3     3     4    1
     4     3     5    1
     5     5     6    2
     6     6     7    1
     7     7     8    1
     8     8     9    1
     9     3     9    1
    10     7    10    1
    11     7    11    1
    12    11    12    1
    13    11    13    1
    14    13    14    1
    15    14    15    2
    16    14    16    1
    17     6    16    1
    18    11    17    1
    19    17    18   ar
    20    18    19   ar
    21    19    20   ar
    22    20    21   ar
    23    17    21   ar
    24     5    22    1
    25    22    23    1
    26    23    24    1
    27    23    25    1
    28     2    25    1
    29    25    26    2
    30    23    27    1
    31    27    29    1
    32    29    30    1
    33    30    31    1
    34     2    30    1
    35    30    32    1
    36    32    33    1
    37    33    34    2
    38    33    35    1
    39    35    36    1
    40    29    37    1
    41    29    38    1
    42    27    39    1
    43    27    28    1
    44     1    40    1
    45     1    41    1
    46     1    42    1
    47     8    43    1
    48     8    44    1
    49     9    45    1
    50     9    46    1
    51    10    47    1
    52    10    48    1
    53    10    49    1
    54    16    50    1
    55    16    51    1
    56    18    52    1
    57    19    53    1
    58    21    54    1
    59    22    55    1
    60    22    56    1
    61    32    57    1
    62    32    58    1
    63    36    59    1
    64    36    60    1
    65    36    61    1
    66    37    62    1
    67    37    63    1
    68    37    64    1
    69    38    65    1
    70    38    66    1
    71    38    67    1
    72    39    68    1
