REMARK  Name = NuBBE_159
REMARK  8 active torsions:
REMARK  status: ('A' for Active; 'I' for Inactive)
REMARK    1  A    between atoms: C_1  and  C_2
REMARK    2  A    between atoms: C_2  and  C_3
REMARK    3  A    between atoms: C_6  and  O_7
REMARK    4  A    between atoms: O_7  and  C_8
REMARK    5  A    between atoms: C_8  and  C_9
REMARK    6  A    between atoms: C_12  and  C_13
REMARK    7  A    between atoms: C_13  and  O_14
REMARK    8  A    between atoms: O_14  and  C_15
REMARK                            x       y       z     vdW  Elec       q    Type
REMARK                         _______ _______ _______ _____ _____    ______ ____
ROOT
ATOM      1  C   LIG A   1      -3.037   1.226  -2.428  0.00  0.00    +0.060 C 
ATOM      2  C   LIG A   1      -1.514   1.365  -2.329  0.00  0.00    +0.124 C 
ATOM      3  C   LIG A   1      -0.895   1.262  -3.729  0.00  0.00    +0.060 C 
ATOM      4  O   LIG A   1      -1.070   0.208  -1.599  0.00  0.00    -0.478 OA
ATOM      5  C   LIG A   1      -0.284   0.370  -0.495  0.00  0.00    +0.171 A 
ATOM      6  C   LIG A   1       0.164  -0.800   0.128  0.00  0.00    +0.174 A 
ATOM      7  C   LIG A   1       1.012  -0.746   1.228  0.00  0.00    +0.065 A 
ATOM      8  C   LIG A   1       1.385   0.497   1.747  0.00  0.00    +0.063 A 
ATOM      9  C   LIG A   1       0.922   1.678   1.145  0.00  0.00    +0.026 A 
ATOM     10  C   LIG A   1       0.085   1.615   0.021  0.00  0.00    +0.021 A 
ATOM     11  C   LIG A   1      -0.408   2.828  -0.615  0.00  0.00    +0.011 C 
ATOM     12  C   LIG A   1      -1.160   2.700  -1.713  0.00  0.00    +0.020 C 
ENDROOT
BRANCH   8  13
ATOM     13  C   LIG A   1       2.310   0.572   2.903  0.00  0.00    +0.339 C 
ATOM     14  O   LIG A   1       3.061   1.515   3.120  0.00  0.00    -0.245 OA
BRANCH  13  15
ATOM     15  O   LIG A   1       2.178  -0.548   3.650  0.00  0.00    -0.464 OA
ATOM     16  C   LIG A   1       3.084  -0.668   4.745  0.00  0.00    +0.280 C 
ENDBRANCH  13  15
ENDBRANCH   8  13
BRANCH   6  17
ATOM     17  O   LIG A   1      -0.205  -2.022  -0.473  0.00  0.00    -0.422 OA
BRANCH  17  18
ATOM     18  C   LIG A   1      -0.405  -3.180   0.271  0.00  0.00    +0.309 C 
ATOM     19  C   LIG A   1      -0.755  -4.287  -0.675  0.00  0.00    +0.136 C 
ATOM     20  O   LIG A   1      -0.345  -3.300   1.486  0.00  0.00    -0.251 OA
ENDBRANCH  17  18
ENDBRANCH   6  17
TORSDOF 4
