REMARK  Name = NuBBE_1292
REMARK  9 active torsions:
REMARK  status: ('A' for Active; 'I' for Inactive)
REMARK    1  A    between atoms: C_1  and  C_2
REMARK    2  A    between atoms: C_4  and  C_5
REMARK    3  A    between atoms: C_6  and  C_8
REMARK    4  A    between atoms: C_8  and  C_9
REMARK    5  A    between atoms: C_9  and  O_10
REMARK    6  A    between atoms: O_10  and  C_11
REMARK    7  A    between atoms: C_13  and  C_27
REMARK    8  A    between atoms: C_15  and  C_16
REMARK    9  A    between atoms: C_17  and  C_19
REMARK                            x       y       z     vdW  Elec       q    Type
REMARK                         _______ _______ _______ _____ _____    ______ ____
ROOT
ATOM      1  C   LIG A   1      -4.322  -1.870   1.843  0.00  0.00    +0.027 C 
ATOM      2  C   LIG A   1      -2.828  -2.154   2.038  0.00  0.00    +0.090 C 
ATOM      3  C   LIG A   1      -1.798  -1.328   1.288  0.00  0.00    +0.066 C 
ATOM      4  C   LIG A   1      -1.725   0.170   1.540  0.00  0.00    +0.042 C 
ATOM      5  C   LIG A   1      -2.984   0.959   1.113  0.00  0.00    +0.020 C 
ATOM      6  C   LIG A   1      -0.436   0.693   0.755  0.00  0.00    +0.026 C 
ATOM      7  C   LIG A   1      -0.480   0.250  -0.814  0.00  0.00    +0.025 C 
ATOM      8  C   LIG A   1       0.867   0.177  -1.495  0.00  0.00    -0.033 C 
ATOM      9  C   LIG A   1       1.894   0.991  -1.766  0.00  0.00    -0.063 C 
ATOM     10  C   LIG A   1       1.998   2.457  -1.544  0.00  0.00    +0.040 C 
ATOM     11  C   LIG A   1       3.091   0.173  -2.240  0.00  0.00    +0.051 C 
ATOM     12  C   LIG A   1       2.687  -1.263  -1.801  0.00  0.00    +0.048 C 
ATOM     13  C   LIG A   1       1.173  -1.233  -1.870  0.00  0.00    +0.146 C 
ATOM     14  O   LIG A   1       0.386  -1.970  -0.935  0.00  0.00    -0.364 OA
ATOM     15  C   LIG A   1      -1.396   1.155  -1.651  0.00  0.00    +0.019 C 
ATOM     16  C   LIG A   1      -0.880  -1.262  -1.033  0.00  0.00    +0.170 C 
ATOM     17  C   LIG A   1      -1.988  -1.770  -0.121  0.00  0.00    +0.211 C 
ATOM     18  O   LIG A   1      -2.091  -3.195   0.022  0.00  0.00    -0.458 OA
ATOM     19  C   LIG A   1      -2.533  -3.477   1.310  0.00  0.00    +0.318 C 
ATOM     20  O   LIG A   1      -2.719  -4.601   1.744  0.00  0.00    -0.250 OA
ATOM     21  C   LIG A   1      -2.482  -1.983   3.489  0.00  0.00    -0.005 C 
ATOM     22  C   LIG A   1      -1.973  -0.831   3.965  0.00  0.00    +0.044 C 
ATOM     23  C   LIG A   1      -1.702   0.356   3.076  0.00  0.00    +0.162 C 
ATOM     24  O   LIG A   1      -1.551   1.466   3.580  0.00  0.00    -0.292 OA
ENDROOT
BRANCH  11  25
ATOM     25  C   LIG A   1       3.350   0.338  -3.712  0.00  0.00    -0.003 A 
ATOM     26  C   LIG A   1       4.179   1.280  -4.297  0.00  0.00    +0.199 A 
ATOM     27  O   LIG A   1       4.190   1.156  -5.648  0.00  0.00    -0.471 OA
ATOM     28  C   LIG A   1       3.365   0.125  -5.954  0.00  0.00    +0.195 A 
ATOM     29  C   LIG A   1       2.825  -0.409  -4.809  0.00  0.00    +0.045 A 
ENDBRANCH  11  25
BRANCH   6  30
ATOM     30  C   LIG A   1       0.923   0.295   1.435  0.00  0.00    +0.126 C 
BRANCH  30  31
ATOM     31  C   LIG A   1       1.212   0.830   2.831  0.00  0.00    +0.307 C 
ATOM     32  O   LIG A   1       1.036   0.192   3.864  0.00  0.00    -0.251 OA
BRANCH  31  33
ATOM     33  O   LIG A   1       1.725   2.093   2.740  0.00  0.00    -0.468 OA
ATOM     34  C   LIG A   1       1.928   2.749   3.998  0.00  0.00    +0.280 C 
ENDBRANCH  31  33
ENDBRANCH  30  31
ENDBRANCH   6  30
TORSDOF 4
