REMARK  Name = NuBBE_418
REMARK  18 active torsions:
REMARK  status: ('A' for Active; 'I' for Inactive)
REMARK    1  A    between atoms: C_4  and  O_12
REMARK    2  A    between atoms: C_8  and  C_9
REMARK    3  A    between atoms: C_9  and  O_10
REMARK    4  A    between atoms: O_12  and  C_13
REMARK    5  A    between atoms: C_16  and  C_24
REMARK    6  A    between atoms: C_18  and  O_23
REMARK    7  A    between atoms: C_20  and  O_22
REMARK    8  A    between atoms: C_24  and  O_25
REMARK    9  A    between atoms: C_26  and  O_28
REMARK   10  A    between atoms: O_28  and  C_29
REMARK   11  A    between atoms: C_29  and  C_30
REMARK   12  A    between atoms: C_31  and  C_32
REMARK   13  A    between atoms: C_34  and  O_35
REMARK   14  A    between atoms: O_35  and  C_36
REMARK   15  A    between atoms: C_37  and  O_40
REMARK   16  A    between atoms: O_40  and  C_41
REMARK   17  A    between atoms: C_45  and  O_50
REMARK   18  A    between atoms: C_47  and  C_49
REMARK                            x       y       z     vdW  Elec       q    Type
REMARK                         _______ _______ _______ _____ _____    ______ ____
ROOT
ATOM      1  C   LIG A   1      -0.132   0.238   1.313  0.00  0.00    +0.298 C 
ATOM      2  O   LIG A   1       1.050  -0.454   1.734  0.00  0.00    -0.339 OA
ATOM      3  C   LIG A   1       2.251   0.323   1.841  0.00  0.00    +0.178 C 
ATOM      4  C   LIG A   1       1.994   1.839   1.818  0.00  0.00    +0.178 C 
ATOM      5  C   LIG A   1       1.356   2.156   0.460  0.00  0.00    +0.191 C 
ATOM      6  C   LIG A   1       0.146   1.244   0.165  0.00  0.00    +0.263 C 
ENDROOT
BRANCH   5   7
ATOM      7  O   LIG A   1       0.985   3.542   0.409  0.00  0.00    -0.385 OA
ATOM      8  H   LIG A   1       1.794   4.029   0.665  0.00  0.00    +0.210 HD
ENDBRANCH   5   7
BRANCH   4   9
ATOM      9  O   LIG A   1       3.171   2.641   1.949  0.00  0.00    -0.386 OA
ATOM     10  H   LIG A   1       3.615   2.342   2.774  0.00  0.00    +0.210 HD
ENDBRANCH   4   9
BRANCH   1  11
ATOM     11  O   LIG A   1      -0.802   0.869   2.418  0.00  0.00    -0.308 OA
BRANCH  11  14
ATOM     12  C   LIG A   1      -3.354   1.291   3.985  0.00  0.00    +0.041 C 
ATOM     13  C   LIG A   1      -2.063   0.608   4.501  0.00  0.00    +0.071 C 
ATOM     14  C   LIG A   1      -1.305  -0.095   3.369  0.00  0.00    +0.313 C 
ATOM     15  O   LIG A   1      -2.160  -1.087   2.773  0.00  0.00    -0.470 OA
ATOM     16  C   LIG A   1      -3.373  -0.586   2.355  0.00  0.00    +0.201 C 
ATOM     17  C   LIG A   1      -3.928   0.546   2.791  0.00  0.00    +0.074 C 
ATOM     18  C   LIG A   1      -4.318   1.292   5.211  0.00  0.00    +0.040 C 
ATOM     19  C   LIG A   1      -3.583   0.567   6.340  0.00  0.00    +0.118 C 
ATOM     20  C   LIG A   1      -2.606  -0.342   5.597  0.00  0.00    +0.024 C 
ATOM     21  C   LIG A   1      -1.537  -0.969   6.475  0.00  0.00    +0.010 C 
BRANCH  17  22
ATOM     22  C   LIG A   1      -5.124   1.181   2.141  0.00  0.00    +0.336 C 
ATOM     23  O   LIG A   1      -5.669   2.146   2.629  0.00  0.00    -0.245 OA
BRANCH  22  24
ATOM     24  O   LIG A   1      -5.524   0.637   0.983  0.00  0.00    -0.477 OA
ATOM     25  H   LIG A   1      -4.978  -0.076   0.635  0.00  0.00    +0.295 HD
ENDBRANCH  22  24
ENDBRANCH  17  22
BRANCH  19  26
ATOM     26  O   LIG A   1      -2.873   1.510   7.135  0.00  0.00    -0.392 OA
ATOM     27  H   LIG A   1      -3.521   2.147   7.484  0.00  0.00    +0.210 HD
ENDBRANCH  19  26
ENDBRANCH  11  14
ENDBRANCH   1  11
BRANCH   3  28
ATOM     28  C   LIG A   1       2.999  -0.189   3.079  0.00  0.00    +0.190 C 
BRANCH  28  29
ATOM     29  O   LIG A   1       4.174   0.560   3.359  0.00  0.00    -0.392 OA
ATOM     30  H   LIG A   1       4.567   0.167   4.162  0.00  0.00    +0.209 HD
ENDBRANCH  28  29
ENDBRANCH   3  28
BRANCH   6  31
ATOM     31  O   LIG A   1       0.500   0.552  -1.052  0.00  0.00    -0.450 OA
BRANCH  31  32
ATOM     32  C   LIG A   1      -0.498  -0.135  -1.667  0.00  0.00    +0.332 C 
ATOM     33  O   LIG A   1      -1.596  -0.361  -1.235  0.00  0.00    -0.246 OA
BRANCH  32  34
ATOM     34  C   LIG A   1      -0.061  -0.570  -3.017  0.00  0.00    +0.092 C 
ATOM     35  C   LIG A   1       1.106  -0.225  -3.557  0.00  0.00    +0.015 C 
BRANCH  35  36
ATOM     36  C   LIG A   1       1.488  -0.595  -4.923  0.00  0.00    -0.021 A 
ATOM     37  C   LIG A   1       2.834  -0.801  -5.250  0.00  0.00    +0.057 A 
ATOM     38  C   LIG A   1       3.213  -1.221  -6.535  0.00  0.00    +0.162 A 
ATOM     39  C   LIG A   1       2.215  -1.423  -7.502  0.00  0.00    +0.162 A 
ATOM     40  C   LIG A   1       0.886  -1.110  -7.199  0.00  0.00    +0.050 A 
ATOM     41  C   LIG A   1       0.523  -0.711  -5.921  0.00  0.00    +0.012 A 
BRANCH  38  42
ATOM     42  O   LIG A   1       4.566  -1.418  -6.658  0.00  0.00    -0.491 OA
ATOM     43  C   LIG A   1       5.062  -1.844  -7.920  0.00  0.00    +0.277 C 
ENDBRANCH  38  42
BRANCH  39  44
ATOM     44  O   LIG A   1       2.538  -1.907  -8.743  0.00  0.00    -0.491 OA
ATOM     45  C   LIG A   1       1.555  -2.773  -9.309  0.00  0.00    +0.277 C 
ENDBRANCH  39  44
ENDBRANCH  35  36
ENDBRANCH  32  34
ENDBRANCH  31  32
ENDBRANCH   6  31
TORSDOF 15
