@<TRIPOS>MOLECULE
NuBBE_1120
 71 76 0 0 0
SMALL
GASTEIGER

@<TRIPOS>ATOM
      1 C          -1.9756    2.5664    0.5186 C.3     1  LIG1       -0.0531
      2 C          -1.0513    2.1541   -0.6732 C.3     1  LIG1        0.0420
      3 C           0.1911    1.4386   -0.1360 C.3     1  LIG1        0.1250
      4 O           0.5222    1.7810    1.2235 O.3     1  LIG1       -0.3515
      5 C           0.4638   -0.0853   -0.4533 C.3     1  LIG1        0.0412
      6 C           1.4936   -0.6956    0.5752 C.3     1  LIG1        0.1117
      7 H           2.2128    0.0715    0.8721 H       1  LIG1        0.0740
      8 C           0.9188   -1.2339    1.8938 C.3     1  LIG1       -0.0105
      9 C          -0.6062   -1.4304    1.9329 C.3     1  LIG1       -0.0164
     10 C          -1.0920   -2.1552    3.2432 C.3     1  LIG1        0.0311
     11 C          -0.3908   -3.4910    3.5557 C.3     1  LIG1       -0.0525
     12 C          -2.5990   -2.4345    3.1858 C.2     1  LIG1        0.1617
     13 C          -3.2779   -2.5061    1.8756 C.2     1  LIG1       -0.0221
     14 C          -2.6186   -2.3456    0.7236 C.2     1  LIG1       -0.0742
     15 C          -1.1391   -2.0139    0.5914 C.3     1  LIG1       -0.0063
     16 C          -0.8704   -0.9451   -0.5693 C.3     1  LIG1       -0.0204
     17 C          -2.1297   -0.1060   -0.9305 C.3     1  LIG1       -0.0480
     18 C          -1.8538    1.2312   -1.6010 C.3     1  LIG1       -0.0409
     19 C          -0.5010   -3.3772    0.2093 C.3     1  LIG1       -0.0555
     20 O          -3.2709   -2.6729    4.1896 O.2     1  LIG1       -0.2921
     21 C          -0.8616   -1.2246    4.4589 C.3     1  LIG1       -0.0525
     22 O           2.2614   -1.7863    0.0037 O.3     1  LIG1       -0.4609
     23 C           3.5997   -1.5766   -0.1644 C.2     1  LIG1        0.3042
     24 C           4.2923   -2.8851   -0.3830 C.3     1  LIG1        0.0332
     25 O           4.1585   -0.4893   -0.1549 O.2     1  LIG1       -0.2512
     26 C           1.1440   -0.1528   -1.8516 C.3     1  LIG1       -0.0531
     27 C           1.3320    2.3936    0.2118 C.3     1  LIG1        0.1858
     28 H           2.3565    2.0603    0.1119 H       1  LIG1        0.0743
     29 C           1.1816    3.8653    0.1671 C.2     1  LIG1        0.3398
     30 O           0.1605    4.3544   -0.5865 O.3     1  LIG1       -0.4538
     31 C          -0.6550    3.4905   -1.4137 C.3     1  LIG1        0.1427
     32 H          -1.6003    4.0414   -1.5113 H       1  LIG1        0.0794
     33 C          -0.0446    3.4807   -2.7820 C.2     1  LIG1        0.0792
     34 C           1.0057    2.8699   -3.3280 C.2     1  LIG1       -0.0030
     35 C           1.1355    3.1940   -4.7573 C.3     1  LIG1        0.2233
     36 O           0.1943    4.2282   -4.9667 O.3     1  LIG1       -0.4282
     37 C          -0.5958    4.3258   -3.8611 C.2     1  LIG1        0.3410
     38 O          -1.5912    5.0062   -3.7735 O.2     1  LIG1       -0.2451
     39 O           2.4501    3.5900   -5.0699 O.3     1  LIG1       -0.3545
     40 O           1.9512    4.5917    0.7771 O.2     1  LIG1       -0.2478
     41 H          -2.1734    1.7302    1.1966 H       1  LIG1        0.0237
     42 H          -2.9393    2.9432    0.1565 H       1  LIG1        0.0237
     43 H          -1.5303    3.3603    1.1282 H       1  LIG1        0.0237
     44 H           1.2002   -0.5370    2.6917 H       1  LIG1        0.0304
     45 H           1.4321   -2.1714    2.1366 H       1  LIG1        0.0304
     46 H          -1.0352   -0.4178    1.9955 H       1  LIG1        0.0320
     47 H          -0.5002   -4.2235    2.7557 H       1  LIG1        0.0239
     48 H          -0.8198   -3.9575    4.4517 H       1  LIG1        0.0239
     49 H           0.6772   -3.3593    3.7558 H       1  LIG1        0.0239
     50 H          -4.3342   -2.7512    1.9035 H       1  LIG1        0.0649
     51 H          -3.1821   -2.4992   -0.1960 H       1  LIG1        0.0579
     52 H          -0.7381   -1.5622   -1.4703 H       1  LIG1        0.0316
     53 H          -2.7444    0.0717   -0.0433 H       1  LIG1        0.0269
     54 H          -2.7568   -0.6950   -1.6134 H       1  LIG1        0.0269
     55 H          -2.8102    1.7036   -1.8614 H       1  LIG1        0.0273
     56 H          -1.3524    1.0624   -2.5568 H       1  LIG1        0.0273
     57 H          -0.5994   -3.5832   -0.8631 H       1  LIG1        0.0238
     58 H          -0.9985   -4.2182    0.7078 H       1  LIG1        0.0238
     59 H           0.5566   -3.4521    0.4596 H       1  LIG1        0.0238
     60 H          -1.3882   -0.2721    4.3313 H       1  LIG1        0.0239
     61 H           0.2002   -1.0120    4.6164 H       1  LIG1        0.0239
     62 H          -1.2354   -1.6753    5.3864 H       1  LIG1        0.0239
     63 H           4.2587   -3.1476   -1.4413 H       1  LIG1        0.0342
     64 H           3.8070   -3.6611    0.2166 H       1  LIG1        0.0342
     65 H           5.3297   -2.8105   -0.0442 H       1  LIG1        0.0342
     66 H           2.1014    0.3752   -1.8477 H       1  LIG1        0.0237
     67 H           0.5232    0.2753   -2.6379 H       1  LIG1        0.0237
     68 H           1.3386   -1.1848   -2.1644 H       1  LIG1        0.0237
     69 H           1.6947    2.2134   -2.8320 H       1  LIG1        0.0640
     70 H           0.8686    2.3419   -5.3919 H       1  LIG1        0.1105
     71 H           2.8493    3.9864   -4.2799 H       1  LIG1        0.2139
@<TRIPOS>BOND
     1     2     3    1
     2     3     4    1
     3     3     5    1
     4     5     6    1
     5     6     8    1
     6     8     9    1
     7     9    10    1
     8    10    12    1
     9    12    13    1
    10    13    14    2
    11    14    15    1
    12    15    16    1
    13    16    17    1
    14    17    18    1
    15     2    18    1
    16     9    15    1
    17    22    23    1
    18    23    24    1
    19    23    25    2
    20    16     5    1
    21     3    27    1
    22     4    27    1
    23    27    29    1
    24    29    30    1
    25    30    31    1
    26     2    31    1
    27    33    34    2
    28    34    35    1
    29    35    36    1
    30    36    37    1
    31    33    37    1
    32    37    38    2
    33    35    39    1
    34     1     2    1
    35     5    26    1
    36    10    11    1
    37    10    21    1
    38    12    20    2
    39    15    19    1
    40    27    28    1
    41    29    40    2
    42     6    22    1
    43     6     7    1
    44    31    33    1
    45    31    32    1
    46     1    41    1
    47     1    42    1
    48     1    43    1
    49     8    44    1
    50     8    45    1
    51     9    46    1
    52    11    47    1
    53    11    48    1
    54    11    49    1
    55    13    50    1
    56    14    51    1
    57    16    52    1
    58    17    53    1
    59    17    54    1
    60    18    55    1
    61    18    56    1
    62    19    57    1
    63    19    58    1
    64    19    59    1
    65    21    60    1
    66    21    61    1
    67    21    62    1
    68    24    63    1
    69    24    64    1
    70    24    65    1
    71    26    66    1
    72    26    67    1
    73    26    68    1
    74    34    69    1
    75    35    70    1
    76    39    71    1
