@<TRIPOS>MOLECULE
NuBBE_2066
 51 54 0 0 0
SMALL
GASTEIGER

@<TRIPOS>ATOM
      1 C           3.1037    4.1107    0.8993 C.3     1  LIG1        0.0372
      2 O           2.9034    3.0533    1.8395 O.3     1  LIG1       -0.3755
      3 C           1.7157    2.2683    1.6302 C.3     1  LIG1        0.0828
      4 H           1.6576    1.6070    2.5042 H       1  LIG1        0.0642
      5 C           0.5068    3.1613    1.6994 C.2     1  LIG1       -0.0550
      6 C          -0.4418    3.2118    0.7490 C.2     1  LIG1       -0.0542
      7 C          -0.3576    2.3420   -0.3806 C.2     1  LIG1        0.0087
      8 C          -0.9049    2.5876   -1.5831 C.2     1  LIG1       -0.0304
      9 C          -0.3669    1.6334   -2.5957 C.3     1  LIG1       -0.0118
     10 N           0.8397    0.9721   -1.9416 N.4     1  LIG1        0.2330
     11 O           1.9610    1.7115   -2.3611 O.co2   1  LIG1       -0.7736
     12 C           1.1300   -0.4317   -2.3593 C.3     1  LIG1       -0.0001
     13 C           0.0566   -1.4423   -2.0172 C.3     1  LIG1        0.1233
     14 H           0.4629   -2.4470   -2.1963 H       1  LIG1        0.0700
     15 O          -1.1429   -1.3070   -2.7851 O.3     1  LIG1       -0.3699
     16 C          -1.0079   -1.6187   -4.1659 C.3     1  LIG1        0.0375
     17 C          -0.3291   -1.3331   -0.5602 C.ar    1  LIG1       -0.0010
     18 C          -0.9124   -2.4760    0.0285 C.ar    1  LIG1       -0.0100
     19 C          -1.3913   -2.4771    1.3391 C.ar    1  LIG1        0.1618
     20 O          -2.0495   -3.5501    1.8715 O.3     1  LIG1       -0.4914
     21 C          -1.6917   -4.8393    1.3921 C.3     1  LIG1        0.0790
     22 C          -1.2936   -1.3005    2.0858 C.ar    1  LIG1        0.1620
     23 O          -1.7622   -1.1008    3.3628 O.3     1  LIG1       -0.4914
     24 C          -1.7684   -2.2313    4.2317 C.3     1  LIG1        0.0790
     25 C          -0.7047   -0.1579    1.5042 C.ar    1  LIG1       -0.0068
     26 C          -0.1858   -0.1460    0.1858 C.ar    1  LIG1        0.0174
     27 C           0.5524    1.1091   -0.3902 C.3     1  LIG1        0.0442
     28 C           1.8656    1.3583    0.3925 C.3     1  LIG1        0.0317
     29 H           4.0784    4.5622    1.1018 H       1  LIG1        0.0524
     30 H           2.3450    4.8895    1.0204 H       1  LIG1        0.0524
     31 H           3.1042    3.7581   -0.1347 H       1  LIG1        0.0524
     32 H           0.4464    3.8319    2.5506 H       1  LIG1        0.0598
     33 H          -1.2384    3.9460    0.8056 H       1  LIG1        0.0620
     34 H          -1.5191    3.4350   -1.8366 H       1  LIG1        0.0630
     35 H          -0.0185    2.1311   -3.5058 H       1  LIG1        0.0861
     36 H          -1.1290    0.9024   -2.8424 H       1  LIG1        0.0861
     37 H           1.3451   -0.3855   -3.4303 H       1  LIG1        0.0843
     38 H           2.0630   -0.6907   -1.8404 H       1  LIG1        0.0843
     39 H          -1.9406   -1.3424   -4.6661 H       1  LIG1        0.0524
     40 H          -0.8364   -2.6890   -4.3014 H       1  LIG1        0.0524
     41 H          -0.2067   -1.0454   -4.6375 H       1  LIG1        0.0524
     42 H          -1.0226   -3.3594   -0.5933 H       1  LIG1        0.0659
     43 H          -2.2202   -5.5761    2.0045 H       1  LIG1        0.0660
     44 H          -0.6167   -5.0157    1.5030 H       1  LIG1        0.0660
     45 H          -2.0156   -4.9873    0.3582 H       1  LIG1        0.0660
     46 H          -2.0201   -1.8824    5.2381 H       1  LIG1        0.0660
     47 H          -0.7795   -2.7004    4.2763 H       1  LIG1        0.0660
     48 H          -2.5453   -2.9538    3.9691 H       1  LIG1        0.0660
     49 H          -0.6687    0.7356    2.1232 H       1  LIG1        0.0660
     50 H           2.6456    1.7677   -0.2507 H       1  LIG1        0.0359
     51 H           2.3048    0.4013    0.7088 H       1  LIG1        0.0359
@<TRIPOS>BOND
     1     1     2    1
     2     3     5    1
     3     5     6    2
     4     6     7    1
     5     7     8    2
     6     8     9    1
     7     9    10    1
     8    10    12    1
     9    12    13    1
    10    15    16    1
    11    13    17    1
    12    17    18   ar
    13    18    19   ar
    14    20    21    1
    15    19    22   ar
    16    23    24    1
    17    22    25   ar
    18    25    26   ar
    19    17    26   ar
    20    26    27    1
    21    10    27    1
    22     7    27    1
    23    27    28    1
    24     3    28    1
    25    10    11    1
    26    19    20    1
    27    22    23    1
    28    13    15    1
    29    13    14    1
    30     3     4    1
    31     3     2    1
    32     1    29    1
    33     1    30    1
    34     1    31    1
    35     5    32    1
    36     6    33    1
    37     8    34    1
    38     9    35    1
    39     9    36    1
    40    12    37    1
    41    12    38    1
    42    16    39    1
    43    16    40    1
    44    16    41    1
    45    18    42    1
    46    21    43    1
    47    21    44    1
    48    21    45    1
    49    24    46    1
    50    24    47    1
    51    24    48    1
    52    25    49    1
    53    28    50    1
    54    28    51    1
