@<TRIPOS>MOLECULE
NuBBE_1256
 84 87 0 0 0
SMALL
GASTEIGER

@<TRIPOS>ATOM
      1 H           1.0382    2.4989   -1.0033 H       1  LIG1        0.0331
      2 C          -0.0432    2.4209   -0.8257 C.3     1  LIG1       -0.0088
      3 C          -0.3780    3.1428    0.4865 C.3     1  LIG1       -0.0468
      4 C          -1.2303    2.1865    1.3036 C.3     1  LIG1       -0.0465
      5 C          -0.8354    0.7443    0.8926 C.3     1  LIG1       -0.0232
      6 C          -2.1559   -0.0780    0.9163 C.3     1  LIG1       -0.0588
      7 C          -0.4035    0.9163   -0.5999 C.3     1  LIG1       -0.0297
      8 H          -1.2905    0.7198   -1.2124 H       1  LIG1        0.0310
      9 C           0.6194   -0.0835   -1.1740 C.3     1  LIG1       -0.0491
     10 C           1.5575   -0.8126   -0.2037 C.3     1  LIG1       -0.0489
     11 C           0.8245   -1.2072    1.0889 C.3     1  LIG1       -0.0292
     12 H          -0.0655   -1.7248    0.7140 H       1  LIG1        0.0312
     13 C           1.4810   -2.3231    2.0215 C.3     1  LIG1       -0.0217
     14 C           2.0357   -3.4493    1.1084 C.3     1  LIG1       -0.0587
     15 C           2.7147   -1.8189    2.8694 C.3     1  LIG1       -0.0367
     16 C           3.4132   -2.8603    3.7735 C.3     1  LIG1        0.0453
     17 C           4.5802   -2.2770    4.5401 C.2     1  LIG1        0.3047
     18 O           5.1599   -3.2082    5.3335 O.3     1  LIG1       -0.4806
     19 O           4.9895   -1.1385    4.5222 O.2     1  LIG1       -0.2510
     20 C           0.3302   -2.8367    3.0088 C.3     1  LIG1       -0.0147
     21 H           0.8131   -3.0491    3.9680 H       1  LIG1        0.0351
     22 C          -0.7030   -1.7307    3.3696 C.3     1  LIG1       -0.0455
     23 C          -0.2031   -0.2876    3.2321 C.3     1  LIG1       -0.0463
     24 C           0.3101    0.0878    1.8101 C.3     1  LIG1       -0.0231
     25 C           1.4633    1.1193    2.0048 C.3     1  LIG1       -0.0588
     26 C          -0.3971   -4.1503    2.6414 C.2     1  LIG1       -0.0761
     27 C          -1.2537   -4.2241    1.4022 C.3     1  LIG1       -0.0438
     28 C          -0.3135   -5.2488    3.4175 C.2     1  LIG1       -0.0994
     29 C          -0.7679    3.0530   -2.0548 C.3     1  LIG1        0.0704
     30 C          -0.2593    4.4811   -2.3345 C.3     1  LIG1       -0.0355
     31 C          -2.2980    3.0549   -1.9404 C.3     1  LIG1       -0.0213
     32 C          -2.7416    2.9216   -3.3740 C.3     1  LIG1       -0.0213
     33 C          -1.6767    2.0049   -3.9621 C.3     1  LIG1        0.0876
     34 H          -1.9373    0.9627   -3.7343 H       1  LIG1        0.0625
     35 O          -0.4587    2.2698   -3.2305 O.3     1  LIG1       -0.3673
     36 C          -1.4704    2.1490   -5.4916 C.3     1  LIG1        0.0865
     37 C          -0.3739    1.1962   -5.9827 C.3     1  LIG1       -0.0339
     38 C          -2.7762    1.8772   -6.2453 C.3     1  LIG1       -0.0339
     39 O          -1.0774    3.4938   -5.8026 O.3     1  LIG1       -0.3866
     40 H          -0.9063    4.0907    0.3500 H       1  LIG1        0.0269
     41 H           0.5434    3.4005    1.0172 H       1  LIG1        0.0269
     42 H          -2.2817    2.3876    1.0591 H       1  LIG1        0.0271
     43 H          -1.1308    2.3755    2.3764 H       1  LIG1        0.0271
     44 H          -2.9092    0.3589    0.2482 H       1  LIG1        0.0235
     45 H          -2.6113   -0.0808    1.9111 H       1  LIG1        0.0235
     46 H          -2.0213   -1.1086    0.5814 H       1  LIG1        0.0235
     47 H           1.2101    0.3784   -1.9738 H       1  LIG1        0.0268
     48 H           0.0347   -0.8683   -1.6782 H       1  LIG1        0.0268
     49 H           2.4480   -0.2126    0.0015 H       1  LIG1        0.0268
     50 H           1.9183   -1.6960   -0.7399 H       1  LIG1        0.0268
     51 H           1.3333   -3.7272    0.3185 H       1  LIG1        0.0235
     52 H           2.2899   -4.3568    1.6612 H       1  LIG1        0.0235
     53 H           2.9485   -3.1161    0.5984 H       1  LIG1        0.0235
     54 H           3.4641   -1.3951    2.1880 H       1  LIG1        0.0276
     55 H           2.4125   -1.0122    3.5371 H       1  LIG1        0.0276
     56 H           3.7897   -3.7014    3.1868 H       1  LIG1        0.0378
     57 H           2.7213   -3.2373    4.5332 H       1  LIG1        0.0378
     58 H           5.8744   -2.7219    5.7953 H       1  LIG1        0.2951
     59 H          -1.0244   -1.8780    4.4101 H       1  LIG1        0.0271
     60 H          -1.6122   -1.8510    2.7785 H       1  LIG1        0.0271
     61 H           0.5856   -0.1337    3.9785 H       1  LIG1        0.0271
     62 H          -0.9972    0.4010    3.5436 H       1  LIG1        0.0271
     63 H           1.1602    1.9374    2.6664 H       1  LIG1        0.0235
     64 H           1.7996    1.5597    1.0633 H       1  LIG1        0.0235
     65 H           2.3580    0.6897    2.4520 H       1  LIG1        0.0235
     66 H          -1.5356   -5.2591    1.1709 H       1  LIG1        0.0274
     67 H          -0.7342   -3.8503    0.5209 H       1  LIG1        0.0274
     68 H          -2.1789   -3.6564    1.5277 H       1  LIG1        0.0274
     69 H          -0.8444   -6.1629    3.1573 H       1  LIG1        0.0534
     70 H           0.2642   -5.2806    4.3351 H       1  LIG1        0.0534
     71 H          -0.7527    4.9149   -3.2118 H       1  LIG1        0.0257
     72 H           0.8120    4.4810   -2.5613 H       1  LIG1        0.0257
     73 H          -0.4378    5.1599   -1.4954 H       1  LIG1        0.0257
     74 H          -2.6987    3.9442   -1.4457 H       1  LIG1        0.0294
     75 H          -2.6789    2.1914   -1.3888 H       1  LIG1        0.0294
     76 H          -2.7466    3.9049   -3.8547 H       1  LIG1        0.0292
     77 H          -3.7469    2.4990   -3.4631 H       1  LIG1        0.0292
     78 H          -0.2361    1.2841   -7.0669 H       1  LIG1        0.0258
     79 H          -0.6190    0.1534   -5.7549 H       1  LIG1        0.0258
     80 H           0.5942    1.4357   -5.5301 H       1  LIG1        0.0258
     81 H          -2.6279    1.9658   -7.3275 H       1  LIG1        0.0258
     82 H          -3.5431    2.6162   -5.9869 H       1  LIG1        0.0258
     83 H          -3.1668    0.8781   -6.0283 H       1  LIG1        0.0258
     84 H          -0.7401    3.5063   -6.7139 H       1  LIG1        0.2102
@<TRIPOS>BOND
     1     2     3    1
     2     3     4    1
     3     4     5    1
     4     5     7    1
     5     2     7    1
     6     7     9    1
     7     9    10    1
     8    10    11    1
     9    11    13    1
    10    15    16    1
    11    16    17    1
    12    17    18    1
    13    17    19    2
    14    13    20    1
    15    20    22    1
    16    22    23    1
    17    23    24    1
    18     5    24    1
    19    11    24    1
    20    26    27    1
    21    26    28    2
    22    29    31    1
    23    31    32    1
    24    32    33    1
    25    33    35    1
    26    29    35    1
    27    36    37    1
    28    36    38    1
    29    36    39    1
    30     1     2    1
    31     5     6    1
    32     7     8    1
    33    11    12    1
    34    13    14    1
    35    13    15    1
    36    24    25    1
    37    33    36    1
    38    33    34    1
    39    20    26    1
    40    20    21    1
    41    29     2    1
    42    29    30    1
    43     3    40    1
    44     3    41    1
    45     4    42    1
    46     4    43    1
    47     6    44    1
    48     6    45    1
    49     6    46    1
    50     9    47    1
    51     9    48    1
    52    10    49    1
    53    10    50    1
    54    14    51    1
    55    14    52    1
    56    14    53    1
    57    15    54    1
    58    15    55    1
    59    16    56    1
    60    16    57    1
    61    18    58    1
    62    22    59    1
    63    22    60    1
    64    23    61    1
    65    23    62    1
    66    25    63    1
    67    25    64    1
    68    25    65    1
    69    27    66    1
    70    27    67    1
    71    27    68    1
    72    28    69    1
    73    28    70    1
    74    30    71    1
    75    30    72    1
    76    30    73    1
    77    31    74    1
    78    31    75    1
    79    32    76    1
    80    32    77    1
    81    37    78    1
    82    37    79    1
    83    37    80    1
    84    38    81    1
    85    38    82    1
    86    38    83    1
    87    39    84    1
