@<TRIPOS>MOLECULE
NuBBE_45
 56 56 0 0 0
SMALL
GASTEIGER

@<TRIPOS>ATOM
      1 O          -2.7233    2.6004   -2.2269 O.3     1  LIG1       -0.3903
      2 C          -1.3841    3.0149   -2.5659 C.3     1  LIG1        0.0703
      3 H          -1.4278    4.0607   -2.8664 H       1  LIG1        0.0609
      4 C          -0.4659    2.8369   -1.3583 C.3     1  LIG1        0.0310
      5 H           0.5885    3.0494   -1.5949 H       1  LIG1        0.0483
      6 C          -0.8060    3.7081   -0.1335 C.3     1  LIG1       -0.0473
      7 N          -0.6648    1.4233   -1.0963 N.3     1  LIG1       -0.3083
      8 C          -0.0214    0.5291   -2.0950 C.3     1  LIG1        0.0080
      9 H           1.0488    0.7981   -2.1307 H       1  LIG1        0.0460
     10 C          -0.1021   -0.9307   -1.6961 C.3     1  LIG1       -0.0375
     11 C           0.3320   -2.2389   -2.3430 C.3     1  LIG1       -0.0516
     12 C           0.0224   -3.5934   -1.5773 C.3     1  LIG1       -0.0530
     13 C           0.7005   -4.1165   -0.2566 C.3     1  LIG1       -0.0531
     14 C           0.3951   -3.5927    1.1652 C.3     1  LIG1       -0.0531
     15 C           0.9468   -2.2340    1.5623 C.3     1  LIG1       -0.0531
     16 C           0.1144   -1.1522    0.9706 C.3     1  LIG1       -0.0530
     17 C           0.8434    0.1964    0.8992 C.3     1  LIG1       -0.0527
     18 C           0.5089    1.1048    2.0299 C.3     1  LIG1       -0.0464
     19 C           1.3842    0.4985    3.1124 C.3     1  LIG1        0.0055
     20 C           1.0935    1.0818    4.3757 C.2     1  LIG1        0.1303
     21 C          -0.0105    0.5316    5.1762 C.3     1  LIG1       -0.0061
     22 O           1.7963    2.0940    4.7770 O.2     1  LIG1       -0.2977
     23 C          -0.7059    0.6562   -3.3902 C.3     1  LIG1       -0.0352
     24 C          -0.8658    2.1270   -3.7286 C.3     1  LIG1       -0.0240
     25 H          -2.9832    3.0845   -1.4240 H       1  LIG1        0.2098
     26 H          -0.8714    4.7657   -0.4122 H       1  LIG1        0.0245
     27 H          -0.0282    3.6568    0.6399 H       1  LIG1        0.0245
     28 H          -1.7447    3.4183    0.3478 H       1  LIG1        0.0245
     29 H          -1.6138    1.1767   -0.8221 H       1  LIG1        0.1225
     30 H           0.7991   -0.8591   -1.0993 H       1  LIG1        0.0280
     31 H          -1.0885   -1.0819   -1.2238 H       1  LIG1        0.0280
     32 H           1.4184   -2.1935   -2.4695 H       1  LIG1        0.0266
     33 H          -0.1361   -2.2851   -3.3262 H       1  LIG1        0.0266
     34 H           0.3529   -4.3453   -2.3121 H       1  LIG1        0.0265
     35 H          -1.0613   -3.7373   -1.4914 H       1  LIG1        0.0265
     36 H           1.7848   -4.1810   -0.3939 H       1  LIG1        0.0265
     37 H           0.3648   -5.1672   -0.1832 H       1  LIG1        0.0265
     38 H           0.8542   -4.2754    1.8908 H       1  LIG1        0.0265
     39 H          -0.6849   -3.6093    1.3496 H       1  LIG1        0.0265
     40 H           1.9829   -2.1153    1.2145 H       1  LIG1        0.0265
     41 H           0.8767   -2.1718    2.6355 H       1  LIG1        0.0265
     42 H          -0.9695   -1.0792    1.1265 H       1  LIG1        0.0265
     43 H           0.0626   -1.7128    0.0774 H       1  LIG1        0.0265
     44 H           0.5458    0.8235    0.1340 H       1  LIG1        0.0265
     45 H           1.9015    0.1526    0.6053 H       1  LIG1        0.0265
     46 H          -0.5764    1.1297    2.2078 H       1  LIG1        0.0269
     47 H           0.8110    2.1353    1.8177 H       1  LIG1        0.0269
     48 H           2.4044    0.4975    2.7838 H       1  LIG1        0.0341
     49 H           1.0596   -0.5123    3.2390 H       1  LIG1        0.0341
     50 H          -0.0667   -0.5566    5.0102 H       1  LIG1        0.0306
     51 H          -0.9556    0.9749    4.8506 H       1  LIG1        0.0306
     52 H           0.1757    0.6995    6.2347 H       1  LIG1        0.0306
     53 H          -1.6742    0.1517   -3.3033 H       1  LIG1        0.0281
     54 H          -0.0945    0.1139   -4.1201 H       1  LIG1        0.0281
     55 H          -1.5632    2.1552   -4.5598 H       1  LIG1        0.0291
     56 H           0.1211    2.4947   -4.0329 H       1  LIG1        0.0291
@<TRIPOS>BOND
     1     1     2    1
     2     2     3    1
     3     2     4    1
     4     4     5    1
     5     4     6    1
     6     4     7    1
     7     7     8    1
     8    10    11    1
     9    11    12    1
    10    12    13    1
    11    13    14    1
    12    14    15    1
    13    15    16    1
    14    16    17    1
    15    17    18    1
    16    18    19    1
    17    19    20    1
    18    20    21    1
    19    20    22    2
    20     8    23    1
    21    23    24    1
    22     2    24    1
    23     8    10    1
    24     8     9    1
    25     1    25    1
    26     6    26    1
    27     6    27    1
    28     6    28    1
    29     7    29    1
    30    10    30    1
    31    10    31    1
    32    11    32    1
    33    11    33    1
    34    12    34    1
    35    12    35    1
    36    13    36    1
    37    13    37    1
    38    14    38    1
    39    14    39    1
    40    15    40    1
    41    15    41    1
    42    16    42    1
    43    16    43    1
    44    17    44    1
    45    17    45    1
    46    18    46    1
    47    18    47    1
    48    19    48    1
    49    19    49    1
    50    21    50    1
    51    21    51    1
    52    21    52    1
    53    23    53    1
    54    23    54    1
    55    24    55    1
    56    24    56    1
