REMARK  Name = NuBBE_55
REMARK  7 active torsions:
REMARK  status: ('A' for Active; 'I' for Inactive)
REMARK    1  A    between atoms: O_1  and  C_2
REMARK    2  A    between atoms: C_3  and  O_4
REMARK    3  A    between atoms: C_5  and  O_6
REMARK    4  A    between atoms: C_8  and  C_9
REMARK    5  A    between atoms: C_9  and  O_10
REMARK    6  A    between atoms: O_10  and  C_11
REMARK    7  A    between atoms: C_11  and  C_12
REMARK                            x       y       z     vdW  Elec       q    Type
REMARK                         _______ _______ _______ _____ _____    ______ ____
ROOT
ATOM      1  C   LIG A   1      -2.569   0.860  -0.214  0.00  0.00    +0.163 A 
ATOM      2  C   LIG A   1      -2.009   2.131  -0.251  0.00  0.00    +0.201 A 
ATOM      3  C   LIG A   1      -0.629   2.280  -0.276  0.00  0.00    +0.163 A 
ATOM      4  C   LIG A   1       0.201   1.169  -0.233  0.00  0.00    +0.064 A 
ATOM      5  C   LIG A   1      -0.362  -0.117  -0.165  0.00  0.00    +0.066 A 
ATOM      6  C   LIG A   1      -1.758  -0.269  -0.153  0.00  0.00    +0.064 A 
ENDROOT
BRANCH   1   7
ATOM      7  O   LIG A   1      -3.924   0.702  -0.265  0.00  0.00    -0.503 OA
ATOM      8  H   LIG A   1      -4.246   1.295  -0.968  0.00  0.00    +0.292 HD
ENDBRANCH   1   7
BRANCH   2   9
ATOM      9  O   LIG A   1      -2.789   3.254  -0.229  0.00  0.00    -0.501 OA
ATOM     10  H   LIG A   1      -3.594   3.010   0.268  0.00  0.00    +0.292 HD
ENDBRANCH   2   9
BRANCH   3  11
ATOM     11  O   LIG A   1      -0.067   3.522  -0.327  0.00  0.00    -0.503 OA
ATOM     12  H   LIG A   1      -0.820   4.144  -0.362  0.00  0.00    +0.292 HD
ENDBRANCH   3  11
BRANCH   5  13
ATOM     13  C   LIG A   1       0.492  -1.334  -0.133  0.00  0.00    +0.339 C 
ATOM     14  O   LIG A   1       0.055  -2.475  -0.099  0.00  0.00    -0.245 OA
BRANCH  13  15
ATOM     15  O   LIG A   1       1.798  -0.975  -0.165  0.00  0.00    -0.461 OA
BRANCH  15  16
ATOM     16  C   LIG A   1       2.760  -2.035  -0.224  0.00  0.00    +0.229 C 
ATOM     17  C   LIG A   1       3.020  -2.599   1.159  0.00  0.00    +0.048 C 
ENDBRANCH  15  16
ENDBRANCH  13  15
ENDBRANCH   5  13
TORSDOF 6
