REMARK  Name = NuBBE_9
REMARK  10 active torsions:
REMARK  status: ('A' for Active; 'I' for Inactive)
REMARK    1  A    between atoms: C_4  and  O_35
REMARK    2  A    between atoms: C_6  and  O_34
REMARK    3  A    between atoms: C_10  and  C_11
REMARK    4  A    between atoms: C_13  and  O_14
REMARK    5  A    between atoms: C_15  and  O_18
REMARK    6  A    between atoms: C_19  and  O_20
REMARK    7  A    between atoms: O_20  and  C_21
REMARK    8  A    between atoms: C_25  and  O_30
REMARK    9  A    between atoms: C_27  and  O_29
REMARK   10  A    between atoms: C_31  and  O_33
REMARK                            x       y       z     vdW  Elec       q    Type
REMARK                         _______ _______ _______ _____ _____    ______ ____
ROOT
ATOM      1  O   LIG A   1      -0.897  -1.247  -2.201  0.00  0.00    -0.283 OA
ATOM      2  C   LIG A   1       0.042  -1.183  -1.417  0.00  0.00    +0.238 A 
ATOM      3  C   LIG A   1       0.735  -2.408  -1.034  0.00  0.00    +0.109 A 
ATOM      4  C   LIG A   1       0.142  -3.664  -1.200  0.00  0.00    +0.135 A 
ATOM      5  C   LIG A   1       0.836  -4.813  -0.844  0.00  0.00    +0.091 A 
ATOM      6  C   LIG A   1       2.132  -4.688  -0.350  0.00  0.00    +0.124 A 
ATOM      7  C   LIG A   1       2.724  -3.436  -0.169  0.00  0.00    +0.092 A 
ATOM      8  C   LIG A   1       2.007  -2.286  -0.494  0.00  0.00    +0.146 A 
ATOM      9  O   LIG A   1       2.589  -1.062  -0.275  0.00  0.00    -0.451 OA
ATOM     10  C   LIG A   1       1.770   0.073  -0.281  0.00  0.00    +0.181 A 
ATOM     11  C   LIG A   1       0.507   0.075  -0.765  0.00  0.00    +0.214 A 
ENDROOT
BRANCH  10  12
ATOM     12  C   LIG A   1       2.432   1.273   0.315  0.00  0.00    +0.025 A 
ATOM     13  C   LIG A   1       2.162   2.576  -0.146  0.00  0.00    +0.060 A 
ATOM     14  C   LIG A   1       2.789   3.678   0.431  0.00  0.00    +0.159 A 
ATOM     15  C   LIG A   1       3.723   3.505   1.445  0.00  0.00    +0.158 A 
ATOM     16  C   LIG A   1       4.037   2.236   1.900  0.00  0.00    +0.050 A 
ATOM     17  C   LIG A   1       3.392   1.125   1.338  0.00  0.00    +0.015 A 
BRANCH  14  18
ATOM     18  O   LIG A   1       2.514   4.956   0.029  0.00  0.00    -0.503 OA
ATOM     19  H   LIG A   1       1.781   4.917  -0.612  0.00  0.00    +0.292 HD
ENDBRANCH  14  18
BRANCH  15  20
ATOM     20  O   LIG A   1       4.338   4.591   1.998  0.00  0.00    -0.503 OA
ATOM     21  H   LIG A   1       3.957   5.356   1.522  0.00  0.00    +0.292 HD
ENDBRANCH  15  20
ENDBRANCH  10  12
BRANCH   6  22
ATOM     22  O   LIG A   1       2.866  -5.792  -0.029  0.00  0.00    -0.506 OA
ATOM     23  H   LIG A   1       2.349  -6.584  -0.253  0.00  0.00    +0.292 HD
ENDBRANCH   6  22
BRANCH   4  24
ATOM     24  O   LIG A   1      -1.124  -3.832  -1.695  0.00  0.00    -0.506 OA
ATOM     25  H   LIG A   1      -1.441  -2.954  -2.001  0.00  0.00    +0.292 HD
ENDBRANCH   4  24
BRANCH  11  26
ATOM     26  O   LIG A   1      -0.326   1.179  -0.665  0.00  0.00    -0.453 OA
BRANCH  26  27
ATOM     27  C   LIG A   1      -1.744   0.949  -0.571  0.00  0.00    +0.339 C 
ATOM     28  O   LIG A   1      -2.394   2.225  -0.490  0.00  0.00    -0.337 OA
ATOM     29  C   LIG A   1      -3.818   2.117  -0.633  0.00  0.00    +0.198 C 
ATOM     30  C   LIG A   1      -4.414   0.841  -0.011  0.00  0.00    +0.171 C 
ATOM     31  C   LIG A   1      -3.556   0.389   1.173  0.00  0.00    +0.180 C 
ATOM     32  C   LIG A   1      -2.120   0.103   0.687  0.00  0.00    +0.214 C 
BRANCH  31  33
ATOM     33  O   LIG A   1      -3.585   1.376   2.204  0.00  0.00    -0.386 OA
ATOM     34  H   LIG A   1      -2.970   1.086   2.902  0.00  0.00    +0.210 HD
ENDBRANCH  31  33
BRANCH  30  35
ATOM     35  O   LIG A   1      -4.432  -0.224  -0.979  0.00  0.00    -0.387 OA
ATOM     36  H   LIG A   1      -5.065   0.027  -1.677  0.00  0.00    +0.210 HD
ENDBRANCH  30  35
BRANCH  32  37
ATOM     37  O   LIG A   1      -2.027  -1.307   0.413  0.00  0.00    -0.383 OA
ATOM     38  H   LIG A   1      -2.679  -1.488  -0.298  0.00  0.00    +0.210 HD
ENDBRANCH  32  37
ENDBRANCH  26  27
ENDBRANCH  11  26
TORSDOF 10
