REMARK  Name = NuBBE_979
REMARK  16 active torsions:
REMARK  status: ('A' for Active; 'I' for Inactive)
REMARK    1  A    between atoms: C_2  and  C_29
REMARK    2  A    between atoms: N_3  and  C_4
REMARK    3  A    between atoms: C_4  and  C_5
REMARK    4  A    between atoms: C_5  and  C_6
REMARK    5  A    between atoms: C_9  and  O_10
REMARK    6  A    between atoms: O_10  and  C_11
REMARK    7  A    between atoms: C_11  and  C_12
REMARK    8  A    between atoms: C_13  and  C_14
REMARK    9  A    between atoms: C_13  and  C_15
REMARK   10  A    between atoms: C_15  and  O_16
REMARK   11  A    between atoms: C_15  and  C_20
REMARK   12  A    between atoms: O_16  and  C_17
REMARK   13  A    between atoms: C_17  and  C_18
REMARK   14  A    between atoms: C_20  and  C_21
REMARK   15  A    between atoms: C_23  and  C_24
REMARK   16  A    between atoms: C_23  and  C_25
REMARK                            x       y       z     vdW  Elec       q    Type
REMARK                         _______ _______ _______ _____ _____    ______ ____
ROOT
ATOM      1  C   LIG A   1      -3.510  -1.545  -0.299  0.00  0.00    -0.046 A 
ATOM      2  C   LIG A   1      -2.614  -2.535   0.124  0.00  0.00    +0.007 A 
ATOM      3  C   LIG A   1      -1.263  -2.467  -0.234  0.00  0.00    +0.046 A 
ATOM      4  C   LIG A   1      -0.789  -1.405  -1.004  0.00  0.00    +0.121 A 
ATOM      5  C   LIG A   1      -1.688  -0.448  -1.476  0.00  0.00    +0.046 A 
ATOM      6  C   LIG A   1      -3.036  -0.505  -1.108  0.00  0.00    +0.007 A 
ENDROOT
BRANCH   1   7
ATOM      7  C   LIG A   1      -4.962  -1.592   0.114  0.00  0.00    +0.054 C 
BRANCH   7   8
ATOM      8  C   LIG A   1      -5.213  -0.871   1.440  0.00  0.00    +0.109 C 
BRANCH   8  11
ATOM      9  O   LIG A   1      -6.534  -2.848   3.007  0.00  0.00    -0.270 OA
ATOM     10  C   LIG A   1      -7.172  -1.894   2.567  0.00  0.00    +0.244 C 
ATOM     11  N   LIG A   1      -6.617  -0.885   1.806  0.00  0.00    -0.311 N 
ATOM     12  H   LIG A   1      -7.178  -0.080   1.559  0.00  0.00    +0.149 HD
BRANCH  10  13
ATOM     13  C   LIG A   1      -8.626  -1.757   2.860  0.00  0.00    +0.037 A 
ATOM     14  C   LIG A   1      -9.489  -1.149   1.937  0.00  0.00    +0.013 A 
ATOM     15  C   LIG A   1     -10.847  -1.021   2.225  0.00  0.00    +0.001 A 
ATOM     16  C   LIG A   1     -11.355  -1.509   3.427  0.00  0.00    +0.000 A 
ATOM     17  C   LIG A   1     -10.505  -2.127   4.346  0.00  0.00    +0.001 A 
ATOM     18  C   LIG A   1      -9.141  -2.254   4.064  0.00  0.00    +0.013 A 
ENDBRANCH  10  13
ENDBRANCH   8  11
ENDBRANCH   7   8
ENDBRANCH   1   7
BRANCH   4  19
ATOM     19  O   LIG A   1       0.561  -1.390  -1.247  0.00  0.00    -0.488 OA
BRANCH  19  20
ATOM     20  C   LIG A   1       1.124  -0.081  -1.405  0.00  0.00    +0.257 C 
BRANCH  20  21
ATOM     21  C   LIG A   1       2.584  -0.128  -1.046  0.00  0.00    +0.016 C 
ATOM     22  C   LIG A   1       3.453   0.908  -1.097  0.00  0.00    -0.033 C 
ATOM     23  C   LIG A   1       3.042   2.310  -1.475  0.00  0.00    +0.043 C 
BRANCH  22  24
ATOM     24  C   LIG A   1       4.954   0.663  -0.920  0.00  0.00    +0.205 C 
BRANCH  24  25
ATOM     25  O   LIG A   1       5.603   1.077  -2.144  0.00  0.00    -0.457 OA
BRANCH  25  26
ATOM     26  C   LIG A   1       5.470   0.217  -3.189  0.00  0.00    +0.304 C 
ATOM     27  C   LIG A   1       5.985   0.855  -4.435  0.00  0.00    +0.136 C 
ATOM     28  O   LIG A   1       4.986  -0.911  -3.143  0.00  0.00    -0.251 OA
ENDBRANCH  25  26
ENDBRANCH  24  25
BRANCH  24  29
ATOM     29  C   LIG A   1       5.588   1.452   0.241  0.00  0.00    +0.083 C 
BRANCH  29  30
ATOM     30  C   LIG A   1       7.061   1.149   0.387  0.00  0.00    +0.154 C 
ATOM     31  O   LIG A   1       7.674   1.870   1.472  0.00  0.00    -0.365 OA
ATOM     32  C   LIG A   1       8.194   2.151   0.167  0.00  0.00    +0.091 C 
ATOM     33  C   LIG A   1       9.588   1.636  -0.039  0.00  0.00    +0.044 C 
ATOM     34  C   LIG A   1       7.936   3.547  -0.307  0.00  0.00    +0.044 C 
ENDBRANCH  29  30
ENDBRANCH  24  29
ENDBRANCH  22  24
ENDBRANCH  20  21
ENDBRANCH  19  20
ENDBRANCH   4  19
TORSDOF 12
