@<TRIPOS>MOLECULE
NuBBE_547
 36 39 0 0 0
SMALL
GASTEIGER

@<TRIPOS>ATOM
      1 O          -1.8874    0.3668   -0.7747 O.2     1  LIG1       -0.2850
      2 C          -0.8248    0.4778   -0.1655 C.2     1  LIG1        0.2118
      3 C          -0.1708    1.8213   -0.1267 C.ar    1  LIG1        0.0241
      4 C          -0.9796    2.9526   -0.2927 C.ar    1  LIG1       -0.0474
      5 C          -0.4249    4.2366   -0.2520 C.ar    1  LIG1       -0.0193
      6 C           0.9425    4.4025   -0.0438 C.ar    1  LIG1        0.1201
      7 O           1.5846    5.6108    0.0211 O.3     1  LIG1       -0.4951
      8 C           0.7842    6.6965    0.4792 C.3     1  LIG1        0.0788
      9 C           1.7600    3.2792    0.0749 C.ar    1  LIG1       -0.0193
     10 C           1.2104    1.9923    0.0313 C.ar    1  LIG1       -0.0474
     11 C          -0.2209   -0.6915    0.5544 C.ar    1  LIG1        0.1187
     12 N           0.4810   -0.3381    1.6716 N.ar    1  LIG1       -0.2511
     13 C           1.0749   -1.3165    2.3725 C.ar    1  LIG1        0.0290
     14 C           1.0203   -2.6492    2.0203 C.ar    1  LIG1       -0.0357
     15 C           0.2925   -3.0217    0.8887 C.ar    1  LIG1       -0.0106
     16 C           0.2363   -4.3795    0.5316 C.ar    1  LIG1       -0.0083
     17 C          -0.4945   -4.7378   -0.5774 C.ar    1  LIG1        0.1668
     18 O          -0.6453   -6.0026   -1.0515 O.3     1  LIG1       -0.4526
     19 C          -1.4840   -5.7607   -2.2002 C.3     1  LIG1        0.2332
     20 O          -1.8283   -4.3701   -2.3723 O.3     1  LIG1       -0.4526
     21 C          -1.1616   -3.8084   -1.3291 C.ar    1  LIG1        0.1669
     22 C          -1.1230   -2.4628   -1.0206 C.ar    1  LIG1       -0.0063
     23 C          -0.3803   -2.0291    0.1132 C.ar    1  LIG1        0.0150
     24 H          -2.0505    2.8408   -0.4511 H       1  LIG1        0.0626
     25 H          -1.0883    5.0815   -0.4013 H       1  LIG1        0.0654
     26 H           1.4347    7.5687    0.5962 H       1  LIG1        0.0660
     27 H           0.3428    6.4718    1.4563 H       1  LIG1        0.0660
     28 H           0.0123    6.9614   -0.2498 H       1  LIG1        0.0660
     29 H           2.8319    3.4023    0.2175 H       1  LIG1        0.0654
     30 H           1.8771    1.1408    0.1302 H       1  LIG1        0.0626
     31 H           1.6209   -0.9917    3.2543 H       1  LIG1        0.0830
     32 H           1.5381   -3.3830    2.6299 H       1  LIG1        0.0639
     33 H           0.7518   -5.1442    1.1030 H       1  LIG1        0.0661
     34 H          -0.9554   -6.1038   -3.0971 H       1  LIG1        0.1166
     35 H          -2.4055   -6.3436   -2.0893 H       1  LIG1        0.1166
     36 H          -1.6709   -1.7694   -1.6513 H       1  LIG1        0.0662
@<TRIPOS>BOND
     1     1     2    2
     2     2     3    1
     3     3     4   ar
     4     4     5   ar
     5     5     6   ar
     6     6     7    1
     7     7     8    1
     8     6     9   ar
     9     9    10   ar
    10     3    10   ar
    11     2    11    1
    12    11    12   ar
    13    12    13   ar
    14    13    14   ar
    15    14    15   ar
    16    15    16   ar
    17    16    17   ar
    18    17    18    1
    19    18    19    1
    20    19    20    1
    21    17    21   ar
    22    20    21    1
    23    21    22   ar
    24    22    23   ar
    25    15    23   ar
    26    11    23   ar
    27     4    24    1
    28     5    25    1
    29     8    26    1
    30     8    27    1
    31     8    28    1
    32     9    29    1
    33    10    30    1
    34    13    31    1
    35    14    32    1
    36    16    33    1
    37    19    34    1
    38    19    35    1
    39    22    36    1
