REMARK  Name = NuBBE_1785
REMARK  4 active torsions:
REMARK  status: ('A' for Active; 'I' for Inactive)
REMARK    1  A    between atoms: C_1  and  C_3
REMARK    2  A    between atoms: C_11  and  O_14
REMARK    3  A    between atoms: O_14  and  C_15
REMARK    4  A    between atoms: C_26  and  O_33
REMARK                            x       y       z     vdW  Elec       q    Type
REMARK                         _______ _______ _______ _____ _____    ______ ____
ROOT
ATOM      1  C   LIG A   1      -2.893   0.668   0.473  0.00  0.00    +0.217 C 
ATOM      2  O   LIG A   1      -3.513  -0.395   0.433  0.00  0.00    -0.276 OA
ATOM      3  C   LIG A   1      -3.583   1.903   0.991  0.00  0.00    +0.110 C 
ATOM      4  N   LIG A   1      -1.564   0.761   0.128  0.00  0.00    -0.267 N 
ATOM      5  C   LIG A   1      -0.730  -0.401  -0.214  0.00  0.00    +0.102 C 
ATOM      6  C   LIG A   1       0.748   0.191  -0.261  0.00  0.00    +0.034 C 
ATOM      7  C   LIG A   1       0.409   1.495  -0.899  0.00  0.00    -0.016 A 
ATOM      8  C   LIG A   1      -0.914   1.858  -0.542  0.00  0.00    +0.044 A 
ATOM      9  C   LIG A   1      -1.426   3.069  -0.971  0.00  0.00    +0.069 A 
ATOM     10  C   LIG A   1      -0.619   3.914  -1.749  0.00  0.00    +0.122 A 
ATOM     11  C   LIG A   1       0.698   3.546  -2.075  0.00  0.00    +0.046 A 
ATOM     12  C   LIG A   1       1.223   2.325  -1.649  0.00  0.00    +0.010 A 
ATOM     13  C   LIG A   1       1.564  -0.968  -0.773  0.00  0.00    +0.070 C 
ATOM     14  N   LIG A   1       2.878  -1.229  -0.163  0.00  0.00    -0.295 NA
ATOM     15  C   LIG A   1       2.921  -0.209   0.928  0.00  0.00    +0.086 C 
ATOM     16  C   LIG A   1       1.526   0.495   1.070  0.00  0.00    +0.030 C 
ATOM     17  C   LIG A   1       2.840  -2.674   0.323  0.00  0.00    +0.115 C 
ATOM     18  C   LIG A   1       1.405  -3.268   0.636  0.00  0.00    -0.054 C 
ATOM     19  C   LIG A   1       1.175  -3.849   1.828  0.00  0.00    +0.002 C 
ATOM     20  C   LIG A   1      -0.139  -4.210   2.453  0.00  0.00    +0.190 C 
ATOM     21  O   LIG A   1      -1.299  -3.687   1.823  0.00  0.00    -0.347 OA
ATOM     22  C   LIG A   1      -1.341  -2.272   1.632  0.00  0.00    +0.253 C 
ATOM     23  C   LIG A   1      -0.937  -1.946   0.194  0.00  0.00    +0.074 C 
ATOM     24  C   LIG A   1       0.244  -2.925  -0.384  0.00  0.00    +0.027 C 
ATOM     25  C   LIG A   1       0.922  -2.135  -1.542  0.00  0.00    +0.028 C 
ENDROOT
BRANCH  10  26
ATOM     26  O   LIG A   1      -1.232   5.079  -2.132  0.00  0.00    -0.495 OA
ATOM     27  C   LIG A   1      -0.613   5.804  -3.188  0.00  0.00    +0.277 C 
ENDBRANCH  10  26
BRANCH  22  28
ATOM     28  O   LIG A   1      -0.618  -1.541   2.600  0.00  0.00    -0.367 OA
ATOM     29  H   LIG A   1      -1.219  -1.456   3.359  0.00  0.00    +0.212 HD
ENDBRANCH  22  28
TORSDOF 2
