REMARK  Name = NuBBE_2390
REMARK  11 active torsions:
REMARK  status: ('A' for Active; 'I' for Inactive)
REMARK    1  A    between atoms: C_1  and  C_2
REMARK    2  A    between atoms: C_5  and  C_6
REMARK    3  A    between atoms: C_5  and  C_9
REMARK    4  A    between atoms: C_6  and  O_8
REMARK    5  A    between atoms: C_17  and  C_19
REMARK    6  A    between atoms: C_19  and  C_20
REMARK    7  A    between atoms: C_20  and  C_21
REMARK    8  A    between atoms: C_21  and  C_23
REMARK    9  A    between atoms: C_21  and  C_26
REMARK   10  A    between atoms: C_23  and  C_24
REMARK   11  A    between atoms: C_24  and  O_25
REMARK                            x       y       z     vdW  Elec       q    Type
REMARK                         _______ _______ _______ _____ _____    ______ ____
ROOT
ATOM      1  C   LIG A   1      -1.667  -0.885  -1.053  0.00  0.00    +0.012 C 
ATOM      2  C   LIG A   1      -0.953  -0.819   0.316  0.00  0.00    -0.022 C 
ATOM      3  C   LIG A   1      -1.923  -0.465   1.515  0.00  0.00    +0.012 C 
ATOM      4  C   LIG A   1      -3.077  -1.480   1.849  0.00  0.00    +0.068 C 
ATOM      5  C   LIG A   1      -3.631  -1.184   3.274  0.00  0.00    +0.023 C 
ATOM      6  C   LIG A   1      -2.475  -2.916   1.945  0.00  0.00    +0.018 C 
ATOM      7  C   LIG A   1      -1.484  -3.289   0.847  0.00  0.00    +0.002 C 
ATOM      8  C   LIG A   1      -0.391  -2.236   0.638  0.00  0.00    +0.007 C 
ATOM      9  C   LIG A   1      -2.359   1.005   1.481  0.00  0.00    +0.009 C 
ATOM     10  C   LIG A   1      -1.138   1.896   1.635  0.00  0.00    +0.031 C 
ATOM     11  C   LIG A   1      -0.256   1.708   0.432  0.00  0.00    -0.073 C 
ATOM     12  C   LIG A   1      -0.024   2.791  -0.330  0.00  0.00    +0.008 C 
ATOM     13  C   LIG A   1       0.255   0.267   0.238  0.00  0.00    +0.021 C 
ENDROOT
BRANCH   4  14
ATOM     14  C   LIG A   1      -4.269  -1.488   0.885  0.00  0.00    +0.311 C 
ATOM     15  O   LIG A   1      -4.611  -2.476   0.218  0.00  0.00    -0.250 OA
BRANCH  14  16
ATOM     16  O   LIG A   1      -4.993  -0.357   0.822  0.00  0.00    -0.480 OA
ATOM     17  H   LIG A   1      -4.728   0.369   1.401  0.00  0.00    +0.295 HD
ENDBRANCH  14  16
ENDBRANCH   4  14
BRANCH  13  18
ATOM     18  C   LIG A   1       1.173   0.060  -1.010  0.00  0.00    +0.008 C 
BRANCH  18  19
ATOM     19  C   LIG A   1       2.508   0.837  -1.016  0.00  0.00    +0.004 C 
BRANCH  19  20
ATOM     20  C   LIG A   1       3.332   0.652  -2.315  0.00  0.00    -0.012 C 
ATOM     21  C   LIG A   1       3.676  -0.821  -2.562  0.00  0.00    +0.007 C 
BRANCH  20  22
ATOM     22  C   LIG A   1       4.632   1.489  -2.294  0.00  0.00    +0.031 C 
BRANCH  22  23
ATOM     23  C   LIG A   1       4.404   2.994  -2.164  0.00  0.00    +0.156 C 
BRANCH  23  24
ATOM     24  O   LIG A   1       5.659   3.662  -2.166  0.00  0.00    -0.395 OA
ATOM     25  H   LIG A   1       5.486   4.587  -1.919  0.00  0.00    +0.209 HD
ENDBRANCH  23  24
ENDBRANCH  22  23
ENDBRANCH  20  22
ENDBRANCH  19  20
ENDBRANCH  18  19
ENDBRANCH  13  18
TORSDOF 8
