REMARK  Name = NuBBE_542
REMARK  13 active torsions:
REMARK  status: ('A' for Active; 'I' for Inactive)
REMARK    1  A    between atoms: C_1  and  C_2
REMARK    2  A    between atoms: C_2  and  C_42
REMARK    3  A    between atoms: C_5  and  C_39
REMARK    4  A    between atoms: C_8  and  C_38
REMARK    5  A    between atoms: C_9  and  C_37
REMARK    6  A    between atoms: C_14  and  C_15
REMARK    7  A    between atoms: C_14  and  C_36
REMARK    8  A    between atoms: C_15  and  O_16
REMARK    9  A    between atoms: C_17  and  O_35
REMARK   10  A    between atoms: C_19  and  O_34
REMARK   11  A    between atoms: C_22  and  C_33
REMARK   12  A    between atoms: C_30  and  O_32
REMARK   13  A    between atoms: C_39  and  O_40
REMARK                            x       y       z     vdW  Elec       q    Type
REMARK                         _______ _______ _______ _____ _____    ______ ____
ROOT
ATOM      1  C   LIG A   1      -4.700  -1.150   4.948  0.00  0.00    +0.013 C 
ATOM      2  C   LIG A   1      -4.115  -0.041   4.044  0.00  0.00    -0.008 C 
ATOM      3  C   LIG A   1      -5.240   0.453   3.113  0.00  0.00    +0.010 C 
ATOM      4  C   LIG A   1      -4.761   1.443   2.054  0.00  0.00    +0.019 C 
ATOM      5  C   LIG A   1      -3.615   0.891   1.178  0.00  0.00    +0.076 C 
ATOM      6  C   LIG A   1      -3.063   2.056   0.328  0.00  0.00    +0.019 C 
ATOM      7  C   LIG A   1      -1.972   1.597  -0.633  0.00  0.00    +0.012 C 
ATOM      8  C   LIG A   1      -0.800   0.777   0.002  0.00  0.00    -0.005 C 
ATOM      9  C   LIG A   1      -0.129  -0.193  -1.109  0.00  0.00    -0.019 C 
ATOM     10  C   LIG A   1       0.232   0.539  -2.439  0.00  0.00    +0.008 C 
ATOM     11  C   LIG A   1       1.682   0.944  -2.654  0.00  0.00    +0.005 C 
ATOM     12  C   LIG A   1       2.621  -0.240  -2.390  0.00  0.00    +0.006 C 
ATOM     13  C   LIG A   1       4.039  -0.103  -3.063  0.00  0.00    +0.023 C 
ATOM     14  C   LIG A   1       4.879  -1.366  -2.710  0.00  0.00    +0.151 C 
ATOM     15  C   LIG A   1       4.916  -1.677  -1.210  0.00  0.00    +0.144 C 
ATOM     16  C   LIG A   1       3.509  -1.855  -0.641  0.00  0.00    +0.041 C 
ATOM     17  C   LIG A   1       2.574  -0.626  -0.867  0.00  0.00    -0.022 C 
ATOM     18  C   LIG A   1       1.070  -1.061  -0.541  0.00  0.00    +0.006 C 
ATOM     19  C   LIG A   1       0.823  -1.563   0.905  0.00  0.00    +0.031 C 
ATOM     20  C   LIG A   1      -0.431  -1.106   1.591  0.00  0.00    -0.026 C 
ATOM     21  C   LIG A   1      -1.217  -0.071   1.224  0.00  0.00    -0.060 C 
ATOM     22  C   LIG A   1      -2.440   0.372   2.058  0.00  0.00    +0.061 C 
ATOM     23  C   LIG A   1      -2.902  -0.578   3.224  0.00  0.00    +0.128 C 
ATOM     24  C   LIG A   1       3.083   0.491   0.072  0.00  0.00    +0.012 C 
ATOM     25  C   LIG A   1       3.872  -0.116  -4.615  0.00  0.00    +0.016 C 
ATOM     26  C   LIG A   1      -1.224  -1.258  -1.549  0.00  0.00    +0.012 C 
ATOM     27  C   LIG A   1       0.170   1.846   0.555  0.00  0.00    +0.016 C 
ATOM     28  C   LIG A   1      -3.654   1.107   4.969  0.00  0.00    +0.013 C 
ENDROOT
BRANCH  23  29
ATOM     29  O   LIG A   1      -3.165  -1.910   2.783  0.00  0.00    -0.391 OA
ATOM     30  H   LIG A   1      -3.696  -1.885   1.961  0.00  0.00    +0.210 HD
ENDBRANCH  23  29
BRANCH  15  31
ATOM     31  O   LIG A   1       5.642  -2.897  -1.013  0.00  0.00    -0.389 OA
ATOM     32  H   LIG A   1       6.393  -2.844  -1.639  0.00  0.00    +0.210 HD
ENDBRANCH  15  31
BRANCH  14  33
ATOM     33  O   LIG A   1       6.236  -1.310  -3.176  0.00  0.00    -0.389 OA
ATOM     34  H   LIG A   1       6.435  -0.371  -3.387  0.00  0.00    +0.210 HD
ENDBRANCH  14  33
BRANCH   5  35
ATOM     35  C   LIG A   1      -4.221  -0.194   0.281  0.00  0.00    +0.312 C 
ATOM     36  O   LIG A   1      -4.348  -1.375   0.557  0.00  0.00    -0.250 OA
BRANCH  35  37
ATOM     37  O   LIG A   1      -4.739   0.262  -0.876  0.00  0.00    -0.480 OA
ATOM     38  H   LIG A   1      -5.083  -0.542  -1.319  0.00  0.00    +0.295 HD
ENDBRANCH  35  37
ENDBRANCH   5  35
BRANCH  13  39
ATOM     39  C   LIG A   1       4.754   1.221  -2.702  0.00  0.00    +0.165 C 
BRANCH  39  40
ATOM     40  O   LIG A   1       6.022   1.304  -3.355  0.00  0.00    -0.394 OA
ATOM     41  H   LIG A   1       6.359   2.207  -3.205  0.00  0.00    +0.209 HD
ENDBRANCH  39  40
ENDBRANCH  13  39
TORSDOF 7
