REMARK  Name = NuBBE_2188
REMARK  4 active torsions:
REMARK  status: ('A' for Active; 'I' for Inactive)
REMARK    1  A    between atoms: C_5  and  C_6
REMARK    2  A    between atoms: C_16  and  C_17
REMARK    3  A    between atoms: C_23  and  C_24
REMARK    4  A    between atoms: C_23  and  C_25
REMARK                            x       y       z     vdW  Elec       q    Type
REMARK                         _______ _______ _______ _____ _____    ______ ____
ROOT
ATOM      1  O   LIG A   1      -4.734   0.671  -0.560  0.00  0.00    -0.297 OA
ATOM      2  C   LIG A   1      -3.522   0.638  -0.778  0.00  0.00    +0.139 C 
ATOM      3  C   LIG A   1      -2.777   1.921  -1.052  0.00  0.00    +0.076 C 
ATOM      4  C   LIG A   1      -1.267   1.778  -0.916  0.00  0.00    +0.019 C 
ATOM      5  C   LIG A   1      -0.827   0.826   0.223  0.00  0.00    -0.003 C 
ATOM      6  C   LIG A   1      -1.421   1.346   1.575  0.00  0.00    +0.016 C 
ATOM      7  C   LIG A   1      -1.421  -0.625  -0.008  0.00  0.00    +0.016 C 
ATOM      8  C   LIG A   1      -0.432  -1.722  -0.461  0.00  0.00    +0.055 C 
ATOM      9  C   LIG A   1       1.043  -1.578  -0.128  0.00  0.00    +0.207 C 
ATOM     10  O   LIG A   1       1.458  -2.615   0.766  0.00  0.00    -0.456 OA
ATOM     11  C   LIG A   1       1.506  -0.249   0.361  0.00  0.00    +0.000 A 
ATOM     12  C   LIG A   1       0.698   0.889   0.390  0.00  0.00    -0.034 A 
ATOM     13  C   LIG A   1       1.337   2.118   0.653  0.00  0.00    +0.005 A 
ATOM     14  C   LIG A   1       2.711   2.201   0.895  0.00  0.00    +0.004 A 
ATOM     15  C   LIG A   1       3.496   1.050   0.935  0.00  0.00    -0.046 A 
ATOM     16  C   LIG A   1       4.968   1.163   1.211  0.00  0.00    +0.044 C 
ATOM     17  C   LIG A   1       2.876  -0.190   0.705  0.00  0.00    -0.027 A 
ATOM     18  C   LIG A   1       3.645  -1.494   0.776  0.00  0.00    +0.156 C 
ATOM     19  C   LIG A   1       2.802  -2.751   0.936  0.00  0.00    +0.312 C 
ATOM     20  O   LIG A   1       3.300  -3.835   1.215  0.00  0.00    -0.251 OA
ATOM     21  C   LIG A   1      -2.744  -0.675  -0.891  0.00  0.00    +0.027 C 
ATOM     22  C   LIG A   1      -3.639  -1.832  -0.395  0.00  0.00    +0.019 C 
ATOM     23  C   LIG A   1      -2.523  -0.897  -2.407  0.00  0.00    +0.019 C 
ENDROOT
TORSDOF 0
