REMARK  Name = NuBBE_635
REMARK  23 active torsions:
REMARK  status: ('A' for Active; 'I' for Inactive)
REMARK    1  A    between atoms: O_1  and  C_2
REMARK    2  A    between atoms: C_6  and  O_8
REMARK    3  A    between atoms: O_8  and  C_9
REMARK    4  A    between atoms: C_9  and  C_10
REMARK    5  A    between atoms: C_13  and  O_15
REMARK    6  A    between atoms: O_15  and  C_16
REMARK    7  A    between atoms: C_16  and  C_17
REMARK    8  A    between atoms: C_20  and  O_22
REMARK    9  A    between atoms: O_22  and  C_23
REMARK   10  A    between atoms: C_23  and  C_24
REMARK   11  A    between atoms: C_25  and  C_26
REMARK   12  A    between atoms: C_27  and  C_28
REMARK   13  A    between atoms: C_28  and  C_29
REMARK   14  A    between atoms: C_29  and  C_30
REMARK   15  A    between atoms: C_30  and  C_31
REMARK   16  A    between atoms: C_31  and  C_32
REMARK   17  A    between atoms: C_34  and  O_36
REMARK   18  A    between atoms: C_37  and  C_39
REMARK   19  A    between atoms: C_40  and  C_41
REMARK   20  A    between atoms: C_40  and  C_42
REMARK   21  A    between atoms: C_42  and  C_43
REMARK   22  A    between atoms: C_43  and  C_44
REMARK   23  A    between atoms: C_44  and  C_45
REMARK                            x       y       z     vdW  Elec       q    Type
REMARK                         _______ _______ _______ _____ _____    ______ ____
ROOT
ATOM      1  C   LIG A   1      -3.700   1.312  -2.640  0.00  0.00    +0.138 C 
ATOM      2  C   LIG A   1      -2.521   1.887  -3.358  0.00  0.00    +0.010 C 
ATOM      3  C   LIG A   1      -1.244   1.833  -2.904  0.00  0.00    +0.013 C 
ATOM      4  C   LIG A   1      -0.339   3.020  -3.097  0.00  0.00    +0.343 C 
ATOM      5  O   LIG A   1       0.417   3.083  -1.898  0.00  0.00    -0.297 OA
ATOM      6  C   LIG A   1      -0.211   2.261  -0.867  0.00  0.00    +0.328 C 
ATOM      7  C   LIG A   1      -0.741   0.992  -1.708  0.00  0.00    +0.103 C 
ATOM      8  C   LIG A   1       0.531   0.081  -1.708  0.00  0.00    +0.222 C 
ATOM      9  C   LIG A   1       0.678  -0.969  -2.762  0.00  0.00    +0.159 C 
ATOM     10  C   LIG A   1      -0.648  -1.473  -3.298  0.00  0.00    +0.024 C 
ATOM     11  C   LIG A   1      -0.328  -2.814  -3.992  0.00  0.00    +0.011 C 
ATOM     12  C   LIG A   1      -1.889  -1.460  -2.286  0.00  0.00    -0.023 C 
ATOM     13  C   LIG A   1      -3.114  -1.602  -3.231  0.00  0.00    +0.012 C 
ATOM     14  C   LIG A   1      -1.924  -0.008  -1.384  0.00  0.00    +0.018 C 
ATOM     15  C   LIG A   1      -3.287   0.688  -1.325  0.00  0.00    +0.040 C 
ENDROOT
BRANCH   1  16
ATOM     16  O   LIG A   1      -4.585   2.385  -2.332  0.00  0.00    -0.388 OA
ATOM     17  H   LIG A   1      -5.122   2.549  -3.124  0.00  0.00    +0.210 HD
ENDBRANCH   1  16
BRANCH   9  18
ATOM     18  O   LIG A   1       1.423  -0.423  -3.870  0.00  0.00    -0.388 OA
ATOM     19  H   LIG A   1       2.305  -0.164  -3.546  0.00  0.00    +0.210 HD
ENDBRANCH   9  18
BRANCH   8  20
ATOM     20  O   LIG A   1       0.818  -0.586  -0.392  0.00  0.00    -0.455 OA
BRANCH  20  21
ATOM     21  C   LIG A   1       0.123  -1.261   0.538  0.00  0.00    +0.332 C 
ATOM     22  O   LIG A   1      -1.014  -1.645   0.622  0.00  0.00    -0.246 OA
BRANCH  21  23
ATOM     23  C   LIG A   1       0.923  -1.480   1.735  0.00  0.00    +0.091 C 
ATOM     24  C   LIG A   1       2.039  -0.789   1.882  0.00  0.00    +0.007 C 
BRANCH  24  25
ATOM     25  C   LIG A   1       2.798  -0.726   3.048  0.00  0.00    -0.004 C 
ATOM     26  C   LIG A   1       3.280  -1.795   3.659  0.00  0.00    -0.027 C 
BRANCH  26  27
ATOM     27  C   LIG A   1       4.313  -1.704   4.734  0.00  0.00    +0.027 C 
BRANCH  27  28
ATOM     28  C   LIG A   1       4.741  -0.277   5.113  0.00  0.00    +0.004 C 
BRANCH  28  29
ATOM     29  C   LIG A   1       3.631   0.572   5.768  0.00  0.00    +0.000 C 
BRANCH  29  30
ATOM     30  C   LIG A   1       4.079   1.987   6.131  0.00  0.00    -0.003 C 
ATOM     31  C   LIG A   1       4.539   2.849   4.959  0.00  0.00    +0.004 C 
ENDBRANCH  29  30
ENDBRANCH  28  29
ENDBRANCH  27  28
ENDBRANCH  26  27
ENDBRANCH  24  25
ENDBRANCH  21  23
ENDBRANCH  20  21
ENDBRANCH   8  20
BRANCH  12  32
ATOM     32  C   LIG A   1      -1.969  -2.828  -1.443  0.00  0.00    +0.012 C 
BRANCH  32  33
ATOM     33  C   LIG A   1      -3.138  -2.971  -0.407  0.00  0.00    +0.035 C 
BRANCH  33  34
ATOM     34  C   LIG A   1      -3.255  -4.284   0.383  0.00  0.00    -0.055 C 
ATOM     35  C   LIG A   1      -4.451  -4.720   0.828  0.00  0.00    +0.012 C 
BRANCH  34  36
ATOM     36  C   LIG A   1      -2.055  -5.009   0.779  0.00  0.00    -0.005 C 
ATOM     37  C   LIG A   1      -1.986  -6.344   0.899  0.00  0.00    +0.008 C 
ENDBRANCH  34  36
ENDBRANCH  33  34
ENDBRANCH  32  33
ENDBRANCH  12  32
BRANCH   6  38
ATOM     38  O   LIG A   1       0.886   1.951   0.048  0.00  0.00    -0.434 OA
BRANCH  38  39
ATOM     39  C   LIG A   1       1.530   2.969   0.682  0.00  0.00    +0.306 C 
ATOM     40  C   LIG A   1       3.009   2.659   0.870  0.00  0.00    +0.136 C 
ATOM     41  O   LIG A   1       1.017   4.003   1.071  0.00  0.00    -0.251 OA
ENDBRANCH  38  39
ENDBRANCH   6  38
BRANCH   4  42
ATOM     42  O   LIG A   1      -1.107   4.206  -3.427  0.00  0.00    -0.431 OA
BRANCH  42  43
ATOM     43  C   LIG A   1      -1.121   5.291  -2.616  0.00  0.00    +0.306 C 
ATOM     44  C   LIG A   1      -1.984   6.380  -3.183  0.00  0.00    +0.136 C 
ATOM     45  O   LIG A   1      -0.545   5.421  -1.546  0.00  0.00    -0.251 OA
ENDBRANCH  42  43
ENDBRANCH   4  42
TORSDOF 18
