REMARK  Name = NuBBE_1021
REMARK  11 active torsions:
REMARK  status: ('A' for Active; 'I' for Inactive)
REMARK    1  A    between atoms: C_1  and  C_2
REMARK    2  A    between atoms: C_2  and  C_3
REMARK    3  A    between atoms: C_7  and  O_8
REMARK    4  A    between atoms: O_8  and  C_9
REMARK    5  A    between atoms: C_10  and  C_11
REMARK    6  A    between atoms: C_11  and  C_12
REMARK    7  A    between atoms: C_12  and  C_13
REMARK    8  A    between atoms: C_13  and  O_14
REMARK    9  A    between atoms: O_14  and  C_15
REMARK   10  A    between atoms: C_19  and  O_20
REMARK   11  A    between atoms: O_20  and  C_21
REMARK                            x       y       z     vdW  Elec       q    Type
REMARK                         _______ _______ _______ _____ _____    ______ ____
ROOT
ATOM      1  C   LIG A   1      -4.079   0.678  -3.172  0.00  0.00    +0.060 C 
ATOM      2  C   LIG A   1      -2.557   0.851  -3.096  0.00  0.00    +0.124 C 
ATOM      3  C   LIG A   1      -1.971   0.865  -4.512  0.00  0.00    +0.060 C 
ATOM      4  O   LIG A   1      -2.039  -0.332  -2.465  0.00  0.00    -0.478 OA
ATOM      5  C   LIG A   1      -1.268  -0.226  -1.336  0.00  0.00    +0.174 A 
ATOM      6  C   LIG A   1      -0.997   0.994  -0.702  0.00  0.00    +0.062 A 
ATOM      7  C   LIG A   1      -0.244   0.994   0.487  0.00  0.00    +0.134 A 
ATOM      8  C   LIG A   1       0.208  -0.209   1.056  0.00  0.00    -0.001 A 
ATOM      9  C   LIG A   1      -0.028  -1.413   0.374  0.00  0.00    +0.056 A 
ATOM     10  C   LIG A   1      -0.779  -1.433  -0.804  0.00  0.00    +0.163 A 
ATOM     11  C   LIG A   1      -1.524   2.227  -1.277  0.00  0.00    +0.015 C 
ATOM     12  C   LIG A   1      -2.244   2.152  -2.400  0.00  0.00    +0.020 C 
ENDROOT
BRANCH   7  13
ATOM     13  O   LIG A   1      -0.044   2.172   1.166  0.00  0.00    -0.494 OA
ATOM     14  C   LIG A   1       1.222   2.759   0.860  0.00  0.00    +0.277 C 
ENDBRANCH   7  13
BRANCH  10  15
ATOM     15  O   LIG A   1      -1.069  -2.578  -1.504  0.00  0.00    -0.491 OA
ATOM     16  C   LIG A   1      -1.060  -3.790  -0.759  0.00  0.00    +0.277 C 
ENDBRANCH  10  15
BRANCH   8  17
ATOM     17  C   LIG A   1       0.923  -0.251   2.384  0.00  0.00    +0.050 C 
BRANCH  17  18
ATOM     18  C   LIG A   1       2.420  -0.099   2.217  0.00  0.00    +0.125 C 
BRANCH  18  19
ATOM     19  C   LIG A   1       3.119  -0.168   3.547  0.00  0.00    +0.307 C 
ATOM     20  O   LIG A   1       3.400   0.784   4.248  0.00  0.00    -0.251 OA
BRANCH  19  21
ATOM     21  O   LIG A   1       3.478  -1.468   3.771  0.00  0.00    -0.468 OA
ATOM     22  C   LIG A   1       4.617  -1.600   4.611  0.00  0.00    +0.280 C 
ENDBRANCH  19  21
ENDBRANCH  18  19
ENDBRANCH  17  18
ENDBRANCH   8  17
TORSDOF 6
