REMARK  Name = NuBBE_638
REMARK  25 active torsions:
REMARK  status: ('A' for Active; 'I' for Inactive)
REMARK    1  A    between atoms: O_1  and  C_2
REMARK    2  A    between atoms: C_6  and  O_8
REMARK    3  A    between atoms: O_8  and  C_9
REMARK    4  A    between atoms: C_9  and  C_10
REMARK    5  A    between atoms: C_13  and  O_15
REMARK    6  A    between atoms: O_15  and  C_16
REMARK    7  A    between atoms: C_16  and  C_17
REMARK    8  A    between atoms: C_20  and  O_22
REMARK    9  A    between atoms: O_22  and  C_23
REMARK   10  A    between atoms: C_23  and  C_24
REMARK   11  A    between atoms: C_26  and  O_28
REMARK   12  A    between atoms: O_28  and  C_29
REMARK   13  A    between atoms: C_29  and  C_30
REMARK   14  A    between atoms: C_31  and  C_32
REMARK   15  A    between atoms: C_33  and  C_34
REMARK   16  A    between atoms: C_34  and  C_35
REMARK   17  A    between atoms: C_35  and  C_36
REMARK   18  A    between atoms: C_36  and  C_37
REMARK   19  A    between atoms: C_37  and  C_38
REMARK   20  A    between atoms: C_40  and  C_42
REMARK   21  A    between atoms: C_43  and  C_44
REMARK   22  A    between atoms: C_43  and  C_45
REMARK   23  A    between atoms: C_45  and  C_46
REMARK   24  A    between atoms: C_46  and  C_47
REMARK   25  A    between atoms: C_47  and  C_48
REMARK                            x       y       z     vdW  Elec       q    Type
REMARK                         _______ _______ _______ _____ _____    ______ ____
ROOT
ATOM      1  C   LIG A   1      -3.363  -1.243  -1.160  0.00  0.00    +0.138 C 
ATOM      2  C   LIG A   1      -2.535  -1.856  -0.087  0.00  0.00    +0.010 C 
ATOM      3  C   LIG A   1      -1.254  -2.201  -0.335  0.00  0.00    +0.013 C 
ATOM      4  C   LIG A   1      -0.511  -3.301   0.347  0.00  0.00    +0.343 C 
ATOM      5  O   LIG A   1       0.698  -3.450  -0.355  0.00  0.00    -0.297 OA
ATOM      6  C   LIG A   1       0.528  -2.928  -1.695  0.00  0.00    +0.328 C 
ATOM      7  C   LIG A   1      -0.316  -1.577  -1.430  0.00  0.00    +0.104 C 
ATOM      8  C   LIG A   1       0.226  -0.388  -0.538  0.00  0.00    +0.234 C 
ATOM      9  C   LIG A   1      -0.070   1.072  -1.044  0.00  0.00    +0.222 C 
ATOM     10  C   LIG A   1      -1.243   1.241  -2.018  0.00  0.00    +0.037 C 
ATOM     11  C   LIG A   1      -1.560   2.709  -2.309  0.00  0.00    +0.012 C 
ATOM     12  C   LIG A   1      -1.147   0.319  -3.245  0.00  0.00    -0.022 C 
ATOM     13  C   LIG A   1      -2.380   0.558  -4.194  0.00  0.00    +0.012 C 
ATOM     14  C   LIG A   1      -1.210  -1.174  -2.705  0.00  0.00    +0.018 C 
ATOM     15  C   LIG A   1      -2.712  -1.645  -2.497  0.00  0.00    +0.040 C 
ENDROOT
BRANCH   1  16
ATOM     16  O   LIG A   1      -4.656  -1.841  -1.077  0.00  0.00    -0.388 OA
ATOM     17  H   LIG A   1      -5.109  -1.402  -0.333  0.00  0.00    +0.210 HD
ENDBRANCH   1  16
BRANCH   9  18
ATOM     18  O   LIG A   1      -0.197   1.989   0.060  0.00  0.00    -0.454 OA
BRANCH  18  19
ATOM     19  C   LIG A   1      -1.203   1.840   0.955  0.00  0.00    +0.332 C 
ATOM     20  O   LIG A   1      -2.254   1.254   0.801  0.00  0.00    -0.246 OA
BRANCH  19  21
ATOM     21  C   LIG A   1      -0.767   2.392   2.223  0.00  0.00    +0.091 C 
ATOM     22  C   LIG A   1       0.540   2.584   2.434  0.00  0.00    +0.007 C 
BRANCH  22  23
ATOM     23  C   LIG A   1       1.041   3.038   3.677  0.00  0.00    -0.004 C 
ATOM     24  C   LIG A   1       0.691   4.205   4.226  0.00  0.00    -0.027 C 
BRANCH  24  25
ATOM     25  C   LIG A   1       1.214   4.588   5.571  0.00  0.00    +0.027 C 
BRANCH  25  26
ATOM     26  C   LIG A   1       1.298   3.397   6.542  0.00  0.00    +0.004 C 
BRANCH  26  27
ATOM     27  C   LIG A   1       0.016   2.552   6.711  0.00  0.00    +0.000 C 
BRANCH  27  28
ATOM     28  C   LIG A   1      -1.164   3.284   7.356  0.00  0.00    -0.003 C 
ATOM     29  C   LIG A   1      -1.754   4.431   6.549  0.00  0.00    +0.004 C 
ENDBRANCH  27  28
ENDBRANCH  26  27
ENDBRANCH  25  26
ENDBRANCH  24  25
ENDBRANCH  22  23
ENDBRANCH  19  21
ENDBRANCH  18  19
ENDBRANCH   9  18
BRANCH   8  30
ATOM     30  O   LIG A   1       1.367  -0.569   0.389  0.00  0.00    -0.457 OA
BRANCH  30  31
ATOM     31  C   LIG A   1       2.422  -1.452   0.224  0.00  0.00    +0.304 C 
ATOM     32  C   LIG A   1       3.240  -1.640   1.450  0.00  0.00    +0.136 C 
ATOM     33  O   LIG A   1       2.787  -2.034  -0.697  0.00  0.00    -0.251 OA
ENDBRANCH  30  31
ENDBRANCH   8  30
BRANCH  12  34
ATOM     34  C   LIG A   1       0.042   0.673  -4.204  0.00  0.00    +0.012 C 
BRANCH  34  35
ATOM     35  C   LIG A   1       1.481   0.878  -3.765  0.00  0.00    +0.035 C 
BRANCH  35  36
ATOM     36  C   LIG A   1       2.230  -0.298  -3.393  0.00  0.00    -0.055 C 
ATOM     37  C   LIG A   1       2.075  -1.308  -4.214  0.00  0.00    +0.012 C 
BRANCH  36  38
ATOM     38  C   LIG A   1       3.319  -0.227  -2.414  0.00  0.00    -0.005 C 
ATOM     39  C   LIG A   1       3.410   0.512  -1.303  0.00  0.00    +0.008 C 
ENDBRANCH  36  38
ENDBRANCH  35  36
ENDBRANCH  34  35
ENDBRANCH  12  34
BRANCH   6  40
ATOM     40  O   LIG A   1       1.835  -3.083  -2.338  0.00  0.00    -0.434 OA
BRANCH  40  41
ATOM     41  C   LIG A   1       2.398  -3.849  -3.326  0.00  0.00    +0.306 C 
ATOM     42  C   LIG A   1       3.964  -3.517  -3.454  0.00  0.00    +0.136 C 
ATOM     43  O   LIG A   1       1.776  -4.464  -4.188  0.00  0.00    -0.251 OA
ENDBRANCH  40  41
ENDBRANCH   6  40
BRANCH   4  44
ATOM     44  O   LIG A   1      -1.289  -4.495   0.313  0.00  0.00    -0.431 OA
BRANCH  44  45
ATOM     45  C   LIG A   1      -1.450  -5.063  -0.918  0.00  0.00    +0.306 C 
ATOM     46  C   LIG A   1      -2.900  -5.123  -1.251  0.00  0.00    +0.136 C 
ATOM     47  O   LIG A   1      -0.579  -5.452  -1.673  0.00  0.00    -0.251 OA
ENDBRANCH  44  45
ENDBRANCH   4  44
TORSDOF 19
