@<TRIPOS>MOLECULE
NuBBE_1639
 74 75 0 0 0
SMALL
GASTEIGER

@<TRIPOS>ATOM
      1 C           0.4844    3.3887   -2.6251 C.3     1  LIG1       -0.0361
      2 C          -0.5577    2.3502   -2.9331 C.ar    1  LIG1       -0.0050
      3 C          -0.2262    0.9909   -3.0388 C.ar    1  LIG1        0.1276
      4 C          -1.1902    0.0477   -3.3998 C.ar    1  LIG1       -0.0018
      5 C          -2.5197    0.4680   -3.5846 C.ar    1  LIG1       -0.0126
      6 C          -2.8596    1.8175   -3.4407 C.ar    1  LIG1        0.1324
      7 C          -1.8794    2.7558   -3.1428 C.ar    1  LIG1       -0.0128
      8 O          -4.2368    2.1323   -3.5593 O.3     1  LIG1       -0.4260
      9 C          -4.7689    3.4255   -3.4930 C.2     1  LIG1        0.3092
     10 O          -4.1572    4.4830   -3.4434 O.2     1  LIG1       -0.2507
     11 C          -6.2636    3.3464   -3.5184 C.3     1  LIG1        0.0336
     12 C          -0.8282   -1.3989   -3.5521 C.3     1  LIG1       -0.0205
     13 C           0.6797   -1.6094   -3.6052 C.3     1  LIG1       -0.0091
     14 C           1.4570   -0.6994   -2.6398 C.3     1  LIG1        0.1085
     15 O           1.0720    0.6803   -2.7702 O.3     1  LIG1       -0.4854
     16 C           1.3420   -1.1051   -1.1393 C.3     1  LIG1       -0.0097
     17 C           1.9251   -2.4861   -0.7962 C.3     1  LIG1       -0.0309
     18 C           1.8866   -2.7989    0.6857 C.2     1  LIG1       -0.0849
     19 C           2.9430   -3.0850    1.4823 C.2     1  LIG1       -0.0762
     20 C           2.7742   -3.4243    2.9603 C.3     1  LIG1       -0.0286
     21 C           2.9499   -2.2701    3.9727 C.3     1  LIG1       -0.0303
     22 C           1.9178   -1.1697    3.8300 C.2     1  LIG1       -0.0738
     23 C           1.9450    0.1567    4.1030 C.2     1  LIG1        0.0328
     24 C           0.7209    1.0248    3.8567 C.3     1  LIG1       -0.0178
     25 C          -0.5067    0.3038    3.2785 C.3     1  LIG1       -0.0303
     26 C          -1.6806    1.2015    3.0676 C.2     1  LIG1       -0.0850
     27 C          -2.8744    0.8265    2.5616 C.2     1  LIG1       -0.0796
     28 C          -3.2331   -0.5777    2.1526 C.3     1  LIG1       -0.0440
     29 C          -3.9606    1.8450    2.3616 C.3     1  LIG1       -0.0440
     30 C           3.0975    0.9202    4.6572 C.2     1  LIG1        0.3325
     31 O           3.0433    2.0287    5.1703 O.2     1  LIG1       -0.2455
     32 O           4.2749    0.2873    4.5188 O.3     1  LIG1       -0.4773
     33 C           4.3513   -3.2139    0.9677 C.3     1  LIG1       -0.0438
     34 C           2.9319   -0.6724   -3.0846 C.3     1  LIG1       -0.0249
     35 H           1.0687    3.6118   -3.5234 H       1  LIG1        0.0279
     36 H           1.1533    3.0470   -1.8296 H       1  LIG1        0.0279
     37 H           0.0228    4.3184   -2.2754 H       1  LIG1        0.0279
     38 H          -3.2920   -0.2577   -3.8281 H       1  LIG1        0.0658
     39 H          -2.1078    3.8097   -3.0410 H       1  LIG1        0.0658
     40 H          -6.6168    2.6425   -2.7612 H       1  LIG1        0.0342
     41 H          -6.6003    3.0550   -4.5148 H       1  LIG1        0.0342
     42 H          -6.6712    4.3336   -3.2774 H       1  LIG1        0.0342
     43 H          -1.2586   -1.7875   -4.4848 H       1  LIG1        0.0316
     44 H          -1.2647   -1.9675   -2.7242 H       1  LIG1        0.0316
     45 H           1.0054   -1.3923   -4.6318 H       1  LIG1        0.0307
     46 H           0.9116   -2.6671   -3.4364 H       1  LIG1        0.0307
     47 H           0.2932   -1.0560   -0.8187 H       1  LIG1        0.0306
     48 H           1.8548   -0.3430   -0.5340 H       1  LIG1        0.0306
     49 H           2.9471   -2.5283   -1.1711 H       1  LIG1        0.0309
     50 H           1.3786   -3.2735   -1.3255 H       1  LIG1        0.0309
     51 H           0.8858   -2.8238    1.1173 H       1  LIG1        0.0572
     52 H           3.5087   -4.1977    3.2269 H       1  LIG1        0.0313
     53 H           1.7952   -3.8949    3.1246 H       1  LIG1        0.0313
     54 H           3.9742   -1.9053    3.9481 H       1  LIG1        0.0311
     55 H           2.7957   -2.6958    4.9737 H       1  LIG1        0.0311
     56 H           0.9914   -1.6144    3.4781 H       1  LIG1        0.0577
     57 H           1.0056    1.8418    3.1726 H       1  LIG1        0.0318
     58 H           0.4396    1.5006    4.8080 H       1  LIG1        0.0318
     59 H          -0.8075   -0.4969    3.9661 H       1  LIG1        0.0311
     60 H          -0.2353   -0.1404    2.3114 H       1  LIG1        0.0311
     61 H          -1.5347    2.2502    3.3286 H       1  LIG1        0.0572
     62 H          -2.5698   -1.3321    2.5861 H       1  LIG1        0.0274
     63 H          -3.1977   -0.6754    1.0626 H       1  LIG1        0.0274
     64 H          -4.2489   -0.8241    2.4826 H       1  LIG1        0.0274
     65 H          -3.6699    2.8312    2.7391 H       1  LIG1        0.0274
     66 H          -4.8681    1.5437    2.8937 H       1  LIG1        0.0274
     67 H          -4.1889    1.9460    1.2965 H       1  LIG1        0.0274
     68 H           4.9425    0.8714    4.9170 H       1  LIG1        0.2954
     69 H           4.5151   -2.7275    0.0047 H       1  LIG1        0.0274
     70 H           4.5930   -4.2758    0.8435 H       1  LIG1        0.0274
     71 H           5.0679   -2.7686    1.6618 H       1  LIG1        0.0274
     72 H           3.0227   -0.1858   -4.0648 H       1  LIG1        0.0268
     73 H           3.3690   -1.6706   -3.1648 H       1  LIG1        0.0268
     74 H           3.5366   -0.0704   -2.3961 H       1  LIG1        0.0268
@<TRIPOS>BOND
     1     1     2    1
     2     2     3   ar
     3     3     4   ar
     4     4     5   ar
     5     5     6   ar
     6     6     7   ar
     7     2     7   ar
     8     6     8    1
     9     8     9    1
    10     9    10    2
    11     9    11    1
    12     4    12    1
    13    12    13    1
    14    13    14    1
    15    14    15    1
    16     3    15    1
    17    14    16    1
    18    16    17    1
    19    17    18    1
    20    18    19    2
    21    19    20    1
    22    20    21    1
    23    21    22    1
    24    22    23    2
    25    23    24    1
    26    24    25    1
    27    25    26    1
    28    26    27    2
    29    27    28    1
    30    27    29    1
    31    23    30    1
    32    30    31    2
    33    30    32    1
    34    19    33    1
    35    14    34    1
    36     1    35    1
    37     1    36    1
    38     1    37    1
    39     5    38    1
    40     7    39    1
    41    11    40    1
    42    11    41    1
    43    11    42    1
    44    12    43    1
    45    12    44    1
    46    13    45    1
    47    13    46    1
    48    16    47    1
    49    16    48    1
    50    17    49    1
    51    17    50    1
    52    18    51    1
    53    20    52    1
    54    20    53    1
    55    21    54    1
    56    21    55    1
    57    22    56    1
    58    24    57    1
    59    24    58    1
    60    25    59    1
    61    25    60    1
    62    26    61    1
    63    28    62    1
    64    28    63    1
    65    28    64    1
    66    29    65    1
    67    29    66    1
    68    29    67    1
    69    32    68    1
    70    33    69    1
    71    33    70    1
    72    33    71    1
    73    34    72    1
    74    34    73    1
    75    34    74    1
