REMARK  Name = NuBBE_1570
REMARK  2 active torsions:
REMARK  status: ('A' for Active; 'I' for Inactive)
REMARK    1  A    between atoms: C_6  and  C_7
REMARK    2  A    between atoms: C_6  and  C_8
REMARK                            x       y       z     vdW  Elec       q    Type
REMARK                         _______ _______ _______ _____ _____    ______ ____
ROOT
ATOM      1  O   LIG A   1      -3.326   1.470   0.122  0.00  0.00    -0.267 OA
ATOM      2  C   LIG A   1      -2.104   1.366   0.109  0.00  0.00    +0.260 A 
ATOM      3  C   LIG A   1      -1.429   0.046   0.047  0.00  0.00    +0.081 A 
ATOM      4  C   LIG A   1      -0.094  -0.009   0.034  0.00  0.00    +0.143 A 
ATOM      5  O   LIG A   1       0.616  -1.173   0.040  0.00  0.00    -0.481 OA
ATOM      6  C   LIG A   1      -0.157  -2.393   0.027  0.00  0.00    +0.123 C 
ATOM      7  C   LIG A   1       0.053  -2.904   1.462  0.00  0.00    +0.060 C 
ATOM      8  C   LIG A   1       0.052  -2.855  -1.411  0.00  0.00    +0.060 C 
ATOM      9  C   LIG A   1      -1.659  -2.337   0.013  0.00  0.00    +0.020 C 
ATOM     10  C   LIG A   1      -2.220  -1.157   0.045  0.00  0.00    +0.016 C 
ATOM     11  C   LIG A   1       0.752   1.194   0.003  0.00  0.00    +0.041 A 
ATOM     12  C   LIG A   1       0.092   2.425   0.062  0.00  0.00    +0.053 A 
ATOM     13  C   LIG A   1       0.807   3.614   0.021  0.00  0.00    +0.026 A 
ATOM     14  C   LIG A   1       2.191   3.586  -0.138  0.00  0.00    +0.002 A 
ATOM     15  C   LIG A   1       2.866   2.369  -0.209  0.00  0.00    +0.001 A 
ATOM     16  C   LIG A   1       2.143   1.180  -0.120  0.00  0.00    +0.013 A 
ATOM     17  N   LIG A   1      -1.302   2.467   0.142  0.00  0.00    -0.321 N 
ATOM     18  H   LIG A   1      -1.791   3.347   0.166  0.00  0.00    +0.169 HD
ENDROOT
TORSDOF 0
