@<TRIPOS>MOLECULE
NuBBE_1350
 42 43 0 0 0
SMALL
GASTEIGER

@<TRIPOS>ATOM
      1 C          -2.7351   -2.0597    1.1366 C.3     1  LIG1       -0.0587
      2 C          -1.2337   -1.9979    1.4031 C.3     1  LIG1       -0.0222
      3 H          -1.0566   -1.6728    2.4349 H       1  LIG1        0.0343
      4 C          -0.5497   -3.3491    1.1692 C.3     1  LIG1       -0.0430
      5 C           0.0205   -3.2882   -0.2441 C.3     1  LIG1       -0.0307
      6 C           0.1667   -1.8130   -0.4854 C.2     1  LIG1       -0.0672
      7 C          -0.5171   -1.1000    0.4230 C.2     1  LIG1       -0.0668
      8 C          -0.6978    0.3850    0.5059 C.3     1  LIG1       -0.0258
      9 C           0.5995    1.2241    0.4139 C.3     1  LIG1       -0.0089
     10 H           1.3238    0.7700    1.1063 H       1  LIG1        0.0331
     11 C           0.3603    2.6886    0.9230 C.3     1  LIG1        0.0636
     12 C           1.6642    3.4939    1.0258 C.3     1  LIG1       -0.0361
     13 C          -0.6536    3.4689    0.0806 C.3     1  LIG1       -0.0361
     14 O          -0.1732    2.6315    2.2557 O.3     1  LIG1       -0.3888
     15 C           1.2000    1.1855   -1.0077 C.3     1  LIG1       -0.0468
     16 C           1.8637   -0.1420   -1.3813 C.3     1  LIG1       -0.0464
     17 C           0.9403   -1.3325   -1.6760 C.3     1  LIG1       -0.0225
     18 H           1.6110   -2.1493   -1.9786 H       1  LIG1        0.0343
     19 C           0.0056   -1.0739   -2.8606 C.3     1  LIG1       -0.0587
     20 H          -3.2175   -2.7645    1.8222 H       1  LIG1        0.0235
     21 H          -2.9541   -2.3837    0.1129 H       1  LIG1        0.0235
     22 H          -3.2006   -1.0794    1.2842 H       1  LIG1        0.0235
     23 H          -1.2184   -4.2056    1.3057 H       1  LIG1        0.0274
     24 H           0.2743   -3.4685    1.8859 H       1  LIG1        0.0274
     25 H          -0.6689   -3.7270   -0.9734 H       1  LIG1        0.0310
     26 H           0.9781   -3.8153   -0.2962 H       1  LIG1        0.0310
     27 H          -1.1925    0.5984    1.4608 H       1  LIG1        0.0314
     28 H          -1.4092    0.6900   -0.2715 H       1  LIG1        0.0314
     29 H           2.0727    3.7606    0.0471 H       1  LIG1        0.0257
     30 H           2.4250    2.9339    1.5812 H       1  LIG1        0.0257
     31 H           1.5009    4.4242    1.5831 H       1  LIG1        0.0257
     32 H          -0.3232    3.5873   -0.9556 H       1  LIG1        0.0257
     33 H          -0.8143    4.4692    0.5006 H       1  LIG1        0.0257
     34 H          -1.6354    2.9844    0.0835 H       1  LIG1        0.0257
     35 H           0.4661    2.1526    2.8114 H       1  LIG1        0.2101
     36 H           1.9874    1.9417   -1.0892 H       1  LIG1        0.0269
     37 H           0.4456    1.4599   -1.7529 H       1  LIG1        0.0269
     38 H           2.5757   -0.4209   -0.5929 H       1  LIG1        0.0271
     39 H           2.4728    0.0358   -2.2783 H       1  LIG1        0.0271
     40 H           0.5719   -0.7362   -3.7352 H       1  LIG1        0.0235
     41 H          -0.7508   -0.3155   -2.6333 H       1  LIG1        0.0235
     42 H          -0.5244   -1.9903   -3.1443 H       1  LIG1        0.0235
@<TRIPOS>BOND
     1     1     2    1
     2     2     3    1
     3     2     4    1
     4     4     5    1
     5     5     6    1
     6     6     7    2
     7     2     7    1
     8     7     8    1
     9     8     9    1
    10     9    10    1
    11     9    11    1
    12    11    12    1
    13    11    13    1
    14    11    14    1
    15     9    15    1
    16    15    16    1
    17    16    17    1
    18    17    18    1
    19     6    17    1
    20    17    19    1
    21     1    20    1
    22     1    21    1
    23     1    22    1
    24     4    23    1
    25     4    24    1
    26     5    25    1
    27     5    26    1
    28     8    27    1
    29     8    28    1
    30    12    29    1
    31    12    30    1
    32    12    31    1
    33    13    32    1
    34    13    33    1
    35    13    34    1
    36    14    35    1
    37    15    36    1
    38    15    37    1
    39    16    38    1
    40    16    39    1
    41    19    40    1
    42    19    41    1
    43    19    42    1
