REMARK  Name = NuBBE_1162
REMARK  17 active torsions:
REMARK  status: ('A' for Active; 'I' for Inactive)
REMARK    1  A    between atoms: O_1  and  C_2
REMARK    2  A    between atoms: C_2  and  C_3
REMARK    3  A    between atoms: C_3  and  C_5
REMARK    4  A    between atoms: C_3  and  C_20
REMARK    5  A    between atoms: C_5  and  C_7
REMARK    6  A    between atoms: C_5  and  C_9
REMARK    7  A    between atoms: C_7  and  O_8
REMARK    8  A    between atoms: C_9  and  C_10
REMARK    9  A    between atoms: C_13  and  O_14
REMARK   10  A    between atoms: O_14  and  C_15
REMARK   11  A    between atoms: C_16  and  O_17
REMARK   12  A    between atoms: O_17  and  C_18
REMARK   13  A    between atoms: C_20  and  C_21
REMARK   14  A    between atoms: C_23  and  O_24
REMARK   15  A    between atoms: O_24  and  C_25
REMARK   16  A    between atoms: C_26  and  O_27
REMARK   17  A    between atoms: O_27  and  C_28
REMARK                            x       y       z     vdW  Elec       q    Type
REMARK                         _______ _______ _______ _____ _____    ______ ____
ROOT
ATOM      1  C   LIG A   1      -0.606   1.273   0.458  0.00  0.00    +0.024 C 
ENDROOT
BRANCH   1   2
ATOM      2  C   LIG A   1      -1.247   1.632  -0.901  0.00  0.00    +0.160 C 
BRANCH   2   3
ATOM      3  O   LIG A   1      -1.549   3.009  -1.049  0.00  0.00    -0.395 OA
ATOM      4  H   LIG A   1      -2.383   3.155  -0.551  0.00  0.00    +0.209 HD
ENDBRANCH   2   3
ENDBRANCH   1   2
BRANCH   1   5
ATOM      5  C   LIG A   1      -1.545   1.458   1.710  0.00  0.00    +0.024 C 
BRANCH   5   6
ATOM      6  C   LIG A   1      -1.877   2.917   2.083  0.00  0.00    +0.160 C 
BRANCH   6   7
ATOM      7  O   LIG A   1      -2.717   3.541   1.120  0.00  0.00    -0.395 OA
ATOM      8  H   LIG A   1      -2.518   4.496   1.163  0.00  0.00    +0.209 HD
ENDBRANCH   6   7
ENDBRANCH   5   6
BRANCH   5   9
ATOM      9  C   LIG A   1      -2.860   0.643   1.588  0.00  0.00    +0.041 C 
BRANCH   9  10
ATOM     10  C   LIG A   1      -2.667  -0.847   1.495  0.00  0.00    -0.043 A 
ATOM     11  C   LIG A   1      -3.095  -1.529   0.343  0.00  0.00    +0.007 A 
ATOM     12  C   LIG A   1      -2.947  -2.901   0.262  0.00  0.00    +0.050 A 
ATOM     13  C   LIG A   1      -2.382  -3.643   1.298  0.00  0.00    +0.162 A 
ATOM     14  C   LIG A   1      -1.919  -2.969   2.456  0.00  0.00    +0.162 A 
ATOM     15  C   LIG A   1      -2.097  -1.587   2.538  0.00  0.00    +0.053 A 
BRANCH  13  16
ATOM     16  O   LIG A   1      -2.252  -5.013   1.258  0.00  0.00    -0.491 OA
ATOM     17  C   LIG A   1      -2.755  -5.657   0.084  0.00  0.00    +0.277 C 
ENDBRANCH  13  16
BRANCH  14  18
ATOM     18  O   LIG A   1      -1.388  -3.737   3.449  0.00  0.00    -0.491 OA
ATOM     19  C   LIG A   1      -0.406  -3.145   4.307  0.00  0.00    +0.277 C 
ENDBRANCH  14  18
ENDBRANCH   9  10
ENDBRANCH   5   9
ENDBRANCH   1   5
BRANCH   1  20
ATOM     20  C   LIG A   1       0.774   1.951   0.688  0.00  0.00    +0.041 C 
BRANCH  20  21
ATOM     21  C   LIG A   1       1.757   1.792  -0.455  0.00  0.00    -0.043 A 
ATOM     22  C   LIG A   1       2.632   0.699  -0.544  0.00  0.00    +0.053 A 
ATOM     23  C   LIG A   1       3.464   0.527  -1.672  0.00  0.00    +0.162 A 
ATOM     24  C   LIG A   1       3.434   1.479  -2.703  0.00  0.00    +0.162 A 
ATOM     25  C   LIG A   1       2.577   2.577  -2.603  0.00  0.00    +0.050 A 
ATOM     26  C   LIG A   1       1.757   2.736  -1.486  0.00  0.00    +0.007 A 
BRANCH  23  27
ATOM     27  O   LIG A   1       4.299  -0.563  -1.588  0.00  0.00    -0.491 OA
ATOM     28  C   LIG A   1       4.681  -1.203  -2.802  0.00  0.00    +0.277 C 
ENDBRANCH  23  27
BRANCH  24  29
ATOM     29  O   LIG A   1       4.204   1.277  -3.814  0.00  0.00    -0.491 OA
ATOM     30  C   LIG A   1       4.689   2.416  -4.503  0.00  0.00    +0.277 C 
ENDBRANCH  24  29
ENDBRANCH  20  21
ENDBRANCH   1  20
TORSDOF 13
