@<TRIPOS>MOLECULE
NuBBE_1560
 37 39 0 0 0
SMALL
GASTEIGER

@<TRIPOS>ATOM
      1 O           0.5923    0.6231   -1.8547 O.2     1  LIG1       -0.2863
      2 C           0.6202    1.1218   -0.7374 C.ar    1  LIG1        0.2038
      3 C          -0.1857    0.6159    0.4040 C.ar    1  LIG1        0.0679
      4 C          -0.1494    1.3232    1.5419 C.ar    1  LIG1        0.1040
      5 O           0.5538    2.4865    1.7604 O.2     1  LIG1       -0.4618
      6 C           1.3975    2.9183    0.7664 C.ar    1  LIG1        0.1454
      7 C           1.4851    2.2871   -0.4728 C.ar    1  LIG1        0.1060
      8 C           2.3931    2.7567   -1.4294 C.ar    1  LIG1        0.1347
      9 O           2.5387    2.1861   -2.6647 O.3     1  LIG1       -0.5058
     10 C           3.2139    3.8500   -1.1474 C.ar    1  LIG1        0.0223
     11 C           3.1003    4.4827    0.0870 C.ar    1  LIG1        0.1239
     12 C           2.1961    4.0296    1.0444 C.ar    1  LIG1        0.0231
     13 O           3.8721    5.5623    0.4026 O.3     1  LIG1       -0.5065
     14 C          -0.9820   -0.6178    0.2996 C.ar    1  LIG1        0.0306
     15 C          -0.4364   -1.8826    0.5903 C.ar    1  LIG1        0.1314
     16 O           0.8649   -1.9051    1.0286 O.3     1  LIG1       -0.4944
     17 C           1.6028   -3.0889    0.7421 C.3     1  LIG1        0.0788
     18 C          -1.2422   -3.0260    0.4858 C.ar    1  LIG1        0.0224
     19 C          -2.5789   -2.9273    0.0800 C.ar    1  LIG1        0.1236
     20 C          -3.1114   -1.6749   -0.2192 C.ar    1  LIG1       -0.0191
     21 C          -2.3206   -0.5282   -0.1070 C.ar    1  LIG1       -0.0469
     22 O          -3.2643   -4.1128    0.0278 O.3     1  LIG1       -0.4950
     23 C          -4.6191   -4.0429   -0.4080 C.3     1  LIG1        0.0788
     24 H          -0.6825    1.0449    2.4427 H       1  LIG1        0.1037
     25 H           1.8734    1.4638   -2.7434 H       1  LIG1        0.2922
     26 H           3.9262    4.1860   -1.8944 H       1  LIG1        0.0691
     27 H           2.1253    4.5342    2.0039 H       1  LIG1        0.0691
     28 H           4.4414    5.7747   -0.3567 H       1  LIG1        0.2921
     29 H           2.6442   -2.9042    1.0241 H       1  LIG1        0.0660
     30 H           1.5808   -3.3202   -0.3281 H       1  LIG1        0.0660
     31 H           1.2518   -3.9374    1.3373 H       1  LIG1        0.0660
     32 H          -0.8605   -4.0105    0.7378 H       1  LIG1        0.0691
     33 H          -4.1408   -1.5519   -0.5382 H       1  LIG1        0.0654
     34 H          -2.7620    0.4367   -0.3461 H       1  LIG1        0.0626
     35 H          -5.0440   -5.0504   -0.3700 H       1  LIG1        0.0660
     36 H          -4.6773   -3.6937   -1.4447 H       1  LIG1        0.0660
     37 H          -5.2172   -3.4088    0.2557 H       1  LIG1        0.0660
@<TRIPOS>BOND
     1     1     2    2
     2     2     3   ar
     3     3     4   ar
     4     4     5   ar
     5     5     6   ar
     6     6     7   ar
     7     2     7   ar
     8     7     8   ar
     9     8     9    1
    10     8    10   ar
    11    10    11   ar
    12    11    12   ar
    13     6    12   ar
    14    11    13    1
    15     3    14    1
    16    14    15   ar
    17    15    16    1
    18    16    17    1
    19    15    18   ar
    20    18    19   ar
    21    19    20   ar
    22    20    21   ar
    23    14    21   ar
    24    19    22    1
    25    22    23    1
    26     4    24    1
    27     9    25    1
    28    10    26    1
    29    12    27    1
    30    13    28    1
    31    17    29    1
    32    17    30    1
    33    17    31    1
    34    18    32    1
    35    20    33    1
    36    21    34    1
    37    23    35    1
    38    23    36    1
    39    23    37    1
