@<TRIPOS>MOLECULE
NuBBE_1463
 67 72 0 0 0
SMALL
GASTEIGER

@<TRIPOS>ATOM
      1 C           2.3016    1.2859   -2.4787 C.3     1  LIG1       -0.0237
      2 C           1.7537    1.1114   -1.0916 C.3     1  LIG1        0.1244
      3 C           0.8160   -0.0262   -0.7175 C.3     1  LIG1        0.0362
      4 C           1.6242   -0.8608    0.3367 C.3     1  LIG1        0.0396
      5 C           2.0761   -2.1998   -0.3172 C.3     1  LIG1       -0.0517
      6 C           2.8759   -0.0084    0.5367 C.2     1  LIG1        0.1087
      7 O           2.8552    1.1801   -0.1594 O.2     1  LIG1       -0.4882
      8 C           3.8734   -0.2905    1.3753 C.2     1  LIG1        0.0194
      9 C           3.5061   -1.3148    2.3627 C.2     1  LIG1        0.1651
     10 C           2.0921   -1.1642    2.9551 C.3     1  LIG1        0.0317
     11 C           2.0778    0.1829    3.7262 C.3     1  LIG1       -0.0525
     12 C           1.9094   -2.2504    4.0391 C.3     1  LIG1       -0.0525
     13 C           0.9829   -1.1320    1.7706 C.3     1  LIG1       -0.0059
     14 H           0.3199   -0.2990    2.0043 H       1  LIG1        0.0325
     15 C           0.0929   -2.3893    1.8654 C.3     1  LIG1        0.0495
     16 C          -1.1275   -2.4790    0.9814 C.2     1  LIG1        0.3071
     17 O          -1.4112   -3.8068    0.8171 O.3     1  LIG1       -0.4679
     18 C          -2.7296   -4.1388    0.3831 C.3     1  LIG1        0.0817
     19 O          -1.8036   -1.5421    0.6100 O.2     1  LIG1       -0.2509
     20 O           4.3146   -2.1763    2.6880 O.2     1  LIG1       -0.2920
     21 C           0.3119    1.4291   -0.6406 C.3     1  LIG1        0.0662
     22 C          -0.8234    1.6164   -1.7054 C.3     1  LIG1        0.0222
     23 C          -0.5322    2.8558   -2.5894 C.3     1  LIG1       -0.0551
     24 C          -2.1983    1.8228   -0.9735 C.3     1  LIG1        0.1371
     25 H          -2.3877    0.9880   -0.2865 H       1  LIG1        0.0792
     26 C          -3.4015    1.9241   -1.8892 C.ar    1  LIG1        0.0310
     27 C          -3.9396    3.0643   -2.4618 C.ar    1  LIG1        0.0984
     28 O          -5.0289    2.7700   -3.2155 O.2     1  LIG1       -0.4706
     29 C          -5.2232    1.4323   -3.1211 C.ar    1  LIG1        0.0921
     30 C          -4.2634    0.8673   -2.3152 C.ar    1  LIG1       -0.0172
     31 O          -2.1340    3.0213   -0.1682 O.3     1  LIG1       -0.4541
     32 C          -1.0522    3.2130    0.6185 C.2     1  LIG1        0.3373
     33 C          -0.0473    2.0587    0.7019 C.3     1  LIG1        0.1621
     34 H          -0.5541    1.3247    1.3324 H       1  LIG1        0.0718
     35 O           1.1100    2.4989    1.4003 O.3     1  LIG1       -0.3799
     36 O          -0.9150    4.2350    1.2890 O.2     1  LIG1       -0.2479
     37 C          -0.8244    0.2965   -2.5261 C.3     1  LIG1       -0.0425
     38 C           0.1069   -0.7255   -1.8527 C.3     1  LIG1       -0.0414
     39 H           0.8262   -1.1020   -2.5905 H       1  LIG1        0.0273
     40 H          -0.4741   -1.5845   -1.5150 H       1  LIG1        0.0273
     41 H           3.1617    0.6220   -2.6230 H       1  LIG1        0.0268
     42 H           2.6596    2.3138   -2.6028 H       1  LIG1        0.0268
     43 H           1.6054    1.0644   -3.2854 H       1  LIG1        0.0268
     44 H           2.6719   -2.0247   -1.2209 H       1  LIG1        0.0239
     45 H           1.2218   -2.8166   -0.6150 H       1  LIG1        0.0239
     46 H           2.6815   -2.8150    0.3564 H       1  LIG1        0.0239
     47 H           4.7750    0.2858    1.5052 H       1  LIG1        0.0686
     48 H           2.8798    0.2134    4.4749 H       1  LIG1        0.0239
     49 H           1.1253    0.3340    4.2443 H       1  LIG1        0.0239
     50 H           2.2383    1.0429    3.0728 H       1  LIG1        0.0239
     51 H           2.7311   -2.2178    4.7671 H       1  LIG1        0.0239
     52 H           1.9158   -3.2613    3.6203 H       1  LIG1        0.0239
     53 H           0.9842   -2.1047    4.6072 H       1  LIG1        0.0239
     54 H          -0.3402   -2.4410    2.8737 H       1  LIG1        0.0381
     55 H           0.6999   -3.2889    1.7251 H       1  LIG1        0.0381
     56 H          -3.1739   -3.3780   -0.2612 H       1  LIG1        0.0661
     57 H          -3.3492   -4.2962    1.2715 H       1  LIG1        0.0661
     58 H          -2.6766   -5.0839   -0.1659 H       1  LIG1        0.0661
     59 H          -0.4701    3.7733   -1.9941 H       1  LIG1        0.0237
     60 H          -1.3022    2.9996   -3.3525 H       1  LIG1        0.0237
     61 H           0.4101    2.7915   -3.1310 H       1  LIG1        0.0237
     62 H          -3.6733    4.1129   -2.4300 H       1  LIG1        0.1033
     63 H          -6.0715    1.0427   -3.6674 H       1  LIG1        0.1029
     64 H          -4.1899   -0.1825   -2.0671 H       1  LIG1        0.0653
     65 H           0.8558    3.3096    1.8861 H       1  LIG1        0.2105
     66 H          -0.5105    0.4717   -3.5619 H       1  LIG1        0.0272
     67 H          -1.8155   -0.1554   -2.6054 H       1  LIG1        0.0272
@<TRIPOS>BOND
     1     1     2    1
     2     2     3    1
     3     3     4    1
     4     4     5    1
     5     4     6    1
     6     6     7    1
     7     2     7    1
     8     6     8    2
     9     8     9    1
    10     9    10    1
    11    10    11    1
    12    10    12    1
    13    10    13    1
    14    13    14    1
    15     4    13    1
    16    13    15    1
    17    15    16    1
    18    16    17    1
    19    17    18    1
    20    16    19    2
    21     9    20    2
    22     3    21    1
    23     2    21    1
    24    21    22    1
    25    22    23    1
    26    22    24    1
    27    26    27   ar
    28    27    28   ar
    29    28    29   ar
    30    29    30   ar
    31    26    30   ar
    32    24    31    1
    33    31    32    1
    34    32    33    1
    35    33    34    1
    36    21    33    1
    37    33    35    1
    38    32    36    2
    39    22    37    1
    40    37    38    1
    41    38    39    1
    42     3    38    1
    43    38    40    1
    44    24    26    1
    45    24    25    1
    46     1    41    1
    47     1    42    1
    48     1    43    1
    49     5    44    1
    50     5    45    1
    51     5    46    1
    52     8    47    1
    53    11    48    1
    54    11    49    1
    55    11    50    1
    56    12    51    1
    57    12    52    1
    58    12    53    1
    59    15    54    1
    60    15    55    1
    61    18    56    1
    62    18    57    1
    63    18    58    1
    64    23    59    1
    65    23    60    1
    66    23    61    1
    67    27    62    1
    68    29    63    1
    69    30    64    1
    70    35    65    1
    71    37    66    1
    72    37    67    1
