REMARK  Name = NuBBE_1528
REMARK  3 active torsions:
REMARK  status: ('A' for Active; 'I' for Inactive)
REMARK    1  A    between atoms: C_1  and  C_2
REMARK    2  A    between atoms: C_3  and  C_14
REMARK    3  A    between atoms: C_9  and  C_10
REMARK                            x       y       z     vdW  Elec       q    Type
REMARK                         _______ _______ _______ _____ _____    ______ ____
ROOT
ATOM      1  C   LIG A   1      -0.463   0.684   2.573  0.00  0.00    +0.020 C 
ATOM      2  C   LIG A   1      -0.357   0.348   1.063  0.00  0.00    +0.041 C 
ATOM      3  C   LIG A   1      -0.562   1.636   0.248  0.00  0.00    +0.220 C 
ATOM      4  O   LIG A   1       0.702   2.330   0.354  0.00  0.00    -0.452 OA
ATOM      5  C   LIG A   1       1.713   1.437   0.570  0.00  0.00    +0.336 C 
ATOM      6  O   LIG A   1       2.893   1.714   0.632  0.00  0.00    -0.245 OA
ATOM      7  C   LIG A   1       1.083   0.099   0.719  0.00  0.00    +0.045 C 
ATOM      8  C   LIG A   1       1.621  -1.100   0.432  0.00  0.00    -0.062 C 
ATOM      9  C   LIG A   1       3.058  -1.359   0.083  0.00  0.00    +0.040 C 
ATOM     10  C   LIG A   1       0.713  -2.306   0.361  0.00  0.00    +0.031 C 
ATOM     11  C   LIG A   1      -0.694  -1.920  -0.109  0.00  0.00    +0.005 C 
ATOM     12  C   LIG A   1      -1.309  -0.835   0.776  0.00  0.00    +0.016 C 
ENDROOT
BRANCH   3  13
ATOM     13  C   LIG A   1      -0.979   1.478  -1.187  0.00  0.00    +0.031 A 
ATOM     14  C   LIG A   1      -2.301   1.602  -1.711  0.00  0.00    +0.048 A 
ATOM     15  C   LIG A   1      -2.211   1.380  -3.064  0.00  0.00    +0.195 A 
ATOM     16  O   LIG A   1      -0.925   1.137  -3.418  0.00  0.00    -0.471 OA
ATOM     17  C   LIG A   1      -0.183   1.209  -2.285  0.00  0.00    +0.202 A 
ENDBRANCH   3  13
TORSDOF 1
