@<TRIPOS>MOLECULE
NuBBE_1073
 39 41 0 0 0
SMALL
GASTEIGER

@<TRIPOS>ATOM
      1 C           0.1482    0.6365    2.0924 C.3     1  LIG1       -0.0273
      2 C          -0.3288    0.4269    0.6540 C.3     1  LIG1       -0.0450
      3 C          -1.4373    1.3809    0.2026 C.3     1  LIG1       -0.0239
      4 C          -1.9675    1.1279   -1.2034 C.ar    1  LIG1       -0.0057
      5 C          -1.1825    0.7097   -2.2861 C.ar    1  LIG1        0.1235
      6 O           0.1632    0.5272   -2.1353 O.3     1  LIG1       -0.5064
      7 C          -1.7327    0.4806   -3.5515 C.ar    1  LIG1        0.0218
      8 C          -3.0878    0.7037   -3.7766 C.ar    1  LIG1        0.1236
      9 C          -3.8774    1.1707   -2.7280 C.ar    1  LIG1       -0.0195
     10 C          -3.3260    1.3820   -1.4567 C.ar    1  LIG1       -0.0517
     11 O          -3.7360    0.5180   -4.9665 O.3     1  LIG1       -0.4950
     12 C          -2.9737   -0.0574   -6.0229 C.3     1  LIG1        0.0788
     13 C           1.3301   -0.2378    2.4866 C.ar    1  LIG1       -0.0437
     14 C           1.9501   -0.0083    3.7273 C.ar    1  LIG1       -0.0130
     15 C           3.0508   -0.7707    4.0659 C.ar    1  LIG1        0.1665
     16 C           3.5421   -1.7478    3.2332 C.ar    1  LIG1        0.1662
     17 C           2.9579   -2.0232    2.0209 C.ar    1  LIG1       -0.0159
     18 C           1.8467   -1.2617    1.6496 C.ar    1  LIG1       -0.0549
     19 O           4.6377   -2.3685    3.7453 O.3     1  LIG1       -0.4526
     20 C           4.8154   -1.6280    4.9698 C.3     1  LIG1        0.2332
     21 O           3.7762   -0.6565    5.2112 O.3     1  LIG1       -0.4526
     22 H          -0.6766    0.4494    2.7902 H       1  LIG1        0.0313
     23 H           0.4545    1.6842    2.2075 H       1  LIG1        0.0313
     24 H          -0.6759   -0.6060    0.5227 H       1  LIG1        0.0272
     25 H           0.5517    0.5714    0.0254 H       1  LIG1        0.0272
     26 H          -1.0873    2.4192    0.2570 H       1  LIG1        0.0314
     27 H          -2.2683    1.2853    0.9130 H       1  LIG1        0.0314
     28 H           0.5480    0.2078   -2.9668 H       1  LIG1        0.2921
     29 H          -1.0864    0.1391   -4.3494 H       1  LIG1        0.0691
     30 H          -4.9322    1.3727   -2.8972 H       1  LIG1        0.0654
     31 H          -3.9754    1.7443   -0.6629 H       1  LIG1        0.0623
     32 H          -3.6320   -0.1811   -6.8871 H       1  LIG1        0.0660
     33 H          -2.5980   -1.0485   -5.7445 H       1  LIG1        0.0660
     34 H          -2.1530    0.6038   -6.3221 H       1  LIG1        0.0660
     35 H           1.5911    0.7600    4.4040 H       1  LIG1        0.0658
     36 H           3.3538   -2.7934    1.3689 H       1  LIG1        0.0655
     37 H           1.3996   -1.4734    0.6809 H       1  LIG1        0.0621
     38 H           5.7774   -1.1042    4.9221 H       1  LIG1        0.1166
     39 H           4.8406   -2.3346    5.8065 H       1  LIG1        0.1166
@<TRIPOS>BOND
     1     1     2    1
     2     2     3    1
     3     3     4    1
     4     4     5   ar
     5     5     6    1
     6     5     7   ar
     7     7     8   ar
     8     8     9   ar
     9     9    10   ar
    10     4    10   ar
    11     8    11    1
    12    11    12    1
    13     1    13    1
    14    13    14   ar
    15    14    15   ar
    16    15    16   ar
    17    16    17   ar
    18    17    18   ar
    19    13    18   ar
    20    16    19    1
    21    19    20    1
    22    20    21    1
    23    15    21    1
    24     1    22    1
    25     1    23    1
    26     2    24    1
    27     2    25    1
    28     3    26    1
    29     3    27    1
    30     6    28    1
    31     7    29    1
    32     9    30    1
    33    10    31    1
    34    12    32    1
    35    12    33    1
    36    12    34    1
    37    14    35    1
    38    17    36    1
    39    18    37    1
    40    20    38    1
    41    20    39    1
