@<TRIPOS>MOLECULE
NuBBE_1417
 39 39 0 0 0
SMALL
GASTEIGER

@<TRIPOS>ATOM
      1 C           0.7729    0.4711    2.2453 C.2     1  LIG1       -0.0755
      2 C           2.0091    0.9953    2.3483 C.2     1  LIG1       -0.0994
      3 C          -0.0172    0.2387    3.5103 C.3     1  LIG1       -0.0437
      4 C           0.0716    0.1374    0.9055 C.3     1  LIG1       -0.0079
      5 H          -1.0075    0.2657    1.0886 H       1  LIG1        0.0357
      6 C           0.2808   -1.3524    0.4023 C.3     1  LIG1       -0.0073
      7 C          -0.5069   -2.3265    1.2886 C.2     1  LIG1       -0.0846
      8 C          -0.0461   -3.3946    1.9655 C.2     1  LIG1       -0.1021
      9 C           1.7850   -1.7135    0.3334 C.3     1  LIG1       -0.0555
     10 C          -0.3216   -1.5181   -1.0258 C.3     1  LIG1       -0.0399
     11 C           0.1910   -0.4831   -2.0225 C.3     1  LIG1       -0.0307
     12 C          -0.2260    0.8927   -1.5535 C.2     1  LIG1       -0.0702
     13 C          -1.0308    1.7274   -2.2597 C.2     1  LIG1       -0.0764
     14 C          -1.6146    1.4148   -3.6231 C.3     1  LIG1       -0.0438
     15 C          -1.4670    3.1001   -1.8007 C.3     1  LIG1       -0.0438
     16 C           0.4047    1.1929   -0.1987 C.3     1  LIG1       -0.0242
     17 H           2.4450    1.2281    3.3167 H       1  LIG1        0.0534
     18 H           2.6389    1.1965    1.4896 H       1  LIG1        0.0534
     19 H           0.5107    0.6163    4.3951 H       1  LIG1        0.0274
     20 H          -0.1959   -0.8260    3.6760 H       1  LIG1        0.0274
     21 H          -0.9778    0.7608    3.4667 H       1  LIG1        0.0274
     22 H          -1.5762   -2.1275    1.3609 H       1  LIG1        0.0572
     23 H           0.9958   -3.6877    1.9605 H       1  LIG1        0.0532
     24 H          -0.7240   -4.0048    2.5530 H       1  LIG1        0.0532
     25 H           2.3723   -0.9376   -0.1662 H       1  LIG1        0.0238
     26 H           1.9411   -2.6445   -0.2261 H       1  LIG1        0.0238
     27 H           2.2226   -1.8537    1.3272 H       1  LIG1        0.0238
     28 H          -1.4188   -1.4472   -0.9859 H       1  LIG1        0.0277
     29 H          -0.1003   -2.5211   -1.4154 H       1  LIG1        0.0277
     30 H          -0.1811   -0.7449   -3.0132 H       1  LIG1        0.0310
     31 H           1.2831   -0.5222   -2.1104 H       1  LIG1        0.0310
     32 H          -1.3684    0.4298   -4.0178 H       1  LIG1        0.0274
     33 H          -1.2592    2.1477   -4.3563 H       1  LIG1        0.0274
     34 H          -2.7080    1.4726   -3.5848 H       1  LIG1        0.0274
     35 H          -1.1269    3.3772   -0.8037 H       1  LIG1        0.0274
     36 H          -2.5617    3.1555   -1.7882 H       1  LIG1        0.0274
     37 H          -1.0967    3.8609   -2.4968 H       1  LIG1        0.0274
     38 H           0.1208    2.1775    0.1810 H       1  LIG1        0.0316
     39 H           1.4871    1.2464   -0.3657 H       1  LIG1        0.0316
@<TRIPOS>BOND
     1     1     2    2
     2     1     3    1
     3     4     6    1
     4     7     8    2
     5     6    10    1
     6    10    11    1
     7    11    12    1
     8    12    13    2
     9    13    14    1
    10    13    15    1
    11    12    16    1
    12     4    16    1
    13     4     5    1
    14     4     1    1
    15     6     9    1
    16     6     7    1
    17     2    17    1
    18     2    18    1
    19     3    19    1
    20     3    20    1
    21     3    21    1
    22     7    22    1
    23     8    23    1
    24     8    24    1
    25     9    25    1
    26     9    26    1
    27     9    27    1
    28    10    28    1
    29    10    29    1
    30    11    30    1
    31    11    31    1
    32    14    32    1
    33    14    33    1
    34    14    34    1
    35    15    35    1
    36    15    36    1
    37    15    37    1
    38    16    38    1
    39    16    39    1
