REMARK  Name = NuBBE_2129
REMARK  4 active torsions:
REMARK  status: ('A' for Active; 'I' for Inactive)
REMARK    1  A    between atoms: C_1  and  C_2
REMARK    2  A    between atoms: C_2  and  C_3
REMARK    3  A    between atoms: C_3  and  C_4
REMARK    4  A    between atoms: C_4  and  C_5
REMARK                            x       y       z     vdW  Elec       q    Type
REMARK                         _______ _______ _______ _____ _____    ______ ____
ROOT
ATOM      1  C   LIG A   1       0.941   0.088  -0.810  0.00  0.00    -0.011 C 
ATOM      2  C   LIG A   1      -0.010   1.161  -1.369  0.00  0.00    +0.003 C 
ATOM      3  C   LIG A   1      -0.279   2.289  -0.374  0.00  0.00    +0.000 C 
ATOM      4  C   LIG A   1       1.021   2.933   0.099  0.00  0.00    +0.000 C 
ATOM      5  C   LIG A   1       1.995   1.901   0.660  0.00  0.00    +0.000 C 
ATOM      6  C   LIG A   1       2.241   0.758  -0.325  0.00  0.00    +0.003 C 
ENDROOT
BRANCH   1   7
ATOM      7  C   LIG A   1       0.320  -0.782   0.306  0.00  0.00    +0.003 C 
BRANCH   7   8
ATOM      8  C   LIG A   1      -0.913  -1.574  -0.144  0.00  0.00    -0.000 C 
BRANCH   8  10
ATOM      9  C   LIG A   1      -2.687  -3.227   0.544  0.00  0.00    +0.004 C 
ATOM     10  C   LIG A   1      -1.460  -2.445   0.988  0.00  0.00    -0.003 C 
ENDBRANCH   8  10
ENDBRANCH   7   8
ENDBRANCH   1   7
TORSDOF 3
