REMARK  Name = NuBBE_179
REMARK  6 active torsions:
REMARK  status: ('A' for Active; 'I' for Inactive)
REMARK    1  A    between atoms: C_4  and  C_5
REMARK    2  A    between atoms: C_8  and  O_9
REMARK    3  A    between atoms: O_9  and  C_10
REMARK    4  A    between atoms: C_11  and  O_12
REMARK    5  A    between atoms: C_18  and  O_19
REMARK    6  A    between atoms: O_19  and  C_20
REMARK                            x       y       z     vdW  Elec       q    Type
REMARK                         _______ _______ _______ _____ _____    ______ ____
ROOT
ATOM      1  O   LIG A   1      -4.047  -0.781  -0.152  0.00  0.00    -0.287 OA
ATOM      2  C   LIG A   1      -2.819  -0.757  -0.127  0.00  0.00    +0.193 A 
ATOM      3  C   LIG A   1      -2.087   0.514  -0.138  0.00  0.00    +0.098 A 
ATOM      4  C   LIG A   1      -0.745   0.506  -0.101  0.00  0.00    +0.139 A 
ATOM      5  O   LIG A   1       0.019  -0.655  -0.037  0.00  0.00    -0.455 OA
ATOM      6  C   LIG A   1      -2.013  -1.979  -0.086  0.00  0.00    +0.064 A 
ATOM      7  C   LIG A   1      -0.627  -1.867  -0.042  0.00  0.00    +0.143 A 
ATOM      8  C   LIG A   1       0.156  -3.022  -0.008  0.00  0.00    +0.092 A 
ATOM      9  C   LIG A   1      -0.448  -4.286  -0.024  0.00  0.00    +0.124 A 
ATOM     10  C   LIG A   1      -1.842  -4.384  -0.063  0.00  0.00    +0.046 A 
ATOM     11  C   LIG A   1      -2.626  -3.231  -0.093  0.00  0.00    +0.019 A 
ENDROOT
BRANCH   4  12
ATOM     12  C   LIG A   1       0.038   1.764  -0.087  0.00  0.00    +0.021 A 
ATOM     13  C   LIG A   1       1.286   1.815   0.555  0.00  0.00    +0.015 A 
ATOM     14  C   LIG A   1       2.038   2.999   0.600  0.00  0.00    +0.050 A 
ATOM     15  C   LIG A   1       1.550   4.162   0.010  0.00  0.00    +0.161 A 
ATOM     16  C   LIG A   1       0.303   4.114  -0.619  0.00  0.00    +0.159 A 
ATOM     17  C   LIG A   1      -0.433   2.935  -0.697  0.00  0.00    +0.060 A 
BRANCH  15  18
ATOM     18  O   LIG A   1       2.182   5.378  -0.015  0.00  0.00    -0.491 OA
ATOM     19  C   LIG A   1       3.473   5.431   0.585  0.00  0.00    +0.277 C 
ENDBRANCH  15  18
BRANCH  16  20
ATOM     20  O   LIG A   1      -0.255   5.244  -1.155  0.00  0.00    -0.503 OA
ATOM     21  H   LIG A   1       0.306   5.980  -0.848  0.00  0.00    +0.292 HD
ENDBRANCH  16  20
ENDBRANCH   4  12
BRANCH   9  22
ATOM     22  O   LIG A   1       0.418  -5.345  -0.000  0.00  0.00    -0.495 OA
ATOM     23  C   LIG A   1      -0.167  -6.642  -0.054  0.00  0.00    +0.277 C 
ENDBRANCH   9  22
TORSDOF 4
