REMARK  Name = NuBBE_88
REMARK  6 active torsions:
REMARK  status: ('A' for Active; 'I' for Inactive)
REMARK    1  A    between atoms: O_1  and  C_2
REMARK    2  A    between atoms: C_6  and  C_23
REMARK    3  A    between atoms: C_9  and  C_10
REMARK    4  A    between atoms: C_9  and  C_11
REMARK    5  A    between atoms: C_18  and  C_19
REMARK    6  A    between atoms: C_18  and  C_21
REMARK                            x       y       z     vdW  Elec       q    Type
REMARK                         _______ _______ _______ _____ _____    ______ ____
ROOT
ATOM      1  C   LIG A   1      -3.499  -0.650   1.228  0.00  0.00    +0.120 C 
ATOM      2  C   LIG A   1      -3.119   0.824   1.328  0.00  0.00    +0.032 C 
ATOM      3  C   LIG A   1      -2.051   1.189   0.307  0.00  0.00    +0.010 C 
ATOM      4  C   LIG A   1      -0.752   0.354   0.442  0.00  0.00    -0.022 C 
ATOM      5  C   LIG A   1      -1.111  -1.177   0.499  0.00  0.00    +0.007 C 
ATOM      6  C   LIG A   1      -2.294  -1.609   1.448  0.00  0.00    -0.005 C 
ATOM      7  C   LIG A   1      -2.760  -3.039   1.052  0.00  0.00    +0.014 C 
ATOM      8  C   LIG A   1      -1.927  -1.695   2.946  0.00  0.00    +0.014 C 
ATOM      9  C   LIG A   1       0.176  -2.017   0.661  0.00  0.00    +0.031 C 
ATOM     10  C   LIG A   1       1.245  -1.618  -0.315  0.00  0.00    -0.027 C 
ATOM     11  C   LIG A   1       1.229  -0.477  -1.028  0.00  0.00    -0.069 C 
ATOM     12  C   LIG A   1       0.141   0.576  -0.857  0.00  0.00    +0.021 C 
ATOM     13  C   LIG A   1       0.718   2.007  -0.962  0.00  0.00    +0.009 C 
ATOM     14  C   LIG A   1       1.626   2.191  -2.180  0.00  0.00    +0.012 C 
ATOM     15  C   LIG A   1       2.820   1.207  -2.173  0.00  0.00    -0.011 C 
ATOM     16  C   LIG A   1       3.602   1.370  -3.494  0.00  0.00    +0.016 C 
ATOM     17  C   LIG A   1       2.253  -0.235  -2.120  0.00  0.00    +0.041 C 
ATOM     18  C   LIG A   1       0.017   0.830   1.700  0.00  0.00    +0.012 C 
ENDROOT
BRANCH   1  19
ATOM     19  O   LIG A   1      -4.537  -0.924   2.168  0.00  0.00    -0.391 OA
ATOM     20  H   LIG A   1      -5.282  -0.333   1.965  0.00  0.00    +0.210 HD
ENDBRANCH   1  19
BRANCH  15  21
ATOM     21  C   LIG A   1       3.785   1.581  -1.048  0.00  0.00    -0.028 C 
ATOM     22  C   LIG A   1       4.252   0.802  -0.063  0.00  0.00    +0.004 C 
ENDBRANCH  15  21
TORSDOF 2
