REMARK  Name = NuBBE_2048
REMARK  9 active torsions:
REMARK  status: ('A' for Active; 'I' for Inactive)
REMARK    1  A    between atoms: O_1  and  C_2
REMARK    2  A    between atoms: O_1  and  C_3
REMARK    3  A    between atoms: C_15  and  O_16
REMARK    4  A    between atoms: O_16  and  C_17
REMARK    5  A    between atoms: C_18  and  O_22
REMARK    6  A    between atoms: C_19  and  O_21
REMARK    7  A    between atoms: O_22  and  C_23
REMARK    8  A    between atoms: C_26  and  O_27
REMARK    9  A    between atoms: O_27  and  C_28
REMARK                            x       y       z     vdW  Elec       q    Type
REMARK                         _______ _______ _______ _____ _____    ______ ____
ROOT
ATOM      1  C   LIG A   1      -2.157  -2.929  -0.528  0.00  0.00    +0.204 A 
ATOM      2  C   LIG A   1      -1.664  -1.626  -0.722  0.00  0.00    +0.172 A 
ATOM      3  C   LIG A   1      -0.287  -1.398  -0.846  0.00  0.00    +0.039 A 
ATOM      4  C   LIG A   1       0.235  -0.029  -1.177  0.00  0.00    +0.218 C 
ATOM      5  C   LIG A   1      -0.846   1.049  -1.252  0.00  0.00    +0.106 C 
ATOM      6  C   LIG A   1      -2.010   0.666  -0.362  0.00  0.00    +0.241 C 
ATOM      7  O   LIG A   1      -2.548  -0.580  -0.799  0.00  0.00    -0.487 OA
ATOM      8  C   LIG A   1      -0.067   2.197  -0.719  0.00  0.00    +0.012 A 
ATOM      9  C   LIG A   1       1.075   1.721  -0.080  0.00  0.00    +0.170 A 
ATOM     10  O   LIG A   1       1.184   0.359  -0.158  0.00  0.00    -0.479 OA
ATOM     11  C   LIG A   1       1.971   2.562   0.583  0.00  0.00    +0.208 A 
ATOM     12  C   LIG A   1       1.661   3.933   0.572  0.00  0.00    +0.207 A 
ATOM     13  C   LIG A   1       0.500   4.394  -0.093  0.00  0.00    +0.163 A 
ATOM     14  C   LIG A   1      -0.375   3.533  -0.752  0.00  0.00    +0.057 A 
ATOM     15  C   LIG A   1       0.607  -2.463  -0.691  0.00  0.00    +0.014 A 
ATOM     16  C   LIG A   1       0.134  -3.746  -0.430  0.00  0.00    +0.050 A 
ATOM     17  C   LIG A   1      -1.242  -3.989  -0.340  0.00  0.00    +0.165 A 
ENDROOT
BRANCH   1  18
ATOM     18  O   LIG A   1      -3.494  -3.248  -0.433  0.00  0.00    -0.488 OA
ATOM     19  C   LIG A   1      -4.386  -2.474  -1.232  0.00  0.00    +0.277 C 
ENDBRANCH   1  18
BRANCH  11  20
ATOM     20  O   LIG A   1       3.111   2.153   1.208  0.00  0.00    -0.488 OA
ATOM     21  C   LIG A   1       3.443   0.770   1.216  0.00  0.00    +0.277 C 
ENDBRANCH  11  20
BRANCH  13  22
ATOM     22  O   LIG A   1       0.171   5.723  -0.078  0.00  0.00    -0.503 OA
ATOM     23  H   LIG A   1       0.839   6.141   0.509  0.00  0.00    +0.292 HD
ENDBRANCH  13  22
BRANCH  12  24
ATOM     24  O   LIG A   1       2.402   4.962   1.123  0.00  0.00    -0.488 OA
ATOM     25  C   LIG A   1       3.196   4.643   2.259  0.00  0.00    +0.277 C 
ENDBRANCH  12  24
BRANCH  17  26
ATOM     26  O   LIG A   1      -1.762  -5.242  -0.114  0.00  0.00    -0.491 OA
ATOM     27  C   LIG A   1      -0.902  -6.166   0.548  0.00  0.00    +0.277 C 
ENDBRANCH  17  26
TORSDOF 5
