@<TRIPOS>MOLECULE
NuBBE_1823
 57 60 0 0 0
SMALL
GASTEIGER

@<TRIPOS>ATOM
      1 O          -3.5306   -0.2303    4.9618 O.3     1  LIG1       -0.3865
      2 C          -3.0503   -0.9894    3.8273 C.3     1  LIG1        0.1120
      3 H          -3.3238   -2.0297    4.0346 H       1  LIG1        0.0647
      4 C          -3.7697   -0.4746    2.5820 C.3     1  LIG1        0.1152
      5 O          -5.1885   -0.5256    2.8187 O.3     1  LIG1       -0.3864
      6 C          -3.3523    0.9688    2.2792 C.3     1  LIG1        0.1454
      7 H          -3.8716    1.3151    1.3797 H       1  LIG1        0.0683
      8 O          -3.8151    1.8259    3.3471 O.3     1  LIG1       -0.3829
      9 C          -1.8227    1.0741    2.1139 C.3     1  LIG1        0.2308
     10 H          -1.5485    2.1253    2.2370 H       1  LIG1        0.1084
     11 O          -1.3995    0.5805    0.8151 O.3     1  LIG1       -0.4600
     12 C          -0.8927    1.5271   -0.0763 C.ar    1  LIG1        0.1386
     13 C          -1.3286    2.8680   -0.0747 C.ar    1  LIG1        0.0224
     14 C          -0.7363    3.7911   -0.9239 C.ar    1  LIG1        0.1209
     15 O          -1.0949    5.1063   -0.9380 O.3     1  LIG1       -0.5066
     16 C           0.2610    3.4155   -1.7984 C.ar    1  LIG1       -0.0121
     17 C           0.6774    2.0836   -1.8652 C.ar    1  LIG1       -0.0071
     18 C           1.6775    1.7688   -2.7842 C.ar    1  LIG1       -0.0475
     19 C           2.1479    0.4623   -2.9368 C.ar    1  LIG1       -0.0070
     20 C           3.2142    0.1947   -3.9647 C.3     1  LIG1        0.1065
     21 O           2.5675    0.1192   -5.2326 O.3     1  LIG1       -0.3846
     22 C           3.9548   -1.1155   -3.6777 C.3     1  LIG1        0.0866
     23 H           4.5083   -1.3968   -4.5822 H       1  LIG1        0.0623
     24 C           4.9720   -0.9967   -2.5512 C.3     1  LIG1       -0.0359
     25 O           2.9996   -2.1738   -3.4927 O.3     1  LIG1       -0.3663
     26 C           2.0418   -2.0090   -2.4226 C.3     1  LIG1        0.0850
     27 C           2.5843   -2.7327   -1.1890 C.3     1  LIG1       -0.0344
     28 C           1.5795   -0.5769   -2.1841 C.ar    1  LIG1        0.0287
     29 C           0.5555   -0.2492   -1.2646 C.ar    1  LIG1        0.1340
     30 O          -0.0583   -1.2978   -0.6163 O.3     1  LIG1       -0.5057
     31 C           0.0912    1.0903   -1.0357 C.ar    1  LIG1        0.0659
     32 O          -1.1063    0.4639    3.1989 O.3     1  LIG1       -0.3313
     33 C          -1.5273   -0.8079    3.7089 C.3     1  LIG1        0.1140
     34 H          -1.1370   -0.8316    4.7354 H       1  LIG1        0.0647
     35 C          -0.8346   -1.9524    2.9625 C.3     1  LIG1        0.0731
     36 O          -1.2319   -3.2112    3.4930 O.3     1  LIG1       -0.3924
     37 H          -4.4536   -0.5321    5.0884 H       1  LIG1        0.2100
     38 H          -3.5523   -1.1219    1.7264 H       1  LIG1        0.0648
     39 H          -5.4441    0.3613    3.1463 H       1  LIG1        0.2100
     40 H          -3.4480    1.4573    4.1845 H       1  LIG1        0.2102
     41 H          -2.1289    3.2061    0.5734 H       1  LIG1        0.0691
     42 H          -1.7514    5.2696   -0.2347 H       1  LIG1        0.2921
     43 H           0.7084    4.1706   -2.4453 H       1  LIG1        0.0660
     44 H           2.1040    2.5476   -3.4161 H       1  LIG1        0.0627
     45 H           3.9303    1.0251   -4.0064 H       1  LIG1        0.0670
     46 H           2.0681   -0.7193   -5.2254 H       1  LIG1        0.2103
     47 H           4.5393   -0.5689   -1.6425 H       1  LIG1        0.0255
     48 H           5.7978   -0.3427   -2.8517 H       1  LIG1        0.0255
     49 H           5.3825   -1.9780   -2.2937 H       1  LIG1        0.0255
     50 H           1.1653   -2.5708   -2.7699 H       1  LIG1        0.0645
     51 H           3.3445   -2.1453   -0.6683 H       1  LIG1        0.0258
     52 H           3.0517   -3.6812   -1.4778 H       1  LIG1        0.0258
     53 H           1.7959   -2.9547   -0.4652 H       1  LIG1        0.0258
     54 H          -0.8162   -0.9177   -0.1347 H       1  LIG1        0.2922
     55 H           0.2515   -1.8552    3.0720 H       1  LIG1        0.0584
     56 H          -1.0667   -1.9348    1.8967 H       1  LIG1        0.0584
     57 H          -0.6904   -3.8946    3.0598 H       1  LIG1        0.2095
@<TRIPOS>BOND
     1     1     2    1
     2     2     3    1
     3     2     4    1
     4     4     5    1
     5     4     6    1
     6     6     9    1
     7     9    10    1
     8     9    11    1
     9    11    12    1
    10    12    13   ar
    11    13    14   ar
    12    14    15    1
    13    14    16   ar
    14    16    17   ar
    15    17    18   ar
    16    18    19   ar
    17    19    20    1
    18    20    21    1
    19    20    22    1
    20    22    25    1
    21    25    26    1
    22    26    27    1
    23    19    28   ar
    24    26    28    1
    25    28    29   ar
    26    29    30    1
    27    29    31   ar
    28    17    31   ar
    29    12    31   ar
    30     9    32    1
    31    32    33    1
    32    33    34    1
    33     2    33    1
    34    33    35    1
    35    35    36    1
    36     6     8    1
    37     6     7    1
    38    22    24    1
    39    22    23    1
    40     1    37    1
    41     4    38    1
    42     5    39    1
    43     8    40    1
    44    13    41    1
    45    15    42    1
    46    16    43    1
    47    18    44    1
    48    20    45    1
    49    21    46    1
    50    24    47    1
    51    24    48    1
    52    24    49    1
    53    26    50    1
    54    27    51    1
    55    27    52    1
    56    27    53    1
    57    30    54    1
    58    35    55    1
    59    35    56    1
    60    36    57    1
