REMARK  Name = NuBBE_940
REMARK  5 active torsions:
REMARK  status: ('A' for Active; 'I' for Inactive)
REMARK    1  A    between atoms: C_3  and  C_13
REMARK    2  A    between atoms: C_6  and  C_8
REMARK    3  A    between atoms: C_8  and  C_10
REMARK    4  A    between atoms: C_8  and  C_11
REMARK    5  A    between atoms: C_15  and  C_16
REMARK                            x       y       z     vdW  Elec       q    Type
REMARK                         _______ _______ _______ _____ _____    ______ ____
ROOT
ATOM      1  C   LIG A   1      -0.635   0.863   0.967  0.00  0.00    +0.003 C 
ATOM      2  C   LIG A   1       0.510  -0.054   1.588  0.00  0.00    -0.022 C 
ATOM      3  C   LIG A   1       0.208  -1.572   1.556  0.00  0.00    +0.008 C 
ATOM      4  C   LIG A   1      -0.787  -1.913   0.452  0.00  0.00    +0.004 C 
ATOM      5  C   LIG A   1      -0.526  -1.109  -0.832  0.00  0.00    -0.004 C 
ATOM      6  C   LIG A   1      -0.105   0.319  -0.421  0.00  0.00    +0.004 C 
ATOM      7  C   LIG A   1       1.087   0.317   2.952  0.00  0.00    +0.012 C 
ATOM      8  C   LIG A   1       1.309   0.382   0.289  0.00  0.00    +0.024 C 
ATOM      9  C   LIG A   1       1.844   1.790   0.323  0.00  0.00    -0.073 C 
ATOM     10  C   LIG A   1       3.263   2.032  -0.070  0.00  0.00    +0.039 C 
ATOM     11  C   LIG A   1       0.974   2.743   0.707  0.00  0.00    -0.027 C 
ATOM     12  C   LIG A   1      -0.439   2.386   1.101  0.00  0.00    +0.031 C 
ENDROOT
BRANCH   5  13
ATOM     13  C   LIG A   1      -1.762  -1.079  -1.776  0.00  0.00    -0.014 C 
ATOM     14  C   LIG A   1      -1.407  -0.509  -3.157  0.00  0.00    +0.007 C 
ATOM     15  C   LIG A   1      -2.378  -2.469  -1.979  0.00  0.00    +0.007 C 
ENDBRANCH   5  13
TORSDOF 1
