REMARK  Name = NuBBE_1326
REMARK  7 active torsions:
REMARK  status: ('A' for Active; 'I' for Inactive)
REMARK    1  A    between atoms: C_1  and  C_2
REMARK    2  A    between atoms: C_2  and  C_3
REMARK    3  A    between atoms: C_14  and  O_27
REMARK    4  A    between atoms: C_17  and  O_18
REMARK    5  A    between atoms: O_18  and  C_19
REMARK    6  A    between atoms: C_20  and  O_21
REMARK    7  A    between atoms: O_21  and  C_22
REMARK                            x       y       z     vdW  Elec       q    Type
REMARK                         _______ _______ _______ _____ _____    ______ ____
ROOT
ATOM      1  C   LIG A   1      -1.676   3.651   1.560  0.00  0.00    +0.203 C 
ATOM      2  O   LIG A   1      -1.889   4.041   0.174  0.00  0.00    -0.484 OA
ATOM      3  C   LIG A   1      -1.813   2.120   1.681  0.00  0.00    +0.091 C 
ATOM      4  C   LIG A   1      -1.691   1.743   0.254  0.00  0.00    +0.040 A 
ATOM      5  C   LIG A   1      -1.744   2.880  -0.536  0.00  0.00    +0.128 A 
ATOM      6  C   LIG A   1      -1.680   2.818  -1.914  0.00  0.00    +0.047 A 
ATOM      7  C   LIG A   1      -1.528   1.562  -2.506  0.00  0.00    +0.019 A 
ATOM      8  C   LIG A   1      -1.466   0.408  -1.703  0.00  0.00    +0.063 A 
ATOM      9  C   LIG A   1      -1.589   0.488  -0.317  0.00  0.00    +0.139 A 
ATOM     10  O   LIG A   1      -1.602  -0.582   0.524  0.00  0.00    -0.481 OA
ATOM     11  C   LIG A   1      -1.755  -1.867  -0.111  0.00  0.00    +0.254 C 
ATOM     12  C   LIG A   1      -0.889  -2.050  -1.359  0.00  0.00    +0.197 C 
ATOM     13  C   LIG A   1       0.572  -2.134  -0.978  0.00  0.00    +0.041 A 
ATOM     14  C   LIG A   1       1.600  -1.856  -1.893  0.00  0.00    +0.060 A 
ATOM     15  C   LIG A   1       2.951  -1.893  -1.511  0.00  0.00    +0.162 A 
ATOM     16  C   LIG A   1       3.289  -2.211  -0.188  0.00  0.00    +0.165 A 
ATOM     17  C   LIG A   1       2.267  -2.508   0.720  0.00  0.00    +0.095 A 
ATOM     18  C   LIG A   1       0.928  -2.490   0.326  0.00  0.00    +0.131 A 
ATOM     19  O   LIG A   1       0.032  -2.785   1.319  0.00  0.00    -0.488 OA
ATOM     20  C   LIG A   1      -1.334  -2.925   0.908  0.00  0.00    +0.277 C 
ATOM     21  C   LIG A   1      -1.233  -0.911  -2.309  0.00  0.00    +0.206 C 
ATOM     22  O   LIG A   1      -1.300  -1.071  -3.531  0.00  0.00    -0.288 OA
ENDROOT
BRANCH   1  24
ATOM     23  C   LIG A   1      -4.102   4.302   2.149  0.00  0.00    +0.042 C 
ATOM     24  C   LIG A   1      -2.632   4.428   2.445  0.00  0.00    -0.040 C 
ATOM     25  C   LIG A   1      -2.193   5.214   3.445  0.00  0.00    +0.011 C 
ENDBRANCH   1  24
BRANCH  15  26
ATOM     26  O   LIG A   1       3.812  -1.552  -2.523  0.00  0.00    -0.491 OA
ATOM     27  C   LIG A   1       5.105  -2.146  -2.486  0.00  0.00    +0.277 C 
ENDBRANCH  15  26
BRANCH  16  28
ATOM     28  O   LIG A   1       4.602  -2.135   0.194  0.00  0.00    -0.491 OA
ATOM     29  C   LIG A   1       4.999  -3.006   1.248  0.00  0.00    +0.277 C 
ENDBRANCH  16  28
BRANCH  12  30
ATOM     30  O   LIG A   1      -1.232  -3.288  -2.003  0.00  0.00    -0.373 OA
ATOM     31  H   LIG A   1      -1.089  -3.136  -2.960  0.00  0.00    +0.211 HD
ENDBRANCH  12  30
TORSDOF 4
