REMARK  Name = NuBBE_1657
REMARK  11 active torsions:
REMARK  status: ('A' for Active; 'I' for Inactive)
REMARK    1  A    between atoms: C_1  and  C_2
REMARK    2  A    between atoms: C_4  and  C_20
REMARK    3  A    between atoms: C_9  and  C_11
REMARK    4  A    between atoms: C_13  and  O_18
REMARK    5  A    between atoms: C_14  and  O_16
REMARK    6  A    between atoms: O_16  and  C_17
REMARK    7  A    between atoms: O_18  and  C_19
REMARK    8  A    between atoms: C_22  and  O_23
REMARK    9  A    between atoms: O_23  and  C_24
REMARK   10  A    between atoms: C_25  and  O_28
REMARK   11  A    between atoms: O_28  and  C_29
REMARK                            x       y       z     vdW  Elec       q    Type
REMARK                         _______ _______ _______ _____ _____    ______ ____
ROOT
ATOM      1  C   LIG A   1      -2.100   0.275  -2.910  0.00  0.00    +0.009 C 
ATOM      2  C   LIG A   1      -1.621  -0.643  -1.755  0.00  0.00    +0.001 C 
ATOM      3  C   LIG A   1      -1.134   0.279  -0.576  0.00  0.00    +0.053 C 
ATOM      4  C   LIG A   1       0.256   0.818  -0.849  0.00  0.00    -0.033 A 
ATOM      5  C   LIG A   1       1.167   0.157  -1.652  0.00  0.00    -0.040 A 
ATOM      6  C   LIG A   1       0.856  -1.087  -2.440  0.00  0.00    +0.039 C 
ATOM      7  C   LIG A   1      -0.576  -1.632  -2.364  0.00  0.00    -0.006 C 
ATOM      8  C   LIG A   1      -0.558  -3.052  -1.788  0.00  0.00    +0.008 C 
ATOM      9  C   LIG A   1       2.446   0.721  -1.817  0.00  0.00    +0.053 A 
ATOM     10  C   LIG A   1       2.845   1.963  -1.268  0.00  0.00    +0.162 A 
ATOM     11  C   LIG A   1       1.895   2.671  -0.527  0.00  0.00    +0.162 A 
ATOM     12  C   LIG A   1       0.628   2.068  -0.314  0.00  0.00    +0.053 A 
ENDROOT
BRANCH   3  13
ATOM     13  C   LIG A   1      -1.300  -0.253   0.855  0.00  0.00    -0.036 A 
ATOM     14  C   LIG A   1      -1.280  -1.592   1.138  0.00  0.00    +0.053 A 
ATOM     15  C   LIG A   1      -1.456  -2.170   2.390  0.00  0.00    +0.162 A 
ATOM     16  C   LIG A   1      -1.653  -1.301   3.488  0.00  0.00    +0.162 A 
ATOM     17  C   LIG A   1      -1.637   0.071   3.252  0.00  0.00    +0.050 A 
ATOM     18  C   LIG A   1      -1.479   0.604   1.964  0.00  0.00    +0.008 A 
BRANCH  15  19
ATOM     19  O   LIG A   1      -1.439  -3.530   2.585  0.00  0.00    -0.491 OA
ATOM     20  C   LIG A   1      -1.794  -4.312   1.437  0.00  0.00    +0.277 C 
ENDBRANCH  15  19
BRANCH  16  21
ATOM     21  O   LIG A   1      -1.849  -1.864   4.720  0.00  0.00    -0.491 OA
ATOM     22  C   LIG A   1      -2.664  -1.105   5.616  0.00  0.00    +0.277 C 
ENDBRANCH  16  21
ENDBRANCH   3  13
BRANCH  11  23
ATOM     23  O   LIG A   1       1.902   3.898   0.072  0.00  0.00    -0.491 OA
ATOM     24  C   LIG A   1       2.789   4.852  -0.449  0.00  0.00    +0.277 C 
ENDBRANCH  11  23
BRANCH  10  25
ATOM     25  O   LIG A   1       4.132   2.171  -1.682  0.00  0.00    -0.491 OA
ATOM     26  C   LIG A   1       5.042   3.160  -1.269  0.00  0.00    +0.277 C 
ENDBRANCH  10  25
TORSDOF 5
