REMARK  Name = NuBBE_307
REMARK  16 active torsions:
REMARK  status: ('A' for Active; 'I' for Inactive)
REMARK    1  A    between atoms: C_3  and  C_4
REMARK    2  A    between atoms: C_5  and  O_6
REMARK    3  A    between atoms: O_6  and  C_7
REMARK    4  A    between atoms: C_7  and  C_8
REMARK    5  A    between atoms: C_12  and  C_13
REMARK    6  A    between atoms: C_13  and  C_14
REMARK    7  A    between atoms: C_14  and  C_15
REMARK    8  A    between atoms: C_15  and  C_16
REMARK    9  A    between atoms: C_16  and  C_17
REMARK   10  A    between atoms: C_17  and  C_18
REMARK   11  A    between atoms: C_18  and  C_19
REMARK   12  A    between atoms: C_19  and  C_20
REMARK   13  A    between atoms: C_20  and  C_21
REMARK   14  A    between atoms: C_21  and  C_22
REMARK   15  A    between atoms: C_22  and  C_23
REMARK   16  A    between atoms: C_23  and  C_24
REMARK                            x       y       z     vdW  Elec       q    Type
REMARK                         _______ _______ _______ _____ _____    ______ ____
ROOT
ATOM      1  C   LIG A   1      -1.782  -0.744  -1.741  0.00  0.00    +0.019 C 
ENDROOT
BRANCH   1   9
ATOM      2  H   LIG A   1      -1.739   2.437  -2.888  0.00  0.00    +0.123 HD
ATOM      3  N   LIG A   1      -2.035   1.693  -2.248  0.00  0.00    -0.307 NA
ATOM      4  C   LIG A   1      -3.495   1.763  -2.072  0.00  0.00    +0.092 C 
ATOM      5  C   LIG A   1      -3.791   3.110  -1.415  0.00  0.00    +0.028 C 
ATOM      6  C   LIG A   1      -4.262   1.536  -3.407  0.00  0.00    +0.193 C 
ATOM      7  C   LIG A   1      -3.773   0.249  -4.090  0.00  0.00    +0.048 C 
ATOM      8  C   LIG A   1      -2.250   0.130  -4.125  0.00  0.00    +0.022 C 
ATOM      9  C   LIG A   1      -1.582   0.401  -2.763  0.00  0.00    +0.054 C 
BRANCH   6  10
ATOM     10  O   LIG A   1      -5.677   1.351  -3.166  0.00  0.00    -0.460 OA
BRANCH  10  11
ATOM     11  C   LIG A   1      -6.450   2.467  -3.078  0.00  0.00    +0.304 C 
ATOM     12  C   LIG A   1      -7.876   2.098  -2.821  0.00  0.00    +0.136 C 
ATOM     13  O   LIG A   1      -6.063   3.616  -3.220  0.00  0.00    -0.251 OA
ENDBRANCH  10  11
ENDBRANCH   6  10
ENDBRANCH   1   9
BRANCH   1  14
ATOM     14  C   LIG A   1      -1.196  -0.467  -0.342  0.00  0.00    +0.002 C 
BRANCH  14  15
ATOM     15  C   LIG A   1       0.327  -0.289  -0.309  0.00  0.00    +0.000 C 
BRANCH  15  16
ATOM     16  C   LIG A   1       0.817  -0.004   1.119  0.00  0.00    -0.000 C 
BRANCH  16  17
ATOM     17  C   LIG A   1       2.337   0.194   1.182  0.00  0.00    -0.000 C 
BRANCH  17  18
ATOM     18  C   LIG A   1       2.801   0.569   2.595  0.00  0.00    -0.000 C 
BRANCH  18  19
ATOM     19  C   LIG A   1       4.321   0.732   2.735  0.00  0.00    +0.000 C 
BRANCH  19  20
ATOM     20  C   LIG A   1       5.169  -0.524   2.494  0.00  0.00    +0.000 C 
BRANCH  20  21
ATOM     21  C   LIG A   1       4.864  -1.686   3.445  0.00  0.00    +0.007 C 
BRANCH  21  22
ATOM     22  C   LIG A   1       5.764  -2.888   3.161  0.00  0.00    +0.074 C 
BRANCH  22  23
ATOM     23  C   LIG A   1       5.457  -4.033   4.104  0.00  0.00    +0.130 C 
ATOM     24  C   LIG A   1       6.229  -4.104   5.395  0.00  0.00    +0.086 C 
ATOM     25  O   LIG A   1       4.615  -4.886   3.821  0.00  0.00    -0.298 OA
ENDBRANCH  22  23
ENDBRANCH  21  22
ENDBRANCH  20  21
ENDBRANCH  19  20
ENDBRANCH  18  19
ENDBRANCH  17  18
ENDBRANCH  16  17
ENDBRANCH  15  16
ENDBRANCH  14  15
ENDBRANCH   1  14
TORSDOF 13
