@<TRIPOS>MOLECULE
NuBBE_1527
 30 31 0 0 0
SMALL
GASTEIGER

@<TRIPOS>ATOM
      1 O           2.2078   -4.9132   -2.0940 O.3     1  LIG1       -0.5068
      2 C           1.7399   -3.8823   -1.3353 C.ar    1  LIG1        0.1169
      3 C           1.3609   -4.0672   -0.0107 C.ar    1  LIG1       -0.0195
      4 C           0.9045   -2.9718    0.7303 C.ar    1  LIG1       -0.0478
      5 C           0.8380   -1.6933    0.1511 C.ar    1  LIG1        0.0180
      6 C           0.3879   -0.5510    1.0027 C.2     1  LIG1        0.1676
      7 C           0.9160    0.8536    0.7272 C.3     1  LIG1        0.0402
      8 C          -0.2098    1.8370    0.5674 C.2     1  LIG1        0.0179
      9 C          -0.7052    2.5934    1.5659 C.2     1  LIG1       -0.0740
     10 C          -1.8385    3.5602    1.3574 C.3     1  LIG1       -0.0184
     11 C          -2.6979    3.1096    0.1810 C.3     1  LIG1        0.0153
     12 N          -1.8752    2.7643   -0.9537 N.am    1  LIG1       -0.3113
     13 C          -0.7188    2.0441   -0.8255 C.2     1  LIG1        0.2402
     14 O          -0.1268    1.6096   -1.8017 O.2     1  LIG1       -0.2705
     15 O          -0.3345   -0.7884    1.9729 O.2     1  LIG1       -0.2917
     16 C           1.1927   -1.5342   -1.1922 C.ar    1  LIG1       -0.0478
     17 C           1.6497   -2.6298   -1.9314 C.ar    1  LIG1       -0.0195
     18 H           2.2174   -5.7213   -1.5551 H       1  LIG1        0.2921
     19 H           1.4151   -5.0438    0.4605 H       1  LIG1        0.0654
     20 H           0.6095   -3.1182    1.7681 H       1  LIG1        0.0626
     21 H           1.5909    0.8789   -0.1315 H       1  LIG1        0.0395
     22 H           1.5445    1.1258    1.5850 H       1  LIG1        0.0395
     23 H          -0.3108    2.5015    2.5743 H       1  LIG1        0.0577
     24 H          -1.4214    4.5569    1.1689 H       1  LIG1        0.0323
     25 H          -2.4564    3.6257    2.2590 H       1  LIG1        0.0323
     26 H          -3.3962    3.8946   -0.1245 H       1  LIG1        0.0465
     27 H          -3.2789    2.2182    0.4479 H       1  LIG1        0.0465
     28 H          -2.2449    2.8207   -1.8939 H       1  LIG1        0.1490
     29 H           1.1079   -0.5764   -1.6970 H       1  LIG1        0.0626
     30 H           1.9325   -2.5034   -2.9734 H       1  LIG1        0.0654
@<TRIPOS>BOND
     1     1     2    1
     2     2     3   ar
     3     3     4   ar
     4     4     5   ar
     5     5     6    1
     6     6     7    1
     7     7     8    1
     8     8     9    2
     9     9    10    1
    10    10    11    1
    11    11    12    1
    12    12    13   am
    13     8    13    1
    14    13    14    2
    15     6    15    2
    16     5    16   ar
    17    16    17   ar
    18     2    17   ar
    19     1    18    1
    20     3    19    1
    21     4    20    1
    22     7    21    1
    23     7    22    1
    24     9    23    1
    25    10    24    1
    26    10    25    1
    27    11    26    1
    28    11    27    1
    29    12    28    1
    30    16    29    1
    31    17    30    1
