REMARK  Name = NuBBE_409
REMARK  4 active torsions:
REMARK  status: ('A' for Active; 'I' for Inactive)
REMARK    1  A    between atoms: C_1  and  O_2
REMARK    2  A    between atoms: O_2  and  C_3
REMARK    3  A    between atoms: C_4  and  C_5
REMARK    4  A    between atoms: C_6  and  C_7
REMARK                            x       y       z     vdW  Elec       q    Type
REMARK                         _______ _______ _______ _____ _____    ______ ____
ROOT
ATOM      1  C   LIG A   1       1.814  -0.336  -0.309  0.00  0.00    +0.131 A 
ATOM      2  C   LIG A   1       1.087  -0.418  -1.526  0.00  0.00    +0.021 A 
ATOM      3  C   LIG A   1       1.345   0.498  -2.560  0.00  0.00    +0.061 A 
ATOM      4  C   LIG A   1       2.328   1.446  -2.359  0.00  0.00    +0.167 A 
ATOM      5  O   LIG A   1       2.717   2.396  -3.252  0.00  0.00    -0.453 OA
ATOM      6  C   LIG A   1       3.776   3.046  -2.518  0.00  0.00    +0.466 C 
ATOM      7  O   LIG A   1       3.975   2.500  -1.198  0.00  0.00    -0.453 OA
ATOM      8  C   LIG A   1       3.043   1.508  -1.188  0.00  0.00    +0.170 A 
ATOM      9  C   LIG A   1       2.814   0.635  -0.147  0.00  0.00    +0.095 A 
ENDROOT
BRANCH   1  11
ATOM     10  C   LIG A   1       1.701  -0.843   1.996  0.00  0.00    +0.277 C 
ATOM     11  O   LIG A   1       1.532  -1.280   0.650  0.00  0.00    -0.494 OA
ENDBRANCH   1  11
BRANCH   2  12
ATOM     12  C   LIG A   1       0.096  -1.480  -1.756  0.00  0.00    +0.017 C 
ATOM     13  C   LIG A   1      -1.218  -1.434  -1.491  0.00  0.00    +0.068 C 
BRANCH  13  14
ATOM     14  C   LIG A   1      -1.931  -0.276  -0.901  0.00  0.00    +0.239 C 
ATOM     15  N   LIG A   1      -2.406  -0.481   0.374  0.00  0.00    -0.298 N 
ATOM     16  C   LIG A   1      -2.176  -1.650   1.210  0.00  0.00    +0.108 C 
ATOM     17  C   LIG A   1      -3.080  -1.440   2.414  0.00  0.00    +0.020 C 
ATOM     18  C   LIG A   1      -3.128   0.077   2.543  0.00  0.00    +0.020 C 
ATOM     19  C   LIG A   1      -3.141   0.545   1.092  0.00  0.00    +0.108 C 
ATOM     20  O   LIG A   1      -2.120   0.743  -1.554  0.00  0.00    -0.271 OA
ENDBRANCH  13  14
ENDBRANCH   2  12
TORSDOF 3
