@<TRIPOS>MOLECULE
NuBBE_23
 41 42 0 0 0
SMALL
GASTEIGER

@<TRIPOS>ATOM
      1 O           0.7376   -3.2130    0.3205 O.2     1  LIG1       -0.2709
      2 C           0.3077   -2.0630    0.3283 C.2     1  LIG1        0.2366
      3 N          -0.7885   -1.6307   -0.3745 N.am    1  LIG1       -0.3116
      4 H          -1.0813   -0.6684   -0.2700 H       1  LIG1        0.1490
      5 C          -1.6246   -2.4950   -1.1979 C.3     1  LIG1        0.0142
      6 C          -2.8382   -3.0419   -0.4263 C.3     1  LIG1       -0.0311
      7 C          -3.7314   -1.9140    0.0980 C.3     1  LIG1       -0.0612
      8 C          -3.6667   -3.9818   -1.3076 C.3     1  LIG1       -0.0612
      9 C           0.9550   -0.9794    1.1139 C.2     1  LIG1       -0.0038
     10 C           2.2610   -1.0254    1.4373 C.2     1  LIG1       -0.0788
     11 C           2.9587    0.0697    2.2059 C.3     1  LIG1       -0.0303
     12 C           3.6305    1.1365    1.3218 C.3     1  LIG1       -0.0241
     13 C           2.6512    1.9113    0.4648 C.ar    1  LIG1       -0.0434
     14 C           2.0161    3.0587    0.9656 C.ar    1  LIG1       -0.0130
     15 C           1.0593    3.6667    0.1782 C.ar    1  LIG1        0.1665
     16 O           0.3386    4.7706    0.5142 O.3     1  LIG1       -0.4526
     17 C          -0.4656    4.9412   -0.6717 C.3     1  LIG1        0.2332
     18 O          -0.2594    3.9092   -1.6583 O.3     1  LIG1       -0.4526
     19 C           0.7222    3.1807   -1.0630 C.ar    1  LIG1        0.1662
     20 C           1.3384    2.0725   -1.5984 C.ar    1  LIG1       -0.0159
     21 C           2.3204    1.4420   -0.8290 C.ar    1  LIG1       -0.0549
     22 H          -1.0220   -3.3230   -1.5904 H       1  LIG1        0.0465
     23 H          -1.9572   -1.8940   -2.0530 H       1  LIG1        0.0465
     24 H          -2.4753   -3.6139    0.4364 H       1  LIG1        0.0311
     25 H          -4.1633   -1.3314   -0.7229 H       1  LIG1        0.0233
     26 H          -3.1717   -1.2306    0.7440 H       1  LIG1        0.0233
     27 H          -4.5559   -2.3212    0.6931 H       1  LIG1        0.0233
     28 H          -3.9854   -3.4893   -2.2332 H       1  LIG1        0.0233
     29 H          -4.5679   -4.3179   -0.7818 H       1  LIG1        0.0233
     30 H          -3.0900   -4.8719   -1.5787 H       1  LIG1        0.0233
     31 H           0.3526   -0.1209    1.3891 H       1  LIG1        0.0666
     32 H           2.8626   -1.8791    1.1290 H       1  LIG1        0.0574
     33 H           3.7252   -0.3939    2.8417 H       1  LIG1        0.0311
     34 H           2.2509    0.5482    2.8948 H       1  LIG1        0.0311
     35 H           4.3942    0.6767    0.6824 H       1  LIG1        0.0316
     36 H           4.1689    1.8431    1.9678 H       1  LIG1        0.0316
     37 H           2.2557    3.4619    1.9437 H       1  LIG1        0.0658
     38 H          -0.2236    5.9099   -1.1242 H       1  LIG1        0.1166
     39 H          -1.5225    4.9436   -0.3810 H       1  LIG1        0.1166
     40 H           1.0682    1.6990   -2.5795 H       1  LIG1        0.0655
     41 H           2.8156    0.5582   -1.2289 H       1  LIG1        0.0621
@<TRIPOS>BOND
     1     1     2    2
     2     2     3   am
     3     3     4    1
     4     3     5    1
     5     5     6    1
     6     6     7    1
     7     6     8    1
     8     2     9    1
     9     9    10    2
    10    10    11    1
    11    11    12    1
    12    12    13    1
    13    13    14   ar
    14    14    15   ar
    15    15    16    1
    16    16    17    1
    17    17    18    1
    18    15    19   ar
    19    18    19    1
    20    19    20   ar
    21    20    21   ar
    22    13    21   ar
    23     5    22    1
    24     5    23    1
    25     6    24    1
    26     7    25    1
    27     7    26    1
    28     7    27    1
    29     8    28    1
    30     8    29    1
    31     8    30    1
    32     9    31    1
    33    10    32    1
    34    11    33    1
    35    11    34    1
    36    12    35    1
    37    12    36    1
    38    14    37    1
    39    17    38    1
    40    17    39    1
    41    20    40    1
    42    21    41    1
