@<TRIPOS>MOLECULE
NuBBE_1147
 87 90 0 0 0
SMALL
GASTEIGER

@<TRIPOS>ATOM
      1 C          -4.1270   -2.1348    2.1251 C.3     1  LIG1       -0.0587
      2 C          -2.7138   -1.9737    2.7938 C.3     1  LIG1       -0.0218
      3 C          -1.8188   -1.2397    1.7030 C.3     1  LIG1       -0.0137
      4 H          -2.5514   -0.7738    1.0260 H       1  LIG1        0.0351
      5 C          -1.0495   -2.1645    0.7638 C.2     1  LIG1       -0.0634
      6 C          -0.3135   -1.4921   -0.4321 C.3     1  LIG1       -0.0051
      7 C           0.1233    0.0121   -0.1689 C.3     1  LIG1       -0.0198
      8 C          -0.8842    1.0667   -0.6531 C.3     1  LIG1       -0.0585
      9 C           1.5559    0.1887   -0.8035 C.3     1  LIG1       -0.0298
     10 H           2.1459    0.8139   -0.1191 H       1  LIG1        0.0310
     11 C           1.8257    0.8218   -2.2256 C.3     1  LIG1       -0.0119
     12 H           2.9089    0.6817   -2.3694 H       1  LIG1        0.0327
     13 C           1.1676    0.0772   -3.3842 C.3     1  LIG1       -0.0597
     14 C           1.6304    2.3786   -2.2922 C.3     1  LIG1        0.0864
     15 O           2.3106    2.9339   -1.1582 O.3     1  LIG1       -0.3889
     16 C           2.1231    3.0635   -3.6197 C.3     1  LIG1        0.1097
     17 O           1.4123    2.5322   -4.7336 O.3     1  LIG1       -0.3866
     18 C           1.9255    4.6103   -3.5844 C.3     1  LIG1        0.1115
     19 O           2.6879    5.1295   -2.4726 O.3     1  LIG1       -0.3863
     20 C           2.3511    5.4025   -4.8635 C.3     1  LIG1        0.0888
     21 O           3.7539    5.1646   -5.0734 O.3     1  LIG1       -0.3865
     22 C           1.5926    5.0213   -6.1383 C.3     1  LIG1       -0.0338
     23 C           2.1758    6.9148   -4.6324 C.3     1  LIG1       -0.0338
     24 C           2.1620   -1.2164   -0.6795 C.3     1  LIG1       -0.0486
     25 C           1.0209   -2.2202   -0.7745 C.3     1  LIG1       -0.0431
     26 C           0.2927    0.1944    1.3735 C.3     1  LIG1       -0.0460
     27 C          -0.9934   -0.0232    2.1661 C.3     1  LIG1       -0.0455
     28 C          -1.2991   -1.6477   -1.6172 C.3     1  LIG1       -0.0553
     29 C          -1.1418   -3.5040    0.8677 C.2     1  LIG1       -0.0836
     30 C          -1.9357   -4.2386    1.8986 C.3     1  LIG1       -0.0306
     31 C          -2.2006   -3.4131    3.1676 C.3     1  LIG1       -0.0242
     32 H          -3.0726   -3.9063    3.6253 H       1  LIG1        0.0315
     33 C          -1.0646   -3.5095    4.2738 C.3     1  LIG1       -0.0053
     34 C           0.2702   -4.1282    3.7822 C.3     1  LIG1       -0.0572
     35 C          -0.7194   -2.1279    4.8711 C.3     1  LIG1        0.0606
     36 C          -1.9314   -1.2658    5.1910 C.3     1  LIG1       -0.0258
     37 C          -2.9765   -1.1610    4.0845 C.3     1  LIG1       -0.0444
     38 H          -0.0611   -1.6150    4.1682 H       1  LIG1        0.0599
     39 O           0.0563   -2.2647    6.0665 O.3     1  LIG1       -0.3912
     40 C          -1.5814   -4.4572    5.3918 C.3     1  LIG1       -0.0572
     41 H          -4.0706   -2.6170    1.1436 H       1  LIG1        0.0235
     42 H          -4.6000   -1.1562    1.9767 H       1  LIG1        0.0235
     43 H          -4.8030   -2.7311    2.7485 H       1  LIG1        0.0235
     44 H          -0.9934    1.0711   -1.7389 H       1  LIG1        0.0235
     45 H          -0.5785    2.0701   -0.3370 H       1  LIG1        0.0235
     46 H          -1.8872    0.9054   -0.2492 H       1  LIG1        0.0235
     47 H           1.7331    0.2219   -4.3093 H       1  LIG1        0.0233
     48 H           0.1450    0.4203   -3.5594 H       1  LIG1        0.0233
     49 H           1.1614   -1.0021   -3.2344 H       1  LIG1        0.0233
     50 H           0.5692    2.6143   -2.1863 H       1  LIG1        0.0623
     51 H           2.3539    3.9057   -1.2869 H       1  LIG1        0.2099
     52 H           3.1937    2.8452   -3.7289 H       1  LIG1        0.0646
     53 H           2.0833    2.2494   -5.3812 H       1  LIG1        0.2100
     54 H           0.8687    4.8236   -3.3821 H       1  LIG1        0.0649
     55 H           3.6073    5.1938   -2.8096 H       1  LIG1        0.2100
     56 H           4.0182    5.6572   -5.8721 H       1  LIG1        0.2102
     57 H           1.9134    4.0560   -6.5377 H       1  LIG1        0.0258
     58 H           1.8029    5.7368   -6.9430 H       1  LIG1        0.0258
     59 H           0.5103    5.0110   -5.9751 H       1  LIG1        0.0258
     60 H           2.7946    7.2731   -3.8029 H       1  LIG1        0.0258
     61 H           1.1304    7.1665   -4.4256 H       1  LIG1        0.0258
     62 H           2.4992    7.4850   -5.5114 H       1  LIG1        0.0258
     63 H           2.6447   -1.3198    0.3010 H       1  LIG1        0.0268
     64 H           2.9395   -1.4221   -1.4225 H       1  LIG1        0.0268
     65 H           1.2546   -3.0522   -0.1015 H       1  LIG1        0.0274
     66 H           0.9890   -2.6516   -1.7815 H       1  LIG1        0.0274
     67 H           0.6736    1.1995    1.5978 H       1  LIG1        0.0271
     68 H           1.0480   -0.5031    1.7597 H       1  LIG1        0.0271
     69 H          -1.6227    0.8730    2.0761 H       1  LIG1        0.0271
     70 H          -0.7260   -0.0430    3.2179 H       1  LIG1        0.0271
     71 H          -2.2697   -1.1852   -1.4036 H       1  LIG1        0.0238
     72 H          -1.4931   -2.7041   -1.8413 H       1  LIG1        0.0238
     73 H          -0.9266   -1.2045   -2.5380 H       1  LIG1        0.0238
     74 H          -0.6710   -4.1453    0.1242 H       1  LIG1        0.0572
     75 H          -1.4570   -5.1922    2.1373 H       1  LIG1        0.0310
     76 H          -2.8883   -4.5277    1.4363 H       1  LIG1        0.0310
     77 H           0.7004   -3.5538    2.9560 H       1  LIG1        0.0236
     78 H           0.1562   -5.1691    3.4647 H       1  LIG1        0.0236
     79 H           1.0199   -4.1397    4.5826 H       1  LIG1        0.0236
     80 H          -1.5918   -0.2581    5.4652 H       1  LIG1        0.0290
     81 H          -2.4135   -1.6364    6.1057 H       1  LIG1        0.0290
     82 H          -3.1537   -0.1060    3.8398 H       1  LIG1        0.0272
     83 H          -3.9239   -1.4984    4.5298 H       1  LIG1        0.0272
     84 H           0.3491   -1.3741    6.3255 H       1  LIG1        0.2098
     85 H          -2.4806   -4.0564    5.8722 H       1  LIG1        0.0236
     86 H          -0.8313   -4.6180    6.1739 H       1  LIG1        0.0236
     87 H          -1.8345   -5.4418    4.9811 H       1  LIG1        0.0236
@<TRIPOS>BOND
     1     2     3    1
     2     3     5    1
     3     5     6    1
     4     6     7    1
     5     7     9    1
     6    11    12    1
     7    11    13    1
     8    11    14    1
     9    14    15    1
    10    14    16    1
    11    16    17    1
    12    16    18    1
    13    18    19    1
    14    18    20    1
    15    20    21    1
    16    20    22    1
    17    20    23    1
    18     9    24    1
    19    24    25    1
    20     7    26    1
    21    26    27    1
    22     3    27    1
    23    25     6    1
    24     5    29    2
    25    29    30    1
    26    30    31    1
    27     2    31    1
    28    31    33    1
    29    33    35    1
    30    35    36    1
    31    36    37    1
    32     2    37    1
    33     1     2    1
    34     3     4    1
    35     6    28    1
    36     7     8    1
    37     9    10    1
    38     9    11    1
    39    31    32    1
    40    33    34    1
    41    33    40    1
    42    35    38    1
    43    35    39    1
    44     1    41    1
    45     1    42    1
    46     1    43    1
    47     8    44    1
    48     8    45    1
    49     8    46    1
    50    13    47    1
    51    13    48    1
    52    13    49    1
    53    14    50    1
    54    15    51    1
    55    16    52    1
    56    17    53    1
    57    18    54    1
    58    19    55    1
    59    21    56    1
    60    22    57    1
    61    22    58    1
    62    22    59    1
    63    23    60    1
    64    23    61    1
    65    23    62    1
    66    24    63    1
    67    24    64    1
    68    25    65    1
    69    25    66    1
    70    26    67    1
    71    26    68    1
    72    27    69    1
    73    27    70    1
    74    28    71    1
    75    28    72    1
    76    28    73    1
    77    29    74    1
    78    30    75    1
    79    30    76    1
    80    34    77    1
    81    34    78    1
    82    34    79    1
    83    36    80    1
    84    36    81    1
    85    37    82    1
    86    37    83    1
    87    39    84    1
    88    40    85    1
    89    40    86    1
    90    40    87    1
