REMARK  Name = NuBBE_1301
REMARK  14 active torsions:
REMARK  status: ('A' for Active; 'I' for Inactive)
REMARK    1  A    between atoms: C_2  and  C_3
REMARK    2  A    between atoms: C_2  and  C_18
REMARK    3  A    between atoms: C_6  and  C_7
REMARK    4  A    between atoms: C_6  and  C_8
REMARK    5  A    between atoms: C_12  and  O_13
REMARK    6  A    between atoms: O_13  and  C_14
REMARK    7  A    between atoms: C_16  and  O_17
REMARK    8  A    between atoms: C_19  and  C_20
REMARK    9  A    between atoms: C_22  and  O_23
REMARK   10  A    between atoms: O_23  and  C_24
REMARK   11  A    between atoms: C_25  and  O_26
REMARK   12  A    between atoms: O_26  and  C_27
REMARK   13  A    between atoms: C_28  and  O_29
REMARK   14  A    between atoms: O_29  and  C_30
REMARK                            x       y       z     vdW  Elec       q    Type
REMARK                         _______ _______ _______ _____ _____    ______ ____
ROOT
ATOM      1  O   LIG A   1      -1.320   1.225   1.772  0.00  0.00    -0.287 OA
ATOM      2  C   LIG A   1      -0.464   0.531   1.246  0.00  0.00    +0.193 C 
ENDROOT
BRANCH   2   3
ATOM      3  C   LIG A   1       0.360  -0.487   2.012  0.00  0.00    +0.105 A 
ATOM      4  C   LIG A   1      -0.245  -1.203   3.077  0.00  0.00    +0.147 A 
ATOM      5  O   LIG A   1      -1.572  -0.979   3.351  0.00  0.00    -0.481 OA
ATOM      6  C   LIG A   1      -2.057  -1.287   4.673  0.00  0.00    +0.123 C 
ATOM      7  C   LIG A   1      -1.942  -0.030   5.545  0.00  0.00    +0.060 C 
ATOM      8  C   LIG A   1      -3.536  -1.649   4.494  0.00  0.00    +0.060 C 
ATOM      9  C   LIG A   1      -1.342  -2.445   5.323  0.00  0.00    +0.020 C 
ATOM     10  C   LIG A   1      -0.158  -2.887   4.892  0.00  0.00    +0.015 C 
ATOM     11  C   LIG A   1       0.490  -2.175   3.788  0.00  0.00    +0.059 A 
ATOM     12  C   LIG A   1       1.832  -2.430   3.446  0.00  0.00    +0.134 A 
ATOM     13  C   LIG A   1       2.429  -1.693   2.424  0.00  0.00    +0.092 A 
ATOM     14  C   LIG A   1       1.700  -0.719   1.732  0.00  0.00    +0.135 A 
BRANCH  12  15
ATOM     15  O   LIG A   1       2.481  -3.433   4.124  0.00  0.00    -0.494 OA
ATOM     16  C   LIG A   1       3.897  -3.316   4.228  0.00  0.00    +0.277 C 
ENDBRANCH  12  15
BRANCH  14  17
ATOM     17  O   LIG A   1       2.358   0.013   0.780  0.00  0.00    -0.506 OA
ATOM     18  H   LIG A   1       3.248  -0.351   0.634  0.00  0.00    +0.292 HD
ENDBRANCH  14  17
ENDBRANCH   2   3
BRANCH   2  19
ATOM     19  C   LIG A   1      -0.189   0.628  -0.226  0.00  0.00    +0.052 C 
ATOM     20  C   LIG A   1      -0.608   1.682  -0.956  0.00  0.00    +0.012 C 
BRANCH  20  21
ATOM     21  C   LIG A   1      -0.386   1.843  -2.408  0.00  0.00    -0.018 A 
ATOM     22  C   LIG A   1      -1.131   2.782  -3.131  0.00  0.00    +0.057 A 
ATOM     23  C   LIG A   1      -0.914   2.964  -4.506  0.00  0.00    +0.166 A 
ATOM     24  C   LIG A   1       0.092   2.233  -5.177  0.00  0.00    +0.203 A 
ATOM     25  C   LIG A   1       0.836   1.278  -4.464  0.00  0.00    +0.166 A 
ATOM     26  C   LIG A   1       0.589   1.106  -3.094  0.00  0.00    +0.057 A 
BRANCH  23  27
ATOM     27  O   LIG A   1      -1.631   3.859  -5.268  0.00  0.00    -0.491 OA
ATOM     28  C   LIG A   1      -2.965   4.122  -4.851  0.00  0.00    +0.277 C 
ENDBRANCH  23  27
BRANCH  24  29
ATOM     29  O   LIG A   1       0.273   2.580  -6.495  0.00  0.00    -0.488 OA
ATOM     30  C   LIG A   1       0.733   1.574  -7.384  0.00  0.00    +0.277 C 
ENDBRANCH  24  29
BRANCH  25  31
ATOM     31  O   LIG A   1       1.848   0.598  -5.095  0.00  0.00    -0.491 OA
ATOM     32  C   LIG A   1       2.135  -0.710  -4.604  0.00  0.00    +0.277 C 
ENDBRANCH  25  31
ENDBRANCH  20  21
ENDBRANCH   2  19
TORSDOF 8
