@<TRIPOS>MOLECULE
NuBBE_1983
 41 42 0 0 0
SMALL
GASTEIGER

@<TRIPOS>ATOM
      1 C           1.4807   -1.8760    1.4578 C.3     1  LIG1       -0.0273
      2 C           1.3988   -0.3482    1.5635 C.3     1  LIG1       -0.0451
      3 C          -0.0406    0.1800    1.6252 C.3     1  LIG1       -0.0272
      4 C          -0.1170    1.6828    1.7388 C.ar    1  LIG1       -0.0405
      5 C          -0.7661    2.4368    0.7466 C.ar    1  LIG1       -0.0165
      6 C          -0.8650    3.8258    0.8629 C.ar    1  LIG1        0.1238
      7 O          -1.4544    4.6497   -0.0580 O.3     1  LIG1       -0.4950
      8 C          -2.5606    4.0922   -0.7607 C.3     1  LIG1        0.0788
      9 C          -0.2888    4.4719    1.9575 C.ar    1  LIG1        0.0215
     10 C           0.3544    3.7243    2.9388 C.ar    1  LIG1        0.1206
     11 C           0.4384    2.3423    2.8414 C.ar    1  LIG1       -0.0168
     12 O           0.9214    4.3166    4.0270 O.3     1  LIG1       -0.5066
     13 C           0.8652   -2.4197    0.1925 C.ar    1  LIG1       -0.0437
     14 C           1.6286   -2.5276   -0.9754 C.ar    1  LIG1       -0.0133
     15 C           1.0505   -2.9826   -2.1680 C.ar    1  LIG1        0.1587
     16 O           1.8517   -3.0761   -3.2728 O.3     1  LIG1       -0.5033
     17 C          -0.3058   -3.3224   -2.2159 C.ar    1  LIG1        0.1613
     18 C          -1.0622   -3.2160   -1.0438 C.ar    1  LIG1       -0.0161
     19 C          -0.4859   -2.7792    0.1500 C.ar    1  LIG1       -0.0549
     20 O          -1.0390   -3.7590   -3.2853 O.3     1  LIG1       -0.4915
     21 C          -0.3785   -3.9051   -4.5329 C.3     1  LIG1        0.0790
     22 H           1.0025   -2.3404    2.3307 H       1  LIG1        0.0313
     23 H           2.5331   -2.1785    1.5010 H       1  LIG1        0.0313
     24 H           1.9266    0.1148    0.7207 H       1  LIG1        0.0272
     25 H           1.9383   -0.0489    2.4704 H       1  LIG1        0.0272
     26 H          -0.5717   -0.2630    2.4772 H       1  LIG1        0.0313
     27 H          -0.5875   -0.1249    0.7271 H       1  LIG1        0.0313
     28 H          -1.1692    1.9224   -0.1202 H       1  LIG1        0.0657
     29 H          -2.9873    4.8824   -1.3865 H       1  LIG1        0.0660
     30 H          -3.3372    3.7590   -0.0640 H       1  LIG1        0.0660
     31 H          -2.2539    3.2809   -1.4271 H       1  LIG1        0.0660
     32 H          -0.3640    5.5518    2.0310 H       1  LIG1        0.0691
     33 H           0.9445    1.7874    3.6271 H       1  LIG1        0.0657
     34 H           0.7964    5.2762    3.9542 H       1  LIG1        0.2921
     35 H           2.6777   -2.2450   -0.9467 H       1  LIG1        0.0658
     36 H           2.7630   -2.8517   -3.0245 H       1  LIG1        0.2923
     37 H          -2.1191   -3.4723   -1.0643 H       1  LIG1        0.0655
     38 H          -1.1095   -2.6956    1.0374 H       1  LIG1        0.0621
     39 H          -1.1210   -4.2380   -5.2624 H       1  LIG1        0.0660
     40 H           0.3949   -4.6789   -4.4805 H       1  LIG1        0.0660
     41 H           0.0175   -2.9482   -4.8896 H       1  LIG1        0.0660
@<TRIPOS>BOND
     1     1     2    1
     2     2     3    1
     3     3     4    1
     4     4     5   ar
     5     5     6   ar
     6     6     7    1
     7     7     8    1
     8     6     9   ar
     9     9    10   ar
    10    10    11   ar
    11     4    11   ar
    12    10    12    1
    13     1    13    1
    14    13    14   ar
    15    14    15   ar
    16    15    16    1
    17    15    17   ar
    18    17    18   ar
    19    18    19   ar
    20    13    19   ar
    21    17    20    1
    22    20    21    1
    23     1    22    1
    24     1    23    1
    25     2    24    1
    26     2    25    1
    27     3    26    1
    28     3    27    1
    29     5    28    1
    30     8    29    1
    31     8    30    1
    32     8    31    1
    33     9    32    1
    34    11    33    1
    35    12    34    1
    36    14    35    1
    37    16    36    1
    38    18    37    1
    39    19    38    1
    40    21    39    1
    41    21    40    1
    42    21    41    1
