REMARK  Name = NuBBE_1016
REMARK  8 active torsions:
REMARK  status: ('A' for Active; 'I' for Inactive)
REMARK    1  A    between atoms: O_1  and  C_2
REMARK    2  A    between atoms: C_2  and  C_3
REMARK    3  A    between atoms: C_3  and  C_4
REMARK    4  A    between atoms: C_4  and  C_5
REMARK    5  A    between atoms: C_10  and  C_11
REMARK    6  A    between atoms: C_10  and  C_13
REMARK    7  A    between atoms: C_14  and  O_15
REMARK    8  A    between atoms: O_15  and  C_16
REMARK                            x       y       z     vdW  Elec       q    Type
REMARK                         _______ _______ _______ _____ _____    ______ ____
ROOT
ATOM      1  C   LIG A   1      -0.067  -1.411   0.100  0.00  0.00    -0.004 A 
ATOM      2  C   LIG A   1      -0.149  -0.018   0.270  0.00  0.00    +0.136 A 
ATOM      3  C   LIG A   1       0.464   0.608   1.368  0.00  0.00    +0.058 A 
ATOM      4  C   LIG A   1       0.328   2.055   1.519  0.00  0.00    +0.015 C 
ATOM      5  C   LIG A   1      -0.360   2.737   0.599  0.00  0.00    +0.020 C 
ATOM      6  C   LIG A   1      -1.003   2.088  -0.599  0.00  0.00    +0.123 C 
ATOM      7  C   LIG A   1      -0.387   2.662  -1.880  0.00  0.00    +0.060 C 
ATOM      8  O   LIG A   1      -0.852   0.658  -0.693  0.00  0.00    -0.481 OA
ATOM      9  C   LIG A   1      -2.511   2.362  -0.582  0.00  0.00    +0.060 C 
ATOM     10  C   LIG A   1       1.186  -0.169   2.300  0.00  0.00    +0.131 A 
ATOM     11  C   LIG A   1       1.272  -1.553   2.118  0.00  0.00    +0.046 A 
ATOM     12  C   LIG A   1       0.653  -2.167   1.030  0.00  0.00    +0.011 A 
ENDROOT
BRANCH  10  13
ATOM     13  O   LIG A   1       1.774   0.498   3.349  0.00  0.00    -0.494 OA
ATOM     14  C   LIG A   1       2.528  -0.283   4.271  0.00  0.00    +0.277 C 
ENDBRANCH  10  13
BRANCH   1  15
ATOM     15  C   LIG A   1      -0.713  -2.112  -1.071  0.00  0.00    +0.050 C 
BRANCH  15  16
ATOM     16  C   LIG A   1       0.231  -2.201  -2.263  0.00  0.00    +0.125 C 
BRANCH  16  17
ATOM     17  C   LIG A   1      -0.452  -2.907  -3.400  0.00  0.00    +0.305 C 
ATOM     18  O   LIG A   1      -0.429  -4.120  -3.567  0.00  0.00    -0.251 OA
BRANCH  17  19
ATOM     19  O   LIG A   1      -1.136  -2.074  -4.216  0.00  0.00    -0.481 OA
ATOM     20  H   LIG A   1      -1.086  -1.131  -3.952  0.00  0.00    +0.295 HD
ENDBRANCH  17  19
ENDBRANCH  16  17
ENDBRANCH  15  16
ENDBRANCH   1  15
TORSDOF 5
