REMARK  Name = NuBBE_399
REMARK  4 active torsions:
REMARK  status: ('A' for Active; 'I' for Inactive)
REMARK    1  A    between atoms: C_1  and  C_2
REMARK    2  A    between atoms: C_2  and  S_3
REMARK    3  A    between atoms: S_3  and  C_4
REMARK    4  A    between atoms: C_4  and  C_5
REMARK                            x       y       z     vdW  Elec       q    Type
REMARK                         _______ _______ _______ _____ _____    ______ ____
ROOT
ATOM      1  S   LIG A   1       1.047   2.261   0.358  0.00  0.00    -0.151 S 
ENDROOT
BRANCH   1   2
ATOM      2  C   LIG A   1       1.701   0.561   0.459  0.00  0.00    +0.104 C 
BRANCH   2   3
ATOM      3  C   LIG A   1       1.096  -0.278   1.558  0.00  0.00    -0.037 A 
ATOM      4  C   LIG A   1       1.256   0.085   2.904  0.00  0.00    +0.004 A 
ATOM      5  C   LIG A   1       0.708  -0.701   3.921  0.00  0.00    +0.000 A 
ATOM      6  C   LIG A   1      -0.010  -1.848   3.605  0.00  0.00    +0.000 A 
ATOM      7  C   LIG A   1      -0.163  -2.228   2.276  0.00  0.00    +0.000 A 
ATOM      8  C   LIG A   1       0.396  -1.454   1.260  0.00  0.00    +0.004 A 
ENDBRANCH   2   3
ENDBRANCH   1   2
BRANCH   1   9
ATOM      9  C   LIG A   1      -0.671   1.957  -0.182  0.00  0.00    +0.104 C 
BRANCH   9  10
ATOM     10  C   LIG A   1      -0.782   1.181  -1.470  0.00  0.00    -0.037 A 
ATOM     11  C   LIG A   1      -0.284   1.708  -2.671  0.00  0.00    +0.004 A 
ATOM     12  C   LIG A   1      -0.317   0.954  -3.844  0.00  0.00    +0.000 A 
ATOM     13  C   LIG A   1      -0.844  -0.335  -3.832  0.00  0.00    +0.000 A 
ATOM     14  C   LIG A   1      -1.377  -0.856  -2.654  0.00  0.00    +0.000 A 
ATOM     15  C   LIG A   1      -1.367  -0.093  -1.486  0.00  0.00    +0.004 A 
ENDBRANCH   9  10
ENDBRANCH   1   9
TORSDOF 4
