@<TRIPOS>MOLECULE
NuBBE_1220
 44 46 0 0 0
SMALL
GASTEIGER

@<TRIPOS>ATOM
      1 O          -3.7675    0.5153    0.1491 O.2     1  LIG1       -0.2869
      2 C          -2.5345    0.4858    0.1828 C.ar    1  LIG1        0.1967
      3 C          -1.8142   -0.7853    0.2119 C.ar    1  LIG1        0.0288
      4 C          -0.4785   -0.7413    0.2379 C.ar    1  LIG1        0.1393
      5 O           0.2939    0.4057    0.2073 O.2     1  LIG1       -0.4543
      6 C          -0.3564    1.6152    0.1867 C.ar    1  LIG1        0.1465
      7 C          -1.7373    1.7328    0.2011 C.ar    1  LIG1        0.1091
      8 C          -2.3581    2.9854    0.2393 C.ar    1  LIG1        0.1768
      9 O          -3.7248    3.0747    0.2657 O.3     1  LIG1       -0.5027
     10 C          -1.5645    4.1558    0.2477 C.ar    1  LIG1        0.2043
     11 O          -2.0284    5.4491    0.3138 O.3     1  LIG1       -0.4885
     12 C          -3.4318    5.6616    0.4143 C.3     1  LIG1        0.0791
     13 C          -0.1545    4.0263    0.1670 C.ar    1  LIG1        0.1687
     14 O           0.5844    5.1883    0.1373 O.3     1  LIG1       -0.4912
     15 C           1.8593    5.1122   -0.4973 C.3     1  LIG1        0.0790
     16 C           0.4412    2.7584    0.1602 C.ar    1  LIG1        0.0270
     17 C           0.2963   -1.9791    0.3001 C.ar    1  LIG1        0.0211
     18 C           0.6523   -2.5270    1.5314 C.ar    1  LIG1       -0.0474
     19 C           1.3934   -3.7090    1.5837 C.ar    1  LIG1       -0.0156
     20 C           1.7881   -4.3558    0.4059 C.ar    1  LIG1        0.1615
     21 C           1.4420   -3.7941   -0.8417 C.ar    1  LIG1        0.1622
     22 O           1.8864   -4.4470   -1.9669 O.3     1  LIG1       -0.4914
     23 C           1.5591   -3.8622   -3.2236 C.3     1  LIG1        0.0790
     24 C           0.6832   -2.6175   -0.8808 C.ar    1  LIG1       -0.0056
     25 O           2.5020   -5.5296    0.3810 O.3     1  LIG1       -0.4915
     26 C           2.8081   -6.1333    1.6332 C.3     1  LIG1        0.0790
     27 H          -2.3981   -1.6889    0.2050 H       1  LIG1        0.0693
     28 H          -4.1142    2.1710    0.2219 H       1  LIG1        0.2923
     29 H          -3.6132    6.7394    0.4583 H       1  LIG1        0.0660
     30 H          -3.8367    5.2312    1.3374 H       1  LIG1        0.0660
     31 H          -3.9504    5.2931   -0.4770 H       1  LIG1        0.0660
     32 H           2.2041    6.1333   -0.6886 H       1  LIG1        0.0660
     33 H           1.8023    4.5956   -1.4624 H       1  LIG1        0.0660
     34 H           2.5953    4.6338    0.1575 H       1  LIG1        0.0660
     35 H           1.5194    2.6381    0.1507 H       1  LIG1        0.0692
     36 H           0.3597   -2.0407    2.4593 H       1  LIG1        0.0626
     37 H           1.6493   -4.0963    2.5641 H       1  LIG1        0.0655
     38 H           2.0567   -4.4358   -4.0106 H       1  LIG1        0.0660
     39 H           1.9213   -2.8301   -3.2954 H       1  LIG1        0.0660
     40 H           0.4794   -3.9127   -3.4023 H       1  LIG1        0.0660
     41 H           0.3828   -2.1692   -1.8221 H       1  LIG1        0.0662
     42 H           3.2568   -7.1124    1.4402 H       1  LIG1        0.0660
     43 H           1.9070   -6.3031    2.2331 H       1  LIG1        0.0660
     44 H           3.5392   -5.5315    2.1838 H       1  LIG1        0.0660
@<TRIPOS>BOND
     1     1     2    2
     2     2     3   ar
     3     3     4   ar
     4     4     5   ar
     5     5     6   ar
     6     6     7   ar
     7     2     7   ar
     8     7     8   ar
     9     8     9    1
    10     8    10   ar
    11    10    11    1
    12    11    12    1
    13    10    13   ar
    14    13    14    1
    15    14    15    1
    16    13    16   ar
    17     6    16   ar
    18     4    17    1
    19    17    18   ar
    20    18    19   ar
    21    19    20   ar
    22    20    21   ar
    23    21    22    1
    24    22    23    1
    25    21    24   ar
    26    17    24   ar
    27    20    25    1
    28    25    26    1
    29     3    27    1
    30     9    28    1
    31    12    29    1
    32    12    30    1
    33    12    31    1
    34    15    32    1
    35    15    33    1
    36    15    34    1
    37    16    35    1
    38    18    36    1
    39    19    37    1
    40    23    38    1
    41    23    39    1
    42    23    40    1
    43    24    41    1
    44    26    42    1
    45    26    43    1
    46    26    44    1
