REMARK  Name = NuBBE_2200
REMARK  8 active torsions:
REMARK  status: ('A' for Active; 'I' for Inactive)
REMARK    1  A    between atoms: C_1  and  C_2
REMARK    2  A    between atoms: C_8  and  C_9
REMARK    3  A    between atoms: C_8  and  C_11
REMARK    4  A    between atoms: C_12  and  O_14
REMARK    5  A    between atoms: O_14  and  C_15
REMARK    6  A    between atoms: C_15  and  C_16
REMARK    7  A    between atoms: C_23  and  C_24
REMARK    8  A    between atoms: C_23  and  C_25
REMARK                            x       y       z     vdW  Elec       q    Type
REMARK                         _______ _______ _______ _____ _____    ______ ____
ROOT
ATOM      1  C   LIG A   1      -1.875  -0.469   1.450  0.00  0.00    +0.016 C 
ATOM      2  C   LIG A   1      -0.507   0.205   1.201  0.00  0.00    +0.000 C 
ATOM      3  C   LIG A   1      -0.605   1.774   1.164  0.00  0.00    +0.012 C 
ATOM      4  C   LIG A   1      -1.298   2.250  -0.113  0.00  0.00    +0.084 C 
ATOM      5  C   LIG A   1      -0.442   1.837  -1.284  0.00  0.00    +0.160 C 
ATOM      6  C   LIG A   1       0.196   0.484  -1.247  0.00  0.00    +0.003 C 
ATOM      7  C   LIG A   1       0.959   0.106  -2.490  0.00  0.00    +0.053 C 
ATOM      8  C   LIG A   1       1.796  -1.190  -2.334  0.00  0.00    +0.034 C 
ATOM      9  C   LIG A   1       2.241  -1.630  -3.743  0.00  0.00    +0.020 C 
ATOM     10  C   LIG A   1       0.884  -2.250  -1.677  0.00  0.00    +0.256 C 
ATOM     11  C   LIG A   1       0.039  -0.293  -0.155  0.00  0.00    +0.011 C 
ATOM     12  C   LIG A   1       0.427  -1.748  -0.305  0.00  0.00    +0.201 C 
ATOM     13  O   LIG A   1       0.297  -2.532   0.636  0.00  0.00    -0.288 OA
ATOM     14  O   LIG A   1      -0.328   2.550  -2.279  0.00  0.00    -0.292 OA
ATOM     15  C   LIG A   1      -1.101   2.461   2.482  0.00  0.00    -0.031 C 
ATOM     16  C   LIG A   1      -0.568   3.919   2.506  0.00  0.00    +0.011 C 
ATOM     17  C   LIG A   1      -2.634   2.566   2.611  0.00  0.00    +0.011 C 
ATOM     18  C   LIG A   1      -0.533   1.711   3.717  0.00  0.00    +0.007 C 
ATOM     19  C   LIG A   1       0.731   0.924   3.391  0.00  0.00    +0.001 C 
ATOM     20  C   LIG A   1       0.480  -0.177   2.354  0.00  0.00    +0.012 C 
ENDROOT
BRANCH   8  21
ATOM     21  C   LIG A   1       3.067  -0.921  -1.510  0.00  0.00    -0.024 C 
ATOM     22  C   LIG A   1       3.694  -1.790  -0.702  0.00  0.00    +0.004 C 
ENDBRANCH   8  21
BRANCH  10  23
ATOM     23  O   LIG A   1      -0.324  -2.457  -2.436  0.00  0.00    -0.453 OA
BRANCH  23  24
ATOM     24  C   LIG A   1      -0.522  -3.709  -2.922  0.00  0.00    +0.305 C 
ATOM     25  C   LIG A   1      -1.865  -3.795  -3.575  0.00  0.00    +0.136 C 
ATOM     26  O   LIG A   1       0.276  -4.638  -2.859  0.00  0.00    -0.251 OA
ENDBRANCH  23  24
ENDBRANCH  10  23
TORSDOF 3
