@<TRIPOS>MOLECULE
NuBBE_324
 64 66 0 0 0
SMALL
GASTEIGER

@<TRIPOS>ATOM
      1 O           0.4483   -2.4852   -6.6155 O.2     1  LIG1       -0.5030
      2 C          -0.3333   -3.0419   -5.6495 C.2     1  LIG1        0.1687
      3 C          -0.1408   -3.1144   -4.3277 C.2     1  LIG1        0.0819
      4 C          -1.2791   -3.9132   -3.9179 C.2     1  LIG1        0.3441
      5 O          -2.0760   -4.3289   -4.9187 O.3     1  LIG1       -0.4193
      6 C          -1.5358   -3.6894   -6.0222 C.2     1  LIG1        0.1666
      7 C          -2.1598   -3.6383   -7.1997 C.2     1  LIG1       -0.0524
      8 O          -1.5063   -4.2108   -2.6872 O.2     1  LIG1       -0.2447
      9 C           0.9497   -2.6769   -3.3942 C.3     1  LIG1       -0.0173
     10 C           0.7263   -1.2679   -2.8472 C.3     1  LIG1       -0.0487
     11 C           1.7201   -0.8181   -1.7784 C.3     1  LIG1       -0.0528
     12 C           1.5417    0.6431   -1.3624 C.3     1  LIG1       -0.0530
     13 C           0.2539    0.9911   -0.5882 C.3     1  LIG1       -0.0531
     14 C          -1.0817    0.9224   -1.2917 C.3     1  LIG1       -0.0531
     15 C          -2.3518    1.3253   -0.5219 C.3     1  LIG1       -0.0531
     16 C          -2.8724    0.3968    0.6165 C.3     1  LIG1       -0.0531
     17 C          -2.0716    0.4721    1.9150 C.3     1  LIG1       -0.0531
     18 C          -2.6232   -0.1926    3.1847 C.3     1  LIG1       -0.0530
     19 C          -1.6726   -0.1531    4.4188 C.3     1  LIG1       -0.0528
     20 C          -1.3400    1.2131    5.0499 C.3     1  LIG1       -0.0491
     21 C          -0.6129    2.2495    4.1957 C.3     1  LIG1       -0.0276
     22 C           0.7511    1.9758    3.5937 C.ar    1  LIG1       -0.0437
     23 C           0.8307    2.1270    2.2056 C.ar    1  LIG1       -0.0549
     24 C           2.0389    2.1643    1.5191 C.ar    1  LIG1       -0.0159
     25 C           3.1820    1.9436    2.2050 C.ar    1  LIG1        0.1662
     26 C           3.1605    1.8001    3.5632 C.ar    1  LIG1        0.1665
     27 O           4.4375    1.7384    4.0425 O.3     1  LIG1       -0.4526
     28 C           5.2062    1.7215    2.8082 C.3     1  LIG1        0.2332
     29 O           4.4090    1.9316    1.6381 O.3     1  LIG1       -0.4526
     30 C           1.9627    1.8243    4.2902 C.ar    1  LIG1       -0.0130
     31 H           0.7191   -1.5990   -6.3247 H       1  LIG1        0.2923
     32 H          -3.1058   -4.1473   -7.3659 H       1  LIG1        0.0572
     33 H          -1.7652   -3.0428   -8.0188 H       1  LIG1        0.0572
     34 H           1.9266   -2.7481   -3.8695 H       1  LIG1        0.0317
     35 H           0.9653   -3.3661   -2.5378 H       1  LIG1        0.0317
     36 H          -0.2575   -1.3077   -2.3984 H       1  LIG1        0.0268
     37 H           0.7113   -0.5273   -3.6548 H       1  LIG1        0.0268
     38 H           2.7468   -0.9255   -2.1510 H       1  LIG1        0.0265
     39 H           1.6495   -1.4496   -0.8828 H       1  LIG1        0.0265
     40 H           1.6678    1.3377   -2.2000 H       1  LIG1        0.0265
     41 H           2.4100    0.8304   -0.7157 H       1  LIG1        0.0265
     42 H           0.3264    2.0501   -0.3295 H       1  LIG1        0.0265
     43 H           0.2481    0.3713    0.3080 H       1  LIG1        0.0265
     44 H          -1.2789   -0.0811   -1.6244 H       1  LIG1        0.0265
     45 H          -0.9906    1.5773   -2.1677 H       1  LIG1        0.0265
     46 H          -3.1363    1.3017   -1.2920 H       1  LIG1        0.0265
     47 H          -2.2974    2.3717   -0.1923 H       1  LIG1        0.0265
     48 H          -2.9407   -0.6353    0.2631 H       1  LIG1        0.0265
     49 H          -3.8930    0.7333    0.8417 H       1  LIG1        0.0265
     50 H          -2.0337    1.5371    2.0905 H       1  LIG1        0.0265
     51 H          -1.0752    0.0649    1.7568 H       1  LIG1        0.0265
     52 H          -2.8254   -1.2491    2.9660 H       1  LIG1        0.0265
     53 H          -3.5814    0.2612    3.4615 H       1  LIG1        0.0265
     54 H          -0.7426   -0.6925    4.2054 H       1  LIG1        0.0265
     55 H          -2.1705   -0.7361    5.2105 H       1  LIG1        0.0265
     56 H          -0.7684    1.0575    5.9737 H       1  LIG1        0.0268
     57 H          -2.2934    1.6639    5.3622 H       1  LIG1        0.0268
     58 H          -0.5436    3.2036    4.7329 H       1  LIG1        0.0313
     59 H          -1.3064    2.5250    3.4001 H       1  LIG1        0.0313
     60 H          -0.0863    2.2676    1.6461 H       1  LIG1        0.0621
     61 H           2.1099    2.3973    0.4701 H       1  LIG1        0.0655
     62 H           5.6948    0.7457    2.7117 H       1  LIG1        0.1166
     63 H           5.9705    2.5066    2.8287 H       1  LIG1        0.1166
     64 H           1.9849    1.7943    5.3719 H       1  LIG1        0.0658
@<TRIPOS>BOND
     1     1     2    1
     2     2     3    2
     3     3     4    1
     4     4     5    1
     5     5     6    1
     6     2     6    1
     7     6     7    2
     8     4     8    2
     9     3     9    1
    10     9    10    1
    11    10    11    1
    12    11    12    1
    13    12    13    1
    14    13    14    1
    15    14    15    1
    16    15    16    1
    17    16    17    1
    18    17    18    1
    19    18    19    1
    20    19    20    1
    21    20    21    1
    22    21    22    1
    23    22    23   ar
    24    23    24   ar
    25    24    25   ar
    26    25    26   ar
    27    26    27    1
    28    27    28    1
    29    28    29    1
    30    25    29    1
    31    26    30   ar
    32    22    30   ar
    33     1    31    1
    34     7    32    1
    35     7    33    1
    36     9    34    1
    37     9    35    1
    38    10    36    1
    39    10    37    1
    40    11    38    1
    41    11    39    1
    42    12    40    1
    43    12    41    1
    44    13    42    1
    45    13    43    1
    46    14    44    1
    47    14    45    1
    48    15    46    1
    49    15    47    1
    50    16    48    1
    51    16    49    1
    52    17    50    1
    53    17    51    1
    54    18    52    1
    55    18    53    1
    56    19    54    1
    57    19    55    1
    58    20    56    1
    59    20    57    1
    60    21    58    1
    61    21    59    1
    62    23    60    1
    63    24    61    1
    64    28    62    1
    65    28    63    1
    66    30    64    1
