@<TRIPOS>MOLECULE
NuBBE_303
 72 71 0 0 0
SMALL
GASTEIGER

@<TRIPOS>ATOM
      1 C          -4.4085    6.2736    1.1112 C.3     1  LIG1       -0.0181
      2 C          -2.8873    6.2062    1.4169 C.3     1  LIG1        0.0141
      3 H          -2.7751    6.3438    2.5184 H       1  LIG1        0.0885
      4 C          -2.2292    7.4261    0.7282 C.3     1  LIG1        0.1451
      5 H          -2.7325    8.3568    1.0723 H       1  LIG1        0.0791
      6 C          -0.7629    7.4715    1.1614 C.3     1  LIG1       -0.0052
      7 C          -0.0820    6.2214    0.6707 C.3     1  LIG1       -0.0061
      8 C          -0.7385    4.9373    1.2349 C.3     1  LIG1       -0.0206
      9 H          -0.5537    4.9206    2.3337 H       1  LIG1        0.0851
     10 N          -2.2363    4.9040    1.0088 N.4     1  LIG1        0.2398
     11 H          -2.4284    4.7312   -0.0063 H       1  LIG1        0.2037
     12 C          -2.8556    3.8198    1.8233 C.3     1  LIG1       -0.0425
     13 C           0.1103    3.8040    0.5649 C.3     1  LIG1       -0.0096
     14 C          -0.2279    2.3587    0.8722 C.3     1  LIG1       -0.0480
     15 C           0.7003    1.4017    0.1335 C.3     1  LIG1       -0.0529
     16 C           0.3078   -0.0265    0.4849 C.3     1  LIG1       -0.0531
     17 C           1.2022   -1.0284   -0.2252 C.3     1  LIG1       -0.0531
     18 C           0.7717   -2.4385    0.1568 C.3     1  LIG1       -0.0531
     19 C           1.6490   -3.4651   -0.5387 C.3     1  LIG1       -0.0531
     20 C           1.2106   -4.8725   -0.1503 C.3     1  LIG1       -0.0531
     21 C           2.0939   -5.8929   -0.8509 C.3     1  LIG1       -0.0530
     22 C           1.6832   -7.3164   -0.4848 C.3     1  LIG1       -0.0527
     23 C           2.5970   -8.2980   -1.2112 C.3     1  LIG1       -0.0464
     24 C           2.2437   -9.7499   -0.8914 C.3     1  LIG1        0.0055
     25 C           3.1194  -10.7741   -1.5857 C.2     1  LIG1        0.1303
     26 C           4.3996  -11.3211   -0.9985 C.3     1  LIG1       -0.0061
     27 O           2.7700  -11.1805   -2.6827 O.2     1  LIG1       -0.2977
     28 O          -2.3664    7.2914   -0.6490 O.3     1  LIG1       -0.4558
     29 C          -1.6203    6.5300   -1.4975 C.2     1  LIG1        0.3044
     30 C          -2.2042    5.4375   -2.3516 C.3     1  LIG1        0.0332
     31 O          -0.4234    6.7477   -1.5750 O.2     1  LIG1       -0.2512
     32 I          -5.6542    3.4545    0.2501 I       2  LIG2        0.0000
     33 H          -4.8093    7.2611    1.4241 H       1  LIG1        0.0285
     34 H          -5.0139    5.5411    1.6755 H       1  LIG1        0.0285
     35 H          -4.6029    6.1463    0.0263 H       1  LIG1        0.0285
     36 H          -0.6884    7.5392    2.2690 H       1  LIG1        0.0305
     37 H          -0.2296    8.3449    0.7429 H       1  LIG1        0.0305
     38 H           0.9915    6.2670    0.9594 H       1  LIG1        0.0321
     39 H          -0.1259    6.2154   -0.4426 H       1  LIG1        0.0321
     40 H          -2.5977    2.8116    1.5038 H       1  LIG1        0.0778
     41 H          -3.9501    3.7719    1.7181 H       1  LIG1        0.0778
     42 H          -2.6040    3.9256    2.9015 H       1  LIG1        0.0778
     43 H           0.0931    3.9011   -0.5447 H       1  LIG1        0.0320
     44 H           1.1598    3.9712    0.9019 H       1  LIG1        0.0320
     45 H          -1.2543    2.1627    0.4984 H       1  LIG1        0.0267
     46 H          -0.1287    2.1643    1.9629 H       1  LIG1        0.0267
     47 H           1.7526    1.5974    0.4396 H       1  LIG1        0.0265
     48 H           0.6112    1.5461   -0.9663 H       1  LIG1        0.0265
     49 H          -0.7495   -0.1953    0.1785 H       1  LIG1        0.0265
     50 H           0.3919   -0.1787    1.5842 H       1  LIG1        0.0265
     51 H           2.2596   -0.8598    0.0786 H       1  LIG1        0.0265
     52 H           1.1166   -0.8973   -1.3270 H       1  LIG1        0.0265
     53 H          -0.2890   -2.5943   -0.1430 H       1  LIG1        0.0265
     54 H           0.8573   -2.5682    1.2590 H       1  LIG1        0.0265
     55 H           2.7090   -3.3073   -0.2378 H       1  LIG1        0.0265
     56 H           1.5646   -3.3384   -1.6413 H       1  LIG1        0.0265
     57 H           0.1503   -5.0285   -0.4500 H       1  LIG1        0.0265
     58 H           1.2972   -4.9995    0.9519 H       1  LIG1        0.0265
     59 H           3.1526   -5.7250   -0.5506 H       1  LIG1        0.0265
     60 H           2.0071   -5.7549   -1.9520 H       1  LIG1        0.0265
     61 H           0.6264   -7.4898   -0.7869 H       1  LIG1        0.0265
     62 H           1.7728   -7.4601    0.6150 H       1  LIG1        0.0265
     63 H           3.6457   -8.0999   -0.8960 H       1  LIG1        0.0269
     64 H           2.4924   -8.1300   -2.3062 H       1  LIG1        0.0269
     65 H           1.1885   -9.9340   -1.1900 H       1  LIG1        0.0341
     66 H           2.3304   -9.9043    0.2065 H       1  LIG1        0.0341
     67 H           4.6621  -10.9148   -0.0040 H       1  LIG1        0.0306
     68 H           5.2424  -11.0897   -1.6817 H       1  LIG1        0.0306
     69 H           4.3109  -12.4217   -0.8917 H       1  LIG1        0.0306
     70 H          -3.2774    5.2575   -2.1600 H       1  LIG1        0.0342
     71 H          -1.6714    4.4868   -2.1474 H       1  LIG1        0.0342
     72 H          -2.0664    5.7060   -3.4210 H       1  LIG1        0.0342
@<TRIPOS>BOND
     1     1     2    1
     2     2     3    1
     3     2     4    1
     4     4     5    1
     5     4     6    1
     6     6     7    1
     7     7     8    1
     8     8    10    1
     9    10    11    1
    10     2    10    1
    11    10    12    1
    12    13    14    1
    13    14    15    1
    14    15    16    1
    15    16    17    1
    16    17    18    1
    17    18    19    1
    18    19    20    1
    19    20    21    1
    20    21    22    1
    21    22    23    1
    22    23    24    1
    23    24    25    1
    24    25    26    1
    25    25    27    2
    26     4    28    1
    27    28    29    1
    28    29    30    1
    29    29    31    2
    30     8    13    1
    31     8     9    1
    32     1    33    1
    33     1    34    1
    34     1    35    1
    35     6    36    1
    36     6    37    1
    37     7    38    1
    38     7    39    1
    39    12    40    1
    40    12    41    1
    41    12    42    1
    42    13    43    1
    43    13    44    1
    44    14    45    1
    45    14    46    1
    46    15    47    1
    47    15    48    1
    48    16    49    1
    49    16    50    1
    50    17    51    1
    51    17    52    1
    52    18    53    1
    53    18    54    1
    54    19    55    1
    55    19    56    1
    56    20    57    1
    57    20    58    1
    58    21    59    1
    59    21    60    1
    60    22    61    1
    61    22    62    1
    62    23    63    1
    63    23    64    1
    64    24    65    1
    65    24    66    1
    66    26    67    1
    67    26    68    1
    68    26    69    1
    69    30    70    1
    70    30    71    1
    71    30    72    1
