@<TRIPOS>MOLECULE
NuBBE_2279
 44 47 0 0 0
SMALL
GASTEIGER

@<TRIPOS>ATOM
      1 O          -2.0199    1.7504    0.0411 O.3     1  LIG1       -0.5052
      2 C          -0.6445    1.7153    0.0226 C.ar    1  LIG1        0.1418
      3 C           0.0598    0.5007    0.0062 C.ar    1  LIG1        0.1066
      4 C           1.4502    0.5048    0.0022 C.ar    1  LIG1        0.1454
      5 O           2.1971   -0.6425    0.0049 O.2     1  LIG1       -0.4618
      6 C           1.5296   -1.8422    0.0070 C.ar    1  LIG1        0.1038
      7 C           0.1995   -2.0348   -0.0151 C.ar    1  LIG1        0.0644
      8 C          -0.3827   -3.3993   -0.0266 C.ar    1  LIG1       -0.0110
      9 C           0.2649   -4.4688   -0.6663 C.ar    1  LIG1       -0.0504
     10 C          -0.3048   -5.7472   -0.6914 C.ar    1  LIG1       -0.0194
     11 C          -1.5423   -5.9874   -0.0971 C.ar    1  LIG1        0.1201
     12 O          -1.9981   -7.2708   -0.2094 O.3     1  LIG1       -0.4951
     13 C          -3.2754   -7.5428    0.3546 C.3     1  LIG1        0.0788
     14 C          -2.1985   -4.9386    0.5395 C.ar    1  LIG1       -0.0194
     15 C          -1.6192   -3.6637    0.5802 C.ar    1  LIG1       -0.0504
     16 C          -0.6349   -0.7961   -0.0162 C.ar    1  LIG1        0.2037
     17 O          -1.8651   -0.8052   -0.0423 O.2     1  LIG1       -0.2863
     18 C           2.1467    1.7104   -0.0016 C.ar    1  LIG1        0.0239
     19 C           1.4492    2.9200    0.0032 C.ar    1  LIG1        0.1359
     20 C           0.0504    2.9349    0.0217 C.ar    1  LIG1        0.0588
     21 C          -0.6428    4.2163    0.0416 C.2     1  LIG1       -0.0478
     22 C           0.0873    5.3335    0.0002 C.2     1  LIG1       -0.0408
     23 C           1.5955    5.3363   -0.0642 C.3     1  LIG1        0.1235
     24 C           2.0454    5.9783   -1.3814 C.3     1  LIG1       -0.0215
     25 C           2.1498    6.1361    1.1200 C.3     1  LIG1       -0.0215
     26 O           2.2284    4.0418   -0.0016 O.3     1  LIG1       -0.4814
     27 H          -2.3541    0.8251    0.0156 H       1  LIG1        0.2922
     28 H           2.2624   -2.6401    0.0312 H       1  LIG1        0.1037
     29 H           1.2177   -4.3307   -1.1717 H       1  LIG1        0.0625
     30 H           0.2186   -6.5593   -1.1906 H       1  LIG1        0.0654
     31 H          -3.5102   -8.5937    0.1621 H       1  LIG1        0.0660
     32 H          -4.0548   -6.9357   -0.1183 H       1  LIG1        0.0660
     33 H          -3.2639   -7.3960    1.4398 H       1  LIG1        0.0660
     34 H          -3.1662   -5.0676    1.0126 H       1  LIG1        0.0654
     35 H          -2.1691   -2.8781    1.0947 H       1  LIG1        0.0625
     36 H           3.2335    1.7140   -0.0099 H       1  LIG1        0.0691
     37 H          -1.7265    4.2375    0.0827 H       1  LIG1        0.0624
     38 H          -0.4203    6.2945    0.0054 H       1  LIG1        0.0611
     39 H           1.6718    7.0026   -1.4876 H       1  LIG1        0.0271
     40 H           1.6946    5.3935   -2.2405 H       1  LIG1        0.0271
     41 H           3.1393    6.0008   -1.4512 H       1  LIG1        0.0271
     42 H           1.7813    7.1677    1.1281 H       1  LIG1        0.0271
     43 H           3.2456    6.1616    1.0949 H       1  LIG1        0.0271
     44 H           1.8749    5.6645    2.0713 H       1  LIG1        0.0271
@<TRIPOS>BOND
     1     1     2    1
     2     2     3   ar
     3     3     4   ar
     4     4     5   ar
     5     5     6   ar
     6     6     7   ar
     7     7     8    1
     8     8     9   ar
     9     9    10   ar
    10    10    11   ar
    11    11    12    1
    12    12    13    1
    13    11    14   ar
    14    14    15   ar
    15     8    15   ar
    16     7    16   ar
    17     3    16   ar
    18    16    17    2
    19     4    18   ar
    20    18    19   ar
    21    19    20   ar
    22     2    20   ar
    23    20    21    1
    24    21    22    2
    25    22    23    1
    26    23    24    1
    27    23    25    1
    28    23    26    1
    29    19    26    1
    30     1    27    1
    31     6    28    1
    32     9    29    1
    33    10    30    1
    34    13    31    1
    35    13    32    1
    36    13    33    1
    37    14    34    1
    38    15    35    1
    39    18    36    1
    40    21    37    1
    41    22    38    1
    42    24    39    1
    43    24    40    1
    44    24    41    1
    45    25    42    1
    46    25    43    1
    47    25    44    1
