@<TRIPOS>MOLECULE
NuBBE_2140
 34 34 0 0 0
SMALL
GASTEIGER

@<TRIPOS>ATOM
      1 C          -4.3809    1.1986   -1.0104 C.3     1  LIG1       -0.0653
      2 C          -2.9650    0.7099   -0.7493 C.3     1  LIG1       -0.0559
      3 C          -1.9398    1.4794   -1.5847 C.3     1  LIG1       -0.0533
      4 C          -0.4923    1.0368   -1.3370 C.3     1  LIG1       -0.0528
      5 C          -0.2285   -0.4343   -1.6806 C.3     1  LIG1       -0.0494
      6 C           1.2267   -0.8647   -1.4469 C.3     1  LIG1       -0.0317
      7 C           1.6829   -0.7557   -0.0077 C.2     1  LIG1       -0.0734
      8 C           2.6930    0.0638    0.3516 C.2     1  LIG1       -0.0848
      9 C           3.1487    0.2508    1.7691 C.3     1  LIG1       -0.0345
     10 C           2.1468   -0.2864    2.7901 C.3     1  LIG1       -0.0493
     11 C           1.6481   -1.6657    2.3769 C.3     1  LIG1       -0.0491
     12 C           0.9612   -1.6125    1.0087 C.3     1  LIG1       -0.0317
     13 H          -5.0901    0.6545   -0.3785 H       1  LIG1        0.0230
     14 H          -4.6629    1.0322   -2.0551 H       1  LIG1        0.0230
     15 H          -4.4781    2.2663   -0.7919 H       1  LIG1        0.0230
     16 H          -2.9279   -0.3589   -0.9822 H       1  LIG1        0.0263
     17 H          -2.7328    0.8208    0.3162 H       1  LIG1        0.0263
     18 H          -2.0154    2.5474   -1.3419 H       1  LIG1        0.0265
     19 H          -2.1785    1.3825   -2.6505 H       1  LIG1        0.0265
     20 H          -0.2418    1.2317   -0.2882 H       1  LIG1        0.0265
     21 H           0.1693    1.6691   -1.9428 H       1  LIG1        0.0265
     22 H          -0.4782   -0.6071   -2.7350 H       1  LIG1        0.0268
     23 H          -0.8858   -1.0858   -1.0962 H       1  LIG1        0.0268
     24 H           1.8797   -0.2765   -2.1041 H       1  LIG1        0.0310
     25 H           1.3408   -1.9088   -1.7658 H       1  LIG1        0.0310
     26 H           3.2146    0.6479   -0.4014 H       1  LIG1        0.0572
     27 H           3.3146    1.3174    1.9593 H       1  LIG1        0.0307
     28 H           4.1147   -0.2531    1.8938 H       1  LIG1        0.0307
     29 H           1.2940    0.4010    2.8669 H       1  LIG1        0.0268
     30 H           2.6114   -0.3299    3.7812 H       1  LIG1        0.0268
     31 H           0.9485   -2.0540    3.1256 H       1  LIG1        0.0268
     32 H           2.4942   -2.3639    2.3396 H       1  LIG1        0.0268
     33 H          -0.0530   -1.2165    1.1420 H       1  LIG1        0.0310
     34 H           0.8619   -2.6366    0.6293 H       1  LIG1        0.0310
@<TRIPOS>BOND
     1     1     2    1
     2     2     3    1
     3     3     4    1
     4     4     5    1
     5     5     6    1
     6     6     7    1
     7     7     8    2
     8     8     9    1
     9     9    10    1
    10    10    11    1
    11    11    12    1
    12     7    12    1
    13     1    13    1
    14     1    14    1
    15     1    15    1
    16     2    16    1
    17     2    17    1
    18     3    18    1
    19     3    19    1
    20     4    20    1
    21     4    21    1
    22     5    22    1
    23     5    23    1
    24     6    24    1
    25     6    25    1
    26     8    26    1
    27     9    27    1
    28     9    28    1
    29    10    29    1
    30    10    30    1
    31    11    31    1
    32    11    32    1
    33    12    33    1
    34    12    34    1
