@<TRIPOS>MOLECULE
NuBBE_2278
 30 31 0 0 0
SMALL
GASTEIGER

@<TRIPOS>ATOM
      1 O          -1.5731   -0.9484   -0.6071 O.2     1  LIG1       -0.2447
      2 C          -0.3960   -0.6894   -0.8519 C.2     1  LIG1        0.3466
      3 C           0.6417   -1.7289   -0.7109 C.ar    1  LIG1        0.1414
      4 C           0.3971   -2.8013    0.1659 C.ar    1  LIG1        0.1344
      5 O          -0.7346   -2.9129    0.9351 O.3     1  LIG1       -0.5058
      6 C           1.3187   -3.8374    0.3011 C.ar    1  LIG1       -0.0191
      7 C           2.4940   -3.8223   -0.4464 C.ar    1  LIG1       -0.0548
      8 C           2.7509   -2.7689   -1.3241 C.ar    1  LIG1       -0.0191
      9 C           1.8293   -1.7266   -1.4573 C.ar    1  LIG1        0.1344
     10 O           2.0967   -0.7326   -2.3579 O.3     1  LIG1       -0.5058
     11 O           0.1047    0.5186   -1.1839 O.3     1  LIG1       -0.4562
     12 C          -0.8549    1.5680   -1.3440 C.3     1  LIG1        0.1179
     13 C          -1.1328    2.2216   -0.0152 C.ar    1  LIG1       -0.0103
     14 C          -0.3402    3.2772    0.4521 C.ar    1  LIG1       -0.0554
     15 C          -0.5853    3.8372    1.7078 C.ar    1  LIG1       -0.0614
     16 C          -1.6080    3.3352    2.5125 C.ar    1  LIG1       -0.0617
     17 C          -2.3931    2.2784    2.0619 C.ar    1  LIG1       -0.0614
     18 C          -2.1620    1.7324    0.8021 C.ar    1  LIG1       -0.0554
     19 H          -1.3703   -2.2161    0.6620 H       1  LIG1        0.2922
     20 H           1.1125   -4.6600    0.9815 H       1  LIG1        0.0654
     21 H           3.2069   -4.6371   -0.3498 H       1  LIG1        0.0620
     22 H           3.6665   -2.7841   -1.9082 H       1  LIG1        0.0654
     23 H           2.9843   -0.8583   -2.7311 H       1  LIG1        0.2922
     24 H          -1.7765    1.2012   -1.8137 H       1  LIG1        0.0749
     25 H          -0.4329    2.2997   -2.0429 H       1  LIG1        0.0749
     26 H           0.4764    3.6631   -0.1541 H       1  LIG1        0.0621
     27 H           0.0297    4.6586    2.0654 H       1  LIG1        0.0618
     28 H          -1.7890    3.7613    3.4952 H       1  LIG1        0.0618
     29 H          -3.1796    1.8690    2.6897 H       1  LIG1        0.0618
     30 H          -2.7811    0.9029    0.4662 H       1  LIG1        0.0621
@<TRIPOS>BOND
     1     1     2    2
     2     2     3    1
     3     3     4   ar
     4     4     5    1
     5     4     6   ar
     6     6     7   ar
     7     7     8   ar
     8     8     9   ar
     9     3     9   ar
    10     9    10    1
    11     2    11    1
    12    11    12    1
    13    12    13    1
    14    13    14   ar
    15    14    15   ar
    16    15    16   ar
    17    16    17   ar
    18    17    18   ar
    19    13    18   ar
    20     5    19    1
    21     6    20    1
    22     7    21    1
    23     8    22    1
    24    10    23    1
    25    12    24    1
    26    12    25    1
    27    14    26    1
    28    15    27    1
    29    16    28    1
    30    17    29    1
    31    18    30    1
