REMARK  Name = NuBBE_274
REMARK  12 active torsions:
REMARK  status: ('A' for Active; 'I' for Inactive)
REMARK    1  A    between atoms: O_1  and  C_2
REMARK    2  A    between atoms: C_5  and  C_10
REMARK    3  A    between atoms: C_7  and  O_8
REMARK    4  A    between atoms: O_8  and  C_9
REMARK    5  A    between atoms: C_11  and  C_12
REMARK    6  A    between atoms: C_12  and  O_13
REMARK    7  A    between atoms: O_13  and  C_14
REMARK    8  A    between atoms: C_17  and  C_28
REMARK    9  A    between atoms: C_19  and  O_27
REMARK   10  A    between atoms: C_21  and  O_26
REMARK   11  A    between atoms: C_23  and  O_25
REMARK   12  A    between atoms: C_28  and  O_29
REMARK                            x       y       z     vdW  Elec       q    Type
REMARK                         _______ _______ _______ _____ _____    ______ ____
ROOT
ATOM      1  O   LIG A   1       0.797  -0.258  -0.961  0.00  0.00    -0.429 OA
ENDROOT
BRANCH   1   2
ATOM      2  C   LIG A   1       1.058  -0.071  -2.353  0.00  0.00    +0.343 C 
ATOM      3  O   LIG A   1      -0.133  -0.355  -3.089  0.00  0.00    -0.331 OA
ATOM      4  C   LIG A   1       0.037  -0.174  -4.492  0.00  0.00    +0.179 C 
ATOM      5  C   LIG A   1       1.055  -1.192  -5.029  0.00  0.00    +0.177 C 
ATOM      6  C   LIG A   1       2.377  -1.020  -4.277  0.00  0.00    +0.180 C 
ATOM      7  C   LIG A   1       2.174  -1.056  -2.762  0.00  0.00    +0.214 C 
BRANCH   7   8
ATOM      8  O   LIG A   1       3.422  -0.745  -2.123  0.00  0.00    -0.383 OA
ATOM      9  H   LIG A   1       4.075  -1.340  -2.546  0.00  0.00    +0.210 HD
ENDBRANCH   7   8
BRANCH   6  10
ATOM     10  O   LIG A   1       3.298  -2.058  -4.655  0.00  0.00    -0.386 OA
ATOM     11  H   LIG A   1       3.248  -2.092  -5.633  0.00  0.00    +0.210 HD
ENDBRANCH   6  10
BRANCH   5  12
ATOM     12  O   LIG A   1       1.323  -1.030  -6.426  0.00  0.00    -0.387 OA
ATOM     13  H   LIG A   1       0.454  -0.863  -6.857  0.00  0.00    +0.210 HD
ENDBRANCH   5  12
BRANCH   4  14
ATOM     14  C   LIG A   1      -1.335  -0.328  -5.151  0.00  0.00    +0.190 C 
BRANCH  14  15
ATOM     15  O   LIG A   1      -1.229  -0.146  -6.560  0.00  0.00    -0.392 OA
ATOM     16  H   LIG A   1      -1.979   0.418  -6.826  0.00  0.00    +0.209 HD
ENDBRANCH  14  15
ENDBRANCH   4  14
ENDBRANCH   1   2
BRANCH   1  17
ATOM     17  C   LIG A   1      -0.031   0.656  -0.408  0.00  0.00    +0.334 C 
ATOM     18  O   LIG A   1      -0.566   1.610  -0.950  0.00  0.00    -0.245 OA
BRANCH  17  20
ATOM     19  C   LIG A   1      -0.651   1.148   1.924  0.00  0.00    +0.015 C 
ATOM     20  C   LIG A   1      -0.137   0.305   1.020  0.00  0.00    +0.092 C 
BRANCH  19  24
ATOM     21  C   LIG A   1      -0.740   0.250   6.112  0.00  0.00    +0.159 A 
ATOM     22  C   LIG A   1       0.280  -0.261   5.310  0.00  0.00    +0.050 A 
ATOM     23  C   LIG A   1       0.318   0.038   3.950  0.00  0.00    +0.012 A 
ATOM     24  C   LIG A   1      -0.676   0.831   3.362  0.00  0.00    -0.021 A 
ATOM     25  C   LIG A   1      -1.679   1.362   4.183  0.00  0.00    +0.057 A 
ATOM     26  C   LIG A   1      -1.727   1.076   5.560  0.00  0.00    +0.162 A 
BRANCH  21  27
ATOM     27  O   LIG A   1      -0.733  -0.081   7.438  0.00  0.00    -0.503 OA
ATOM     28  H   LIG A   1       0.024  -0.661   7.618  0.00  0.00    +0.292 HD
ENDBRANCH  21  27
BRANCH  26  29
ATOM     29  O   LIG A   1      -2.783   1.671   6.197  0.00  0.00    -0.491 OA
ATOM     30  C   LIG A   1      -2.932   1.440   7.592  0.00  0.00    +0.277 C 
ENDBRANCH  26  29
ENDBRANCH  19  24
ENDBRANCH  17  20
ENDBRANCH   1  17
TORSDOF 11
