REMARK  Name = NuBBE_1481
REMARK  5 active torsions:
REMARK  status: ('A' for Active; 'I' for Inactive)
REMARK    1  A    between atoms: C_1  and  C_2
REMARK    2  A    between atoms: C_2  and  C_3
REMARK    3  A    between atoms: C_7  and  O_21
REMARK    4  A    between atoms: N_10  and  C_20
REMARK    5  A    between atoms: O_21  and  C_22
REMARK                            x       y       z     vdW  Elec       q    Type
REMARK                         _______ _______ _______ _____ _____    ______ ____
ROOT
ATOM      1  C   LIG A   1      -0.757   0.867   4.533  0.00  0.00    +0.060 C 
ATOM      2  C   LIG A   1       0.555   0.655   3.769  0.00  0.00    +0.123 C 
ATOM      3  C   LIG A   1       1.727   0.621   4.757  0.00  0.00    +0.060 C 
ATOM      4  O   LIG A   1       0.507  -0.658   3.175  0.00  0.00    -0.481 OA
ATOM      5  C   LIG A   1       0.211  -0.762   1.844  0.00  0.00    +0.134 A 
ATOM      6  C   LIG A   1      -0.039  -2.053   1.390  0.00  0.00    +0.092 A 
ATOM      7  C   LIG A   1      -0.282  -2.285   0.037  0.00  0.00    +0.136 A 
ATOM      8  C   LIG A   1      -0.345  -1.214  -0.869  0.00  0.00    +0.088 A 
ATOM      9  C   LIG A   1      -0.159   0.110  -0.407  0.00  0.00    +0.067 A 
ATOM     10  N   LIG A   1      -0.293   1.215  -1.315  0.00  0.00    -0.342 N 
ATOM     11  C   LIG A   1      -0.264   0.996  -2.722  0.00  0.00    +0.053 A 
ATOM     12  C   LIG A   1      -0.082   2.066  -3.613  0.00  0.00    +0.026 A 
ATOM     13  C   LIG A   1      -0.066   1.854  -4.994  0.00  0.00    +0.002 A 
ATOM     14  C   LIG A   1      -0.228   0.569  -5.506  0.00  0.00    +0.001 A 
ATOM     15  C   LIG A   1      -0.394  -0.507  -4.635  0.00  0.00    +0.014 A 
ATOM     16  C   LIG A   1      -0.400  -0.292  -3.250  0.00  0.00    +0.046 A 
ATOM     17  C   LIG A   1      -0.571  -1.433  -2.325  0.00  0.00    +0.201 A 
ATOM     18  O   LIG A   1      -0.858  -2.530  -2.793  0.00  0.00    -0.286 OA
ATOM     19  C   LIG A   1      -1.501   2.008  -0.979  0.00  0.00    +0.149 C 
ATOM     20  C   LIG A   1       0.189   0.321   0.956  0.00  0.00    +0.041 A 
ATOM     21  C   LIG A   1       0.607   1.627   1.468  0.00  0.00    +0.013 C 
ATOM     22  C   LIG A   1       0.766   1.780   2.786  0.00  0.00    +0.020 C 
ENDROOT
BRANCH   7  23
ATOM     23  O   LIG A   1      -0.529  -3.582  -0.327  0.00  0.00    -0.494 OA
ATOM     24  C   LIG A   1       0.686  -4.241  -0.689  0.00  0.00    +0.277 C 
ENDBRANCH   7  23
TORSDOF 1
