@<TRIPOS>MOLECULE
NuBBE_1301
 57 59 0 0 0
SMALL
GASTEIGER

@<TRIPOS>ATOM
      1 O          -1.3197    1.2254    1.7723 O.2     1  LIG1       -0.2870
      2 C          -0.4639    0.5308    1.2463 C.2     1  LIG1        0.1931
      3 C           0.3605   -0.4875    2.0118 C.ar    1  LIG1        0.1054
      4 C          -0.2447   -1.2026    3.0770 C.ar    1  LIG1        0.1467
      5 O          -1.5721   -0.9790    3.3513 O.3     1  LIG1       -0.4807
      6 C          -2.0570   -1.2873    4.6726 C.3     1  LIG1        0.1235
      7 C          -1.9425   -0.0301    5.5445 C.3     1  LIG1       -0.0215
      8 C          -3.5362   -1.6493    4.4937 C.3     1  LIG1       -0.0215
      9 C          -1.3424   -2.4451    5.3230 C.2     1  LIG1       -0.0408
     10 C          -0.1576   -2.8872    4.8920 C.2     1  LIG1       -0.0478
     11 C           0.4897   -2.1746    3.7881 C.ar    1  LIG1        0.0591
     12 C           1.8316   -2.4301    3.4464 C.ar    1  LIG1        0.1342
     13 O           2.4811   -3.4335    4.1239 O.3     1  LIG1       -0.4943
     14 C           3.8967   -3.3156    4.2275 C.3     1  LIG1        0.0788
     15 C           2.4290   -1.6926    2.4238 C.ar    1  LIG1        0.0231
     16 C           1.7005   -0.7192    1.7322 C.ar    1  LIG1        0.1347
     17 O           2.3578    0.0130    0.7800 O.3     1  LIG1       -0.5058
     18 C          -0.1889    0.6280   -0.2259 C.2     1  LIG1       -0.0135
     19 C          -0.6077    1.6816   -0.9559 C.2     1  LIG1       -0.0507
     20 C          -0.3857    1.8433   -2.4079 C.ar    1  LIG1       -0.0178
     21 C          -1.1307    2.7822   -3.1306 C.ar    1  LIG1       -0.0089
     22 C          -0.9145    2.9638   -4.5057 C.ar    1  LIG1        0.1657
     23 O          -1.6307    3.8586   -5.2684 O.3     1  LIG1       -0.4913
     24 C          -2.9649    4.1217   -4.8505 C.3     1  LIG1        0.0790
     25 C           0.0924    2.2334   -5.1767 C.ar    1  LIG1        0.2035
     26 O           0.2731    2.5802   -6.4953 O.3     1  LIG1       -0.4885
     27 C           0.7332    1.5739   -7.3836 C.3     1  LIG1        0.0791
     28 C           0.8357    1.2777   -4.4643 C.ar    1  LIG1        0.1657
     29 O           1.8484    0.5976   -5.0946 O.3     1  LIG1       -0.4913
     30 C           2.1354   -0.7102   -4.6036 C.3     1  LIG1        0.0790
     31 C           0.5887    1.1064   -3.0940 C.ar    1  LIG1       -0.0089
     32 H          -2.5029    0.8024    5.1033 H       1  LIG1        0.0271
     33 H          -0.9022    0.3070    5.6232 H       1  LIG1        0.0271
     34 H          -2.3232   -0.2009    6.5579 H       1  LIG1        0.0271
     35 H          -4.0814   -0.8297    4.0110 H       1  LIG1        0.0271
     36 H          -4.0239   -1.8701    5.4496 H       1  LIG1        0.0271
     37 H          -3.6484   -2.5218    3.8389 H       1  LIG1        0.0271
     38 H          -1.8060   -2.9131    6.1872 H       1  LIG1        0.0611
     39 H           0.3526   -3.7110    5.3785 H       1  LIG1        0.0624
     40 H           4.2608   -4.1408    4.8469 H       1  LIG1        0.0660
     41 H           4.1706   -2.3752    4.7170 H       1  LIG1        0.0660
     42 H           4.3849   -3.4099    3.2527 H       1  LIG1        0.0660
     43 H           3.4618   -1.8679    2.1479 H       1  LIG1        0.0691
     44 H           3.2484   -0.3507    0.6343 H       1  LIG1        0.2922
     45 H           0.3683   -0.1900   -0.6656 H       1  LIG1        0.0656
     46 H          -1.1584    2.4800   -0.4611 H       1  LIG1        0.0625
     47 H          -1.8720    3.3820   -2.6109 H       1  LIG1        0.0661
     48 H          -2.9736    4.9016   -4.0833 H       1  LIG1        0.0660
     49 H          -3.4791    3.2202   -4.4989 H       1  LIG1        0.0660
     50 H          -3.5188    4.4968   -5.7173 H       1  LIG1        0.0660
     51 H           0.5028    1.9025   -8.4024 H       1  LIG1        0.0660
     52 H           0.2210    0.6199   -7.2219 H       1  LIG1        0.0660
     53 H           1.8200    1.4665   -7.3242 H       1  LIG1        0.0660
     54 H           2.9294   -1.1363   -5.2236 H       1  LIG1        0.0660
     55 H           1.2551   -1.3576   -4.6813 H       1  LIG1        0.0660
     56 H           2.5207   -0.6939   -3.5798 H       1  LIG1        0.0660
     57 H           1.1991    0.4162   -2.5279 H       1  LIG1        0.0661
@<TRIPOS>BOND
     1     1     2    2
     2     2     3    1
     3     3     4   ar
     4     4     5    1
     5     5     6    1
     6     6     7    1
     7     6     8    1
     8     6     9    1
     9     9    10    2
    10     4    11   ar
    11    10    11    1
    12    11    12   ar
    13    12    13    1
    14    13    14    1
    15    12    15   ar
    16    15    16   ar
    17     3    16   ar
    18    16    17    1
    19     2    18    1
    20    18    19    2
    21    19    20    1
    22    20    21   ar
    23    21    22   ar
    24    22    23    1
    25    23    24    1
    26    22    25   ar
    27    25    26    1
    28    26    27    1
    29    25    28   ar
    30    28    29    1
    31    29    30    1
    32    28    31   ar
    33    20    31   ar
    34     7    32    1
    35     7    33    1
    36     7    34    1
    37     8    35    1
    38     8    36    1
    39     8    37    1
    40     9    38    1
    41    10    39    1
    42    14    40    1
    43    14    41    1
    44    14    42    1
    45    15    43    1
    46    17    44    1
    47    18    45    1
    48    19    46    1
    49    21    47    1
    50    24    48    1
    51    24    49    1
    52    24    50    1
    53    27    51    1
    54    27    52    1
    55    27    53    1
    56    30    54    1
    57    30    55    1
    58    30    56    1
    59    31    57    1
