@<TRIPOS>MOLECULE
NuBBE_1378
 22 21 0 0 0
SMALL
GASTEIGER

@<TRIPOS>ATOM
      1 C          -2.7126   -2.0560   -0.9415 C.3     1  LIG1       -0.0653
      2 C          -1.2720   -1.7618   -0.5490 C.3     1  LIG1       -0.0559
      3 C          -1.0773   -0.2971   -0.1495 C.3     1  LIG1       -0.0533
      4 C           0.3736   -0.0098    0.2526 C.3     1  LIG1       -0.0527
      5 C           0.5748    1.4634    0.6278 C.3     1  LIG1       -0.0466
      6 C           1.9989    1.7689    1.0876 C.3     1  LIG1        0.0028
      7 C           3.0031    1.5662   -0.0172 C.2     1  LIG1        0.1203
      8 O           4.0033    0.8600    0.1011 O.2     1  LIG1       -0.3010
      9 H          -2.8132   -3.0992   -1.2589 H       1  LIG1        0.0230
     10 H          -3.0340   -1.4186   -1.7714 H       1  LIG1        0.0230
     11 H          -3.3920   -1.8926   -0.0988 H       1  LIG1        0.0230
     12 H          -0.6169   -2.0053   -1.3936 H       1  LIG1        0.0263
     13 H          -0.9867   -2.4176    0.2818 H       1  LIG1        0.0263
     14 H          -1.7447   -0.0522    0.6854 H       1  LIG1        0.0265
     15 H          -1.3589    0.3494   -0.9894 H       1  LIG1        0.0265
     16 H           1.0368   -0.2741   -0.5794 H       1  LIG1        0.0265
     17 H           0.6513   -0.6450    1.1023 H       1  LIG1        0.0265
     18 H          -0.1138    1.7260    1.4404 H       1  LIG1        0.0269
     19 H           0.3177    2.0987   -0.2285 H       1  LIG1        0.0269
     20 H           2.2751    1.1445    1.9437 H       1  LIG1        0.0339
     21 H           2.0687    2.8173    1.3995 H       1  LIG1        0.0339
     22 H           2.8187    2.1347   -0.9449 H       1  LIG1        0.1026
@<TRIPOS>BOND
     1     1     2    1
     2     2     3    1
     3     3     4    1
     4     4     5    1
     5     5     6    1
     6     6     7    1
     7     7     8    2
     8     1     9    1
     9     1    10    1
    10     1    11    1
    11     2    12    1
    12     2    13    1
    13     3    14    1
    14     3    15    1
    15     4    16    1
    16     4    17    1
    17     5    18    1
    18     5    19    1
    19     6    20    1
    20     6    21    1
    21     7    22    1
