@<TRIPOS>MOLECULE
NuBBE_1316
 38 41 0 0 0
SMALL
GASTEIGER

@<TRIPOS>ATOM
      1 O          -3.5721    1.7428    0.3765 O.2     1  LIG1       -0.2831
      2 C          -2.3749    1.4884    0.3491 C.ar    1  LIG1        0.2346
      3 C          -1.8298    0.0982    0.2581 C.ar    1  LIG1        0.2105
      4 O          -2.6519   -1.0207    0.1950 O.3     1  LIG1       -0.4883
      5 C          -3.8936   -0.8438   -0.4802 C.3     1  LIG1        0.0791
      6 C          -0.4865   -0.0396    0.2717 C.ar    1  LIG1        0.1808
      7 C           0.1782   -1.3529    0.1906 C.ar    1  LIG1        0.0213
      8 C           0.4549   -1.9204   -1.0588 C.ar    1  LIG1       -0.0475
      9 C           1.1380   -3.1395   -1.1563 C.ar    1  LIG1       -0.0193
     10 C           1.5551   -3.8064   -0.0048 C.ar    1  LIG1        0.1201
     11 O           2.2361   -4.9929    0.0316 O.3     1  LIG1       -0.4951
     12 C           2.5298   -5.6025   -1.2207 C.3     1  LIG1        0.0788
     13 C           1.2782   -3.2433    1.2441 C.ar    1  LIG1       -0.0193
     14 C           0.5944   -2.0249    1.3451 C.ar    1  LIG1       -0.0475
     15 O           0.4280    0.9978    0.3210 O.2     1  LIG1       -0.4502
     16 C          -1.3992    2.5919    0.4008 C.ar    1  LIG1        0.0685
     17 C          -0.0371    2.2866    0.3680 C.ar    1  LIG1        0.1503
     18 C           0.8895    3.3475    0.3869 C.ar    1  LIG1        0.0630
     19 C           2.3062    3.4675    0.3504 C.ar    1  LIG1       -0.0126
     20 C           2.5861    4.8136    0.4015 C.ar    1  LIG1        0.0932
     21 O           1.4390    5.5380    0.4657 O.2     1  LIG1       -0.4628
     22 C           0.4073    4.6505    0.4550 C.ar    1  LIG1        0.1383
     23 C          -0.9428    4.9861    0.5053 C.ar    1  LIG1       -0.0179
     24 C          -1.8478    3.9203    0.4729 C.ar    1  LIG1       -0.0438
     25 H          -4.2669   -1.8340   -0.7587 H       1  LIG1        0.0660
     26 H          -3.7790   -0.2607   -1.4007 H       1  LIG1        0.0660
     27 H          -4.6368   -0.3946    0.1854 H       1  LIG1        0.0660
     28 H           0.1512   -1.4110   -1.9701 H       1  LIG1        0.0626
     29 H           1.3333   -3.5341   -2.1474 H       1  LIG1        0.0654
     30 H           3.0653   -6.5368   -1.0250 H       1  LIG1        0.0660
     31 H           3.1843   -4.9660   -1.8258 H       1  LIG1        0.0660
     32 H           1.6118   -5.8535   -1.7626 H       1  LIG1        0.0660
     33 H           1.6035   -3.7549    2.1473 H       1  LIG1        0.0654
     34 H           0.4007   -1.6059    2.3297 H       1  LIG1        0.0626
     35 H           3.0300    2.6668    0.2919 H       1  LIG1        0.0656
     36 H           3.5011    5.3899    0.4005 H       1  LIG1        0.1030
     37 H          -1.2678    6.0184    0.5616 H       1  LIG1        0.0655
     38 H          -2.9157    4.1342    0.5052 H       1  LIG1        0.0627
@<TRIPOS>BOND
     1     1     2    2
     2     2     3   ar
     3     3     4    1
     4     4     5    1
     5     3     6   ar
     6     6     7    1
     7     7     8   ar
     8     8     9   ar
     9     9    10   ar
    10    10    11    1
    11    11    12    1
    12    10    13   ar
    13    13    14   ar
    14     7    14   ar
    15     6    15   ar
    16     2    16   ar
    17    16    17   ar
    18    15    17   ar
    19    17    18   ar
    20    18    19   ar
    21    19    20   ar
    22    20    21   ar
    23    18    22   ar
    24    21    22   ar
    25    22    23   ar
    26    23    24   ar
    27    16    24   ar
    28     5    25    1
    29     5    26    1
    30     5    27    1
    31     8    28    1
    32     9    29    1
    33    12    30    1
    34    12    31    1
    35    12    32    1
    36    13    33    1
    37    14    34    1
    38    19    35    1
    39    20    36    1
    40    23    37    1
    41    24    38    1
