@<TRIPOS>MOLECULE
NuBBE_1190
 42 43 0 0 0
SMALL
GASTEIGER

@<TRIPOS>ATOM
      1 C          -2.6579    0.9226    1.2911 C.3     1  LIG1        0.1215
      2 O          -1.2342    0.7819    1.4478 O.3     1  LIG1       -0.4589
      3 C          -0.7875   -0.4102    1.8926 C.2     1  LIG1        0.3320
      4 O          -1.4901   -1.3648    2.2168 O.2     1  LIG1       -0.2456
      5 C           0.6791   -0.4781    1.8999 C.2     1  LIG1        0.0231
      6 C           1.4683    0.4535    1.3411 C.2     1  LIG1       -0.0477
      7 C           2.9329    0.4216    1.4332 C.ar    1  LIG1       -0.0211
      8 C           3.6997    0.9841    0.4019 C.ar    1  LIG1       -0.0094
      9 C           5.0868    1.0022    0.5137 C.ar    1  LIG1        0.1588
     10 O           5.8851    1.5292   -0.4643 O.3     1  LIG1       -0.5033
     11 C           5.7118    0.4798    1.6432 C.ar    1  LIG1        0.1582
     12 C           4.9698   -0.0624    2.6780 C.ar    1  LIG1       -0.0160
     13 C           3.5797   -0.0852    2.5747 C.ar    1  LIG1       -0.0509
     14 O           7.0722    0.5026    1.7452 O.3     1  LIG1       -0.5033
     15 C          -3.1188    0.4637   -0.1033 C.3     1  LIG1        0.1240
     16 H          -4.2016    0.6389   -0.1545 H       1  LIG1        0.0658
     17 C          -2.8173   -1.0184   -0.3841 C.3     1  LIG1        0.1129
     18 H          -1.7454   -1.2317   -0.3070 H       1  LIG1        0.0647
     19 O          -3.5099   -1.8861    0.5151 O.3     1  LIG1       -0.3864
     20 C          -3.2188   -1.3843   -1.8096 C.3     1  LIG1        0.1141
     21 H          -4.3083   -1.3799   -1.9288 H       1  LIG1        0.0648
     22 O          -2.7950   -2.7262   -2.1038 O.3     1  LIG1       -0.3864
     23 C          -2.5520   -0.4268   -2.7903 C.3     1  LIG1        0.1339
     24 H          -1.4625   -0.5616   -2.7664 H       1  LIG1        0.0671
     25 C          -2.9086    1.0210   -2.4092 C.3     1  LIG1        0.1854
     26 H          -3.9862    1.2014   -2.4965 H       1  LIG1        0.0935
     27 O          -2.4718    1.2945   -1.0806 O.3     1  LIG1       -0.3396
     28 O          -2.2637    1.9239   -3.2996 O.3     1  LIG1       -0.3649
     29 O          -2.9627   -0.7238   -4.1295 O.3     1  LIG1       -0.3841
     30 H          -2.8666    1.9920    1.4088 H       1  LIG1        0.0725
     31 H          -3.1941    0.4013    2.0927 H       1  LIG1        0.0725
     32 H           1.0761   -1.3587    2.3919 H       1  LIG1        0.0689
     33 H           1.0441    1.2982    0.8011 H       1  LIG1        0.0626
     34 H           3.2116    1.3995   -0.4750 H       1  LIG1        0.0661
     35 H           5.3144    1.8505   -1.1837 H       1  LIG1        0.2923
     36 H           5.4631   -0.4562    3.5609 H       1  LIG1        0.0655
     37 H           3.0097   -0.4899    3.4077 H       1  LIG1        0.0625
     38 H           7.3721    0.9217    0.9144 H       1  LIG1        0.2923
     39 H          -2.9846   -1.8991    1.3479 H       1  LIG1        0.2100
     40 H          -3.0643   -3.2539   -1.3233 H       1  LIG1        0.2100
     41 H          -2.0846    1.4118   -4.1099 H       1  LIG1        0.2126
     42 H          -2.8901   -1.6986   -4.2003 H       1  LIG1        0.2101
@<TRIPOS>BOND
     1     1     2    1
     2     2     3    1
     3     3     4    2
     4     3     5    1
     5     5     6    2
     6     6     7    1
     7     7     8   ar
     8     8     9   ar
     9     9    10    1
    10     9    11   ar
    11    11    12   ar
    12    12    13   ar
    13     7    13   ar
    14    11    14    1
    15    15    17    1
    16    17    18    1
    17    17    19    1
    18    17    20    1
    19    20    21    1
    20    20    22    1
    21    20    23    1
    22    23    25    1
    23    25    26    1
    24    25    27    1
    25    15    27    1
    26    25    28    1
    27    15    16    1
    28    15     1    1
    29    23    29    1
    30    23    24    1
    31     1    30    1
    32     1    31    1
    33     5    32    1
    34     6    33    1
    35     8    34    1
    36    10    35    1
    37    12    36    1
    38    13    37    1
    39    14    38    1
    40    19    39    1
    41    22    40    1
    42    28    41    1
    43    29    42    1
