REMARK  Name = NuBBE_929
REMARK  13 active torsions:
REMARK  status: ('A' for Active; 'I' for Inactive)
REMARK    1  A    between atoms: C_1  and  C_2
REMARK    2  A    between atoms: C_11  and  C_12
REMARK    3  A    between atoms: C_11  and  C_13
REMARK    4  A    between atoms: C_14  and  O_18
REMARK    5  A    between atoms: C_21  and  C_22
REMARK    6  A    between atoms: C_23  and  C_27
REMARK    7  A    between atoms: C_27  and  C_29
REMARK    8  A    between atoms: C_27  and  C_36
REMARK    9  A    between atoms: C_29  and  C_30
REMARK   10  A    between atoms: C_30  and  C_31
REMARK   11  A    between atoms: C_31  and  C_33
REMARK   12  A    between atoms: C_33  and  C_34
REMARK   13  A    between atoms: C_33  and  C_35
REMARK                            x       y       z     vdW  Elec       q    Type
REMARK                         _______ _______ _______ _____ _____    ______ ____
ROOT
ATOM      1  C   LIG A   1      -0.065   1.716  -0.233  0.00  0.00    +0.012 C 
ATOM      2  C   LIG A   1       0.585   0.598   0.647  0.00  0.00    -0.023 C 
ATOM      3  C   LIG A   1      -0.070   0.612   2.070  0.00  0.00    +0.006 C 
ATOM      4  C   LIG A   1      -1.554   0.211   1.938  0.00  0.00    -0.015 C 
ATOM      5  C   LIG A   1      -2.507   0.644   3.065  0.00  0.00    -0.001 C 
ATOM      6  C   LIG A   1      -2.647   1.218   1.661  0.00  0.00    +0.020 C 
ATOM      7  C   LIG A   1      -2.028   1.662   4.050  0.00  0.00    -0.059 C 
ATOM      8  C   LIG A   1      -0.787   2.190   3.981  0.00  0.00    -0.026 C 
ATOM      9  C   LIG A   1       0.207   1.879   2.900  0.00  0.00    +0.031 C 
ATOM     10  C   LIG A   1      -3.064   2.213   5.063  0.00  0.00    +0.013 C 
ATOM     11  C   LIG A   1      -2.533   2.014   6.503  0.00  0.00    +0.018 C 
ATOM     12  C   LIG A   1      -3.285   3.727   4.830  0.00  0.00    +0.018 C 
ATOM     13  C   LIG A   1      -4.443   1.484   4.946  0.00  0.00    +0.124 C 
ATOM     14  C   LIG A   1      -4.270  -0.021   4.806  0.00  0.00    +0.033 C 
ATOM     15  C   LIG A   1      -3.507  -0.398   3.543  0.00  0.00    +0.014 C 
ATOM     16  C   LIG A   1      -1.740  -1.149   1.264  0.00  0.00    +0.009 C 
ATOM     17  C   LIG A   1      -1.015  -1.226  -0.090  0.00  0.00    +0.008 C 
ATOM     18  C   LIG A   1       0.470  -0.848   0.023  0.00  0.00    -0.023 C 
ATOM     19  C   LIG A   1       1.145  -1.972   0.898  0.00  0.00    +0.012 C 
ATOM     20  C   LIG A   1       1.381  -0.776  -1.252  0.00  0.00    -0.002 C 
ATOM     21  C   LIG A   1       2.485   0.252  -0.815  0.00  0.00    +0.005 C 
ATOM     22  C   LIG A   1       2.101   0.813   0.577  0.00  0.00    +0.008 C 
ENDROOT
BRANCH  13  23
ATOM     23  O   LIG A   1      -5.241   1.967   3.860  0.00  0.00    -0.391 OA
ATOM     24  H   LIG A   1      -4.678   1.995   3.067  0.00  0.00    +0.210 HD
ENDBRANCH  13  23
BRANCH  20  25
ATOM     25  C   LIG A   1       0.792  -0.496  -2.675  0.00  0.00    -0.010 C 
ATOM     26  C   LIG A   1      -0.281  -1.504  -3.120  0.00  0.00    +0.008 C 
BRANCH  25  27
ATOM     27  C   LIG A   1       1.900  -0.461  -3.778  0.00  0.00    +0.008 C 
BRANCH  27  28
ATOM     28  C   LIG A   1       2.621  -1.810  -4.008  0.00  0.00    +0.030 C 
BRANCH  28  29
ATOM     29  C   LIG A   1       3.687  -1.736  -5.073  0.00  0.00    -0.074 C 
ATOM     30  C   LIG A   1       4.955  -1.449  -4.724  0.00  0.00    +0.008 C 
BRANCH  29  31
ATOM     31  C   LIG A   1       3.291  -2.066  -6.501  0.00  0.00    +0.008 C 
ATOM     32  C   LIG A   1       3.535  -0.896  -7.455  0.00  0.00    +0.012 C 
ATOM     33  C   LIG A   1       3.997  -3.327  -7.026  0.00  0.00    +0.012 C 
ENDBRANCH  29  31
ENDBRANCH  28  29
ENDBRANCH  27  28
ENDBRANCH  25  27
ENDBRANCH  20  25
TORSDOF 6
