@<TRIPOS>MOLECULE
NuBBE_81
 41 43 0 0 0
SMALL
GASTEIGER

@<TRIPOS>ATOM
      1 O          -0.4331   -2.3795    2.9670 O.2     1  LIG1       -0.2756
      2 C          -1.2823   -1.6841    2.4181 C.2     1  LIG1        0.2156
      3 N          -2.6073   -1.7120    2.8038 N.am    1  LIG1       -0.3015
      4 C          -3.0739   -2.5884    3.8677 C.3     1  LIG1        0.0147
      5 C          -4.5937   -2.5230    3.7771 C.3     1  LIG1       -0.0357
      6 C          -4.8418   -1.1246    3.2265 C.3     1  LIG1       -0.0357
      7 C          -3.7018   -0.9453    2.2348 C.3     1  LIG1        0.0147
      8 C          -0.9408   -0.7427    1.2663 C.3     1  LIG1        0.0242
      9 C           0.5510   -0.7697    0.9155 C.3     1  LIG1       -0.0445
     10 C           0.8873    0.1912   -0.2330 C.3     1  LIG1       -0.0486
     11 C           2.3833    0.1687   -0.5740 C.3     1  LIG1       -0.0276
     12 C           2.7440    1.0952   -1.7161 C.ar    1  LIG1       -0.0437
     13 C           3.1227    2.4345   -1.4632 C.ar    1  LIG1       -0.0549
     14 C           3.4655    3.3000   -2.5104 C.ar    1  LIG1       -0.0159
     15 C           3.4184    2.8055   -3.7950 C.ar    1  LIG1        0.1662
     16 C           3.0516    1.5068   -4.0537 C.ar    1  LIG1        0.1665
     17 O           3.0730    1.2182   -5.3834 O.3     1  LIG1       -0.4526
     18 C           3.4906    2.4867   -5.9305 C.3     1  LIG1        0.2332
     19 O           3.7133    3.4992   -4.9272 O.3     1  LIG1       -0.4526
     20 C           2.7090    0.6308   -3.0421 C.ar    1  LIG1       -0.0130
     21 H          -2.7132   -2.1876    4.8216 H       1  LIG1        0.0464
     22 H          -2.6870   -3.6041    3.7403 H       1  LIG1        0.0464
     23 H          -5.0844   -2.6976    4.7387 H       1  LIG1        0.0281
     24 H          -4.9611   -3.2709    3.0639 H       1  LIG1        0.0281
     25 H          -4.7553   -0.3887    4.0353 H       1  LIG1        0.0281
     26 H          -5.8254   -1.0121    2.7628 H       1  LIG1        0.0281
     27 H          -3.4285    0.1038    2.0977 H       1  LIG1        0.0464
     28 H          -3.9459   -1.3863    1.2623 H       1  LIG1        0.0464
     29 H          -1.2265    0.2761    1.5498 H       1  LIG1        0.0358
     30 H          -1.5292   -1.0416    0.3914 H       1  LIG1        0.0358
     31 H           0.8410   -1.7910    0.6389 H       1  LIG1        0.0270
     32 H           1.1404   -0.5047    1.8023 H       1  LIG1        0.0270
     33 H           0.5861    1.2091    0.0436 H       1  LIG1        0.0269
     34 H           0.3008   -0.0846   -1.1181 H       1  LIG1        0.0269
     35 H           2.6904   -0.8523   -0.8346 H       1  LIG1        0.0313
     36 H           2.9737    0.4417    0.3099 H       1  LIG1        0.0313
     37 H           3.1603    2.8069   -0.4413 H       1  LIG1        0.0621
     38 H           3.7612    4.3258   -2.3206 H       1  LIG1        0.0655
     39 H           2.7177    2.8419   -6.6224 H       1  LIG1        0.1166
     40 H           4.4204    2.3391   -6.4924 H       1  LIG1        0.1166
     41 H           2.4294   -0.3905   -3.2772 H       1  LIG1        0.0658
@<TRIPOS>BOND
     1     1     2    2
     2     2     3   am
     3     3     4    1
     4     4     5    1
     5     5     6    1
     6     6     7    1
     7     3     7    1
     8     2     8    1
     9     8     9    1
    10     9    10    1
    11    10    11    1
    12    11    12    1
    13    12    13   ar
    14    13    14   ar
    15    14    15   ar
    16    15    16   ar
    17    16    17    1
    18    17    18    1
    19    18    19    1
    20    15    19    1
    21    16    20   ar
    22    12    20   ar
    23     4    21    1
    24     4    22    1
    25     5    23    1
    26     5    24    1
    27     6    25    1
    28     6    26    1
    29     7    27    1
    30     7    28    1
    31     8    29    1
    32     8    30    1
    33     9    31    1
    34     9    32    1
    35    10    33    1
    36    10    34    1
    37    11    35    1
    38    11    36    1
    39    13    37    1
    40    14    38    1
    41    18    39    1
    42    18    40    1
    43    20    41    1
