@<TRIPOS>MOLECULE
NuBBE_2358
 82 85 0 0 0
SMALL
GASTEIGER

@<TRIPOS>ATOM
      1 C          -0.7612   -4.7563    0.2802 C.3     1  LIG1       -0.0563
      2 C           0.6644   -4.6982   -0.3471 C.3     1  LIG1        0.0069
      3 C           1.7387   -5.2844    0.6307 C.3     1  LIG1        0.1314
      4 C           1.8893   -4.3807    1.8562 C.2     1  LIG1        0.1655
      5 C           2.2486   -2.9385    1.5774 C.3     1  LIG1        0.0121
      6 C           1.2031   -2.3677    0.6267 C.3     1  LIG1       -0.0275
      7 C           1.0612   -3.2096   -0.6864 C.3     1  LIG1       -0.0291
      8 H           2.0648   -3.2301   -1.1393 H       1  LIG1        0.0310
      9 C           0.1595   -2.5591   -1.7828 C.3     1  LIG1       -0.0488
     10 C           0.1884   -1.0243   -1.8628 C.3     1  LIG1       -0.0468
     11 C           0.1567   -0.3581   -0.4719 C.3     1  LIG1       -0.0259
     12 C          -1.1326   -0.7484    0.3255 C.3     1  LIG1       -0.0590
     13 C           1.4237   -0.9069    0.2415 C.3     1  LIG1       -0.0319
     14 H           2.2881   -0.8720   -0.4422 H       1  LIG1        0.0309
     15 C           1.6941    0.1302    1.3131 C.3     1  LIG1       -0.0492
     16 C           1.5442    1.4309    0.5226 C.3     1  LIG1       -0.0492
     17 C           0.4139    1.1995   -0.5182 C.3     1  LIG1       -0.0328
     18 H           0.8349    1.4578   -1.5010 H       1  LIG1        0.0309
     19 C          -0.8455    2.1107   -0.3270 C.3     1  LIG1       -0.0405
     20 H          -1.2806    1.8744    0.6535 H       1  LIG1        0.0301
     21 C          -1.8817    1.8065   -1.4279 C.3     1  LIG1       -0.0621
     22 C          -0.5231    3.6425   -0.3235 C.3     1  LIG1       -0.0499
     23 C          -1.7495    4.5401   -0.0233 C.3     1  LIG1       -0.0497
     24 C          -1.5257    6.0837   -0.0807 C.3     1  LIG1       -0.0389
     25 C          -2.8479    6.8447    0.2392 C.3     1  LIG1       -0.0528
     26 C          -3.9663    6.6042   -0.7735 C.3     1  LIG1       -0.0650
     27 C          -0.3027    6.6176    0.7388 C.3     1  LIG1       -0.0439
     28 C          -0.1911    8.1526    0.7112 C.3     1  LIG1       -0.0624
     29 C          -0.2148    6.1289    2.1876 C.3     1  LIG1       -0.0624
     30 O           1.7816   -4.8081    3.0233 O.2     1  LIG1       -0.2943
     31 O           3.0374   -5.2420   -0.0072 O.3     1  LIG1       -0.3804
     32 C           1.4555   -6.7533    0.9750 C.3     1  LIG1        0.0096
     33 C           1.3945   -7.6173   -0.2892 C.3     1  LIG1        0.0583
     34 O           2.7050   -7.7462   -0.8437 O.3     1  LIG1       -0.3917
     35 C           0.4543   -7.0623   -1.3614 C.3     1  LIG1       -0.0261
     36 C           0.6537   -5.5649   -1.6387 C.3     1  LIG1       -0.0420
     37 H          -0.8358   -4.1960    1.2152 H       1  LIG1        0.0236
     38 H          -1.0793   -5.7754    0.5134 H       1  LIG1        0.0236
     39 H          -1.5213   -4.3616   -0.4013 H       1  LIG1        0.0236
     40 H           3.2609   -2.8857    1.1644 H       1  LIG1        0.0345
     41 H           2.2398   -2.3876    2.5253 H       1  LIG1        0.0345
     42 H           0.2791   -2.4419    1.2010 H       1  LIG1        0.0310
     43 H          -0.8838   -2.8612   -1.6684 H       1  LIG1        0.0268
     44 H           0.4639   -2.9502   -2.7633 H       1  LIG1        0.0268
     45 H          -0.6393   -0.6830   -2.4920 H       1  LIG1        0.0271
     46 H           1.1035   -0.7267   -2.3949 H       1  LIG1        0.0271
     47 H          -1.3870   -1.8065    0.2177 H       1  LIG1        0.0235
     48 H          -2.0446   -0.2414    0.0225 H       1  LIG1        0.0235
     49 H          -1.0181   -0.5492    1.3958 H       1  LIG1        0.0235
     50 H           2.6957    0.0356    1.7439 H       1  LIG1        0.0268
     51 H           0.9667    0.0893    2.1290 H       1  LIG1        0.0268
     52 H           1.3949    2.2794    1.1909 H       1  LIG1        0.0268
     53 H           2.4804    1.6156   -0.0250 H       1  LIG1        0.0268
     54 H          -1.5832    2.2472   -2.3819 H       1  LIG1        0.0233
     55 H          -2.8709    2.1756   -1.1446 H       1  LIG1        0.0233
     56 H          -2.0177    0.7445   -1.6322 H       1  LIG1        0.0233
     57 H          -0.0875    3.9224   -1.2894 H       1  LIG1        0.0268
     58 H           0.2357    3.8430    0.4335 H       1  LIG1        0.0268
     59 H          -2.1578    4.2664    0.9571 H       1  LIG1        0.0268
     60 H          -2.5274    4.3053   -0.7582 H       1  LIG1        0.0268
     61 H          -1.2926    6.3231   -1.1284 H       1  LIG1        0.0303
     62 H          -2.6688    7.9244    0.2312 H       1  LIG1        0.0265
     63 H          -3.2094    6.5961    1.2442 H       1  LIG1        0.0265
     64 H          -3.5820    6.5668   -1.7979 H       1  LIG1        0.0230
     65 H          -4.6971    7.4204   -0.7267 H       1  LIG1        0.0230
     66 H          -4.5003    5.6730   -0.5643 H       1  LIG1        0.0230
     67 H           0.5979    6.2517    0.2283 H       1  LIG1        0.0298
     68 H          -0.9351    8.6324    1.3572 H       1  LIG1        0.0232
     69 H          -0.3107    8.5394   -0.3062 H       1  LIG1        0.0232
     70 H           0.7940    8.4728    1.0692 H       1  LIG1        0.0232
     71 H          -1.1862    6.1228    2.6884 H       1  LIG1        0.0232
     72 H           0.4637    6.7610    2.7741 H       1  LIG1        0.0232
     73 H           0.1991    5.1172    2.2309 H       1  LIG1        0.0232
     74 H           3.6803   -5.5943    0.6411 H       1  LIG1        0.2108
     75 H           0.5228   -6.8476    1.5434 H       1  LIG1        0.0322
     76 H           2.2565   -7.1336    1.6212 H       1  LIG1        0.0322
     77 H           1.0742   -8.6288   -0.0185 H       1  LIG1        0.0594
     78 H           3.0256   -6.8408   -1.0339 H       1  LIG1        0.2098
     79 H          -0.5840   -7.2406   -1.0597 H       1  LIG1        0.0290
     80 H           0.6039   -7.6067   -2.3018 H       1  LIG1        0.0290
     81 H          -0.1443   -5.2365   -2.3160 H       1  LIG1        0.0272
     82 H           1.5929   -5.4258   -2.1889 H       1  LIG1        0.0272
@<TRIPOS>BOND
     1     1     2    1
     2     2     3    1
     3     3     4    1
     4     4     5    1
     5     5     6    1
     6     6     7    1
     7     7     8    1
     8     2     7    1
     9     7     9    1
    10     9    10    1
    11    10    11    1
    12    11    12    1
    13    11    13    1
    14    13    14    1
    15     6    13    1
    16    13    15    1
    17    15    16    1
    18    16    17    1
    19    11    17    1
    20    19    22    1
    21    22    23    1
    22    23    24    1
    23    24    25    1
    24    25    26    1
    25    24    27    1
    26    27    28    1
    27    27    29    1
    28     4    30    2
    29     3    31    1
    30     3    32    1
    31    32    33    1
    32    33    34    1
    33    33    35    1
    34    35    36    1
    35     2    36    1
    36    17    19    1
    37    17    18    1
    38    19    21    1
    39    19    20    1
    40     1    37    1
    41     1    38    1
    42     1    39    1
    43     5    40    1
    44     5    41    1
    45     6    42    1
    46     9    43    1
    47     9    44    1
    48    10    45    1
    49    10    46    1
    50    12    47    1
    51    12    48    1
    52    12    49    1
    53    15    50    1
    54    15    51    1
    55    16    52    1
    56    16    53    1
    57    21    54    1
    58    21    55    1
    59    21    56    1
    60    22    57    1
    61    22    58    1
    62    23    59    1
    63    23    60    1
    64    24    61    1
    65    25    62    1
    66    25    63    1
    67    26    64    1
    68    26    65    1
    69    26    66    1
    70    27    67    1
    71    28    68    1
    72    28    69    1
    73    28    70    1
    74    29    71    1
    75    29    72    1
    76    29    73    1
    77    31    74    1
    78    32    75    1
    79    32    76    1
    80    33    77    1
    81    34    78    1
    82    35    79    1
    83    35    80    1
    84    36    81    1
    85    36    82    1
