@<TRIPOS>MOLECULE
NuBBE_356
 31 32 0 0 0
SMALL
GASTEIGER

@<TRIPOS>ATOM
      1 O          -1.9913   -3.7508   -0.3376 O.2     1  LIG1       -0.2450
      2 C          -2.3451   -2.6470   -0.7229 C.2     1  LIG1        0.3389
      3 C          -1.5443   -1.4125   -0.5319 C.ar    1  LIG1        0.0599
      4 C          -2.1415   -0.1434   -0.5375 C.ar    1  LIG1       -0.0443
      5 C          -1.3655    0.9990   -0.3288 C.ar    1  LIG1       -0.0184
      6 C           0.0061    0.8825   -0.1081 C.ar    1  LIG1        0.1318
      7 C           0.6022   -0.3772   -0.1180 C.ar    1  LIG1        0.0599
      8 C           2.0619   -0.4705    0.0533 C.2     1  LIG1        0.1704
      9 C           2.8162    0.8286    0.0628 C.3     1  LIG1        0.0499
     10 C           1.9788    1.9365    0.7035 C.3     1  LIG1        0.1121
     11 C           1.8249    1.7540    2.2227 C.3     1  LIG1       -0.0248
     12 C           2.6700    3.2847    0.4472 C.3     1  LIG1       -0.0248
     13 O           0.6807    2.0526    0.0944 O.3     1  LIG1       -0.4851
     14 O           2.6241   -1.5588    0.1072 O.2     1  LIG1       -0.2918
     15 C          -0.1661   -1.5300   -0.3177 C.ar    1  LIG1       -0.0338
     16 O          -3.4869   -2.3568   -1.3922 O.3     1  LIG1       -0.4645
     17 C          -4.3525   -3.4746   -1.5937 C.3     1  LIG1        0.0820
     18 H          -3.2129   -0.0334   -0.6905 H       1  LIG1        0.0627
     19 H          -1.8352    1.9799   -0.3256 H       1  LIG1        0.0654
     20 H           3.0500    1.0630   -0.9830 H       1  LIG1        0.0384
     21 H           3.7575    0.6921    0.6070 H       1  LIG1        0.0384
     22 H           2.7978    1.7557    2.7256 H       1  LIG1        0.0268
     23 H           1.3157    0.8181    2.4746 H       1  LIG1        0.0268
     24 H           1.2137    2.5584    2.6485 H       1  LIG1        0.0268
     25 H           3.6754    3.3142    0.8796 H       1  LIG1        0.0268
     26 H           2.0852    4.1105    0.8692 H       1  LIG1        0.0268
     27 H           2.7484    3.4835   -0.6282 H       1  LIG1        0.0268
     28 H           0.3083   -2.5106   -0.3202 H       1  LIG1        0.0634
     29 H          -5.3134   -3.0932   -1.9503 H       1  LIG1        0.0661
     30 H          -4.5250   -4.0117   -0.6556 H       1  LIG1        0.0661
     31 H          -3.9373   -4.1428   -2.3540 H       1  LIG1        0.0661
@<TRIPOS>BOND
     1     1     2    2
     2     2     3    1
     3     3     4   ar
     4     4     5   ar
     5     5     6   ar
     6     6     7   ar
     7     7     8    1
     8     8     9    1
     9     9    10    1
    10    10    11    1
    11    10    12    1
    12    10    13    1
    13     6    13    1
    14     8    14    2
    15     7    15   ar
    16     3    15   ar
    17     2    16    1
    18    16    17    1
    19     4    18    1
    20     5    19    1
    21     9    20    1
    22     9    21    1
    23    11    22    1
    24    11    23    1
    25    11    24    1
    26    12    25    1
    27    12    26    1
    28    12    27    1
    29    15    28    1
    30    17    29    1
    31    17    30    1
    32    17    31    1
