REMARK  Name = NuBBE_1668
REMARK  16 active torsions:
REMARK  status: ('A' for Active; 'I' for Inactive)
REMARK    1  A    between atoms: C_1  and  O_2
REMARK    2  A    between atoms: O_2  and  C_3
REMARK    3  A    between atoms: C_4  and  O_5
REMARK    4  A    between atoms: O_5  and  C_6
REMARK    5  A    between atoms: C_9  and  C_10
REMARK    6  A    between atoms: C_10  and  C_11
REMARK    7  A    between atoms: C_11  and  C_13
REMARK    8  A    between atoms: C_11  and  C_14
REMARK    9  A    between atoms: C_14  and  C_16
REMARK   10  A    between atoms: C_14  and  C_17
REMARK   11  A    between atoms: C_17  and  C_19
REMARK   12  A    between atoms: C_17  and  O_29
REMARK   13  A    between atoms: C_22  and  O_23
REMARK   14  A    between atoms: O_23  and  C_24
REMARK   15  A    between atoms: C_25  and  O_26
REMARK   16  A    between atoms: O_26  and  C_27
REMARK                            x       y       z     vdW  Elec       q    Type
REMARK                         _______ _______ _______ _____ _____    ______ ____
ROOT
ATOM      1  C   LIG A   1       0.335   0.422   0.043  0.00  0.00    +0.022 C 
ATOM      2  C   LIG A   1      -0.624   1.622  -0.084  0.00  0.00    +0.010 C 
ENDROOT
BRANCH   1   3
ATOM      3  C   LIG A   1      -0.459  -0.903   0.324  0.00  0.00    -0.004 C 
ATOM      4  C   LIG A   1       0.422  -2.159   0.432  0.00  0.00    +0.008 C 
BRANCH   3   5
ATOM      5  C   LIG A   1      -1.394  -0.821   1.569  0.00  0.00    +0.039 C 
BRANCH   5  10
ATOM      6  C   LIG A   1       0.486   0.406   4.676  0.00  0.00    +0.162 A 
ATOM      7  C   LIG A   1       0.685  -0.802   5.370  0.00  0.00    +0.162 A 
ATOM      8  C   LIG A   1       0.186  -1.991   4.831  0.00  0.00    +0.050 A 
ATOM      9  C   LIG A   1      -0.496  -1.987   3.614  0.00  0.00    +0.007 A 
ATOM     10  C   LIG A   1      -0.697  -0.796   2.911  0.00  0.00    -0.043 A 
ATOM     11  C   LIG A   1      -0.223   0.401   3.467  0.00  0.00    +0.053 A 
BRANCH   6  13
ATOM     12  C   LIG A   1       1.175   2.669   4.409  0.00  0.00    +0.277 C 
ATOM     13  O   LIG A   1       0.999   1.541   5.256  0.00  0.00    -0.491 OA
ENDBRANCH   6  13
BRANCH   7  14
ATOM     14  O   LIG A   1       1.386  -0.725   6.549  0.00  0.00    -0.491 OA
ATOM     15  C   LIG A   1       1.631  -1.944   7.237  0.00  0.00    +0.277 C 
ENDBRANCH   7  14
ENDBRANCH   5  10
ENDBRANCH   3   5
ENDBRANCH   1   3
BRANCH   1  16
ATOM     16  C   LIG A   1       1.319   0.442  -1.170  0.00  0.00    +0.148 C 
BRANCH  16  17
ATOM     17  C   LIG A   1       0.696   0.325  -2.546  0.00  0.00    -0.015 A 
ATOM     18  C   LIG A   1       0.155  -0.874  -2.997  0.00  0.00    +0.010 A 
ATOM     19  C   LIG A   1      -0.472  -0.964  -4.241  0.00  0.00    +0.050 A 
ATOM     20  C   LIG A   1      -0.569   0.155  -5.076  0.00  0.00    +0.162 A 
ATOM     21  C   LIG A   1       0.028   1.358  -4.671  0.00  0.00    +0.162 A 
ATOM     22  C   LIG A   1       0.656   1.428  -3.416  0.00  0.00    +0.055 A 
BRANCH  20  23
ATOM     23  O   LIG A   1      -1.166   0.067  -6.306  0.00  0.00    -0.491 OA
ATOM     24  C   LIG A   1      -2.321  -0.769  -6.351  0.00  0.00    +0.277 C 
ENDBRANCH  20  23
BRANCH  21  25
ATOM     25  O   LIG A   1       0.108   2.532  -5.377  0.00  0.00    -0.491 OA
ATOM     26  C   LIG A   1      -0.904   2.782  -6.342  0.00  0.00    +0.277 C 
ENDBRANCH  21  25
ENDBRANCH  16  17
BRANCH  16  27
ATOM     27  O   LIG A   1       2.345  -0.534  -1.014  0.00  0.00    -0.387 OA
ATOM     28  H   LIG A   1       2.878  -0.512  -1.828  0.00  0.00    +0.210 HD
ENDBRANCH  16  27
ENDBRANCH   1  16
TORSDOF 10
