@<TRIPOS>MOLECULE
NuBBE_2490
 51 53 0 0 0
SMALL
GASTEIGER

@<TRIPOS>ATOM
      1 C          -2.5485    0.4430    0.6641 C.3     1  LIG1       -0.0553
      2 C          -1.0532    0.0694    0.8892 C.3     1  LIG1       -0.0035
      3 C          -0.2602    1.0448   -0.0270 C.ar    1  LIG1       -0.0377
      4 C           0.4154    0.6179   -1.1963 C.ar    1  LIG1       -0.0401
      5 C           0.9793    1.5703   -2.1039 C.ar    1  LIG1       -0.0388
      6 C           1.6143    1.1066   -3.4072 C.3     1  LIG1       -0.0299
      7 C           3.1170    0.8943   -3.2953 C.3     1  LIG1       -0.0612
      8 C           0.9329    2.9480   -1.7861 C.ar    1  LIG1       -0.0187
      9 C           0.3208    3.3498   -0.5921 C.ar    1  LIG1       -0.0558
     10 C          -0.2793    2.4217    0.2531 C.ar    1  LIG1       -0.0574
     11 C           1.5515    4.0340   -2.6363 C.3     1  LIG1        0.0695
     12 O           2.9064    4.2554   -2.2670 O.3     1  LIG1       -0.3904
     13 C           0.4882   -0.8587   -1.4992 C.3     1  LIG1       -0.0268
     14 C           0.4491   -1.6935   -0.2327 C.3     1  LIG1       -0.0449
     15 C          -0.8592   -1.4587    0.5335 C.3     1  LIG1       -0.0262
     16 H          -1.6604   -1.7022   -0.1817 H       1  LIG1        0.0314
     17 C          -1.0114   -2.4785    1.7379 C.3     1  LIG1       -0.0312
     18 C           0.3304   -2.8981    2.3870 C.3     1  LIG1       -0.0595
     19 C          -1.6704   -3.7753    1.2070 C.3     1  LIG1       -0.0595
     20 C          -1.9219   -1.9073    2.8388 C.3     1  LIG1       -0.0476
     21 C          -1.4570   -0.5579    3.3733 C.3     1  LIG1       -0.0518
     22 C          -0.6726    0.2935    2.3739 C.3     1  LIG1       -0.0433
     23 H          -2.7972    0.4360   -0.4049 H       1  LIG1        0.0238
     24 H          -2.7801    1.4448    1.0444 H       1  LIG1        0.0238
     25 H          -3.2427   -0.2442    1.1495 H       1  LIG1        0.0238
     26 H           1.1382    0.1833   -3.7563 H       1  LIG1        0.0311
     27 H           1.3986    1.8169   -4.2116 H       1  LIG1        0.0311
     28 H           3.3646    0.1617   -2.5209 H       1  LIG1        0.0233
     29 H           3.6396    1.8234   -3.0525 H       1  LIG1        0.0233
     30 H           3.5150    0.5282   -4.2473 H       1  LIG1        0.0233
     31 H           0.2838    4.4035   -0.3227 H       1  LIG1        0.0621
     32 H          -0.7918    2.8073    1.1321 H       1  LIG1        0.0621
     33 H           1.5072    3.8125   -3.7045 H       1  LIG1        0.0607
     34 H           1.0087    4.9772   -2.5050 H       1  LIG1        0.0607
     35 H           3.1166    3.6403   -1.5431 H       1  LIG1        0.2098
     36 H           1.4270   -1.1066   -2.0031 H       1  LIG1        0.0313
     37 H          -0.3373   -1.1294   -2.1685 H       1  LIG1        0.0313
     38 H           1.3153   -1.4434    0.3927 H       1  LIG1        0.0271
     39 H           0.5427   -2.7488   -0.5148 H       1  LIG1        0.0271
     40 H           0.9192   -2.0412    2.7235 H       1  LIG1        0.0235
     41 H           0.9517   -3.4814    1.6990 H       1  LIG1        0.0235
     42 H           0.1569   -3.5350    3.2630 H       1  LIG1        0.0235
     43 H          -2.6581   -3.5714    0.7777 H       1  LIG1        0.0235
     44 H          -1.8072   -4.5085    2.0102 H       1  LIG1        0.0235
     45 H          -1.0599   -4.2461    0.4291 H       1  LIG1        0.0235
     46 H          -2.0027   -2.6095    3.6796 H       1  LIG1        0.0271
     47 H          -2.9470   -1.8170    2.4616 H       1  LIG1        0.0271
     48 H          -0.8338   -0.7093    4.2636 H       1  LIG1        0.0266
     49 H          -2.3363   -0.0005    3.7201 H       1  LIG1        0.0266
     50 H           0.4010    0.1004    2.4971 H       1  LIG1        0.0274
     51 H          -0.8031    1.3381    2.6790 H       1  LIG1        0.0274
@<TRIPOS>BOND
     1     2     3    1
     2     3     4   ar
     3     4     5   ar
     4     6     7    1
     5     5     8   ar
     6     8     9   ar
     7     9    10   ar
     8     3    10   ar
     9    11    12    1
    10     4    13    1
    11    13    14    1
    12    14    15    1
    13     2    15    1
    14    15    17    1
    15    17    20    1
    16    20    21    1
    17    21    22    1
    18     2    22    1
    19     1     2    1
    20     5     6    1
    21     8    11    1
    22    15    16    1
    23    17    18    1
    24    17    19    1
    25     1    23    1
    26     1    24    1
    27     1    25    1
    28     6    26    1
    29     6    27    1
    30     7    28    1
    31     7    29    1
    32     7    30    1
    33     9    31    1
    34    10    32    1
    35    11    33    1
    36    11    34    1
    37    12    35    1
    38    13    36    1
    39    13    37    1
    40    14    38    1
    41    14    39    1
    42    18    40    1
    43    18    41    1
    44    18    42    1
    45    19    43    1
    46    19    44    1
    47    19    45    1
    48    20    46    1
    49    20    47    1
    50    21    48    1
    51    21    49    1
    52    22    50    1
    53    22    51    1
