@<TRIPOS>MOLECULE
NuBBE_142
 74 78 0 0 0
SMALL
GASTEIGER

@<TRIPOS>ATOM
      1 O           5.5982    4.1178    3.2231 O.3     1  LIG1       -0.5065
      2 C           4.4462    3.5769    2.7387 C.ar    1  LIG1        0.1239
      3 C           3.4802    3.0413    3.5848 C.ar    1  LIG1        0.0223
      4 C           2.3125    2.5118    3.0319 C.ar    1  LIG1        0.1348
      5 O           1.3921    1.9503    3.8779 O.3     1  LIG1       -0.5058
      6 C           2.1025    2.5156    1.6385 C.ar    1  LIG1        0.1092
      7 C           0.8397    2.0488    1.0018 C.ar    1  LIG1        0.2382
      8 C           0.8842    1.8320   -0.5139 C.ar    1  LIG1        0.2138
      9 O          -0.1858    1.2478   -1.1970 O.3     1  LIG1       -0.4532
     10 C          -1.5312    1.3312   -0.6617 C.3     1  LIG1        0.2315
     11 H          -1.5960    2.2329   -0.0443 H       1  LIG1        0.1084
     12 C          -1.9021    0.0691    0.2170 C.3     1  LIG1        0.1519
     13 H          -1.5655    0.2745    1.2313 H       1  LIG1        0.0687
     14 C          -3.4126   -0.1141    0.2468 C.3     1  LIG1        0.1155
     15 H          -3.6675   -1.0473    0.7481 H       1  LIG1        0.0648
     16 C          -4.0069   -0.2102   -1.1516 C.3     1  LIG1        0.1120
     17 H          -5.0636    0.0741   -1.0669 H       1  LIG1        0.0647
     18 C          -3.3086    0.6396   -2.2303 C.3     1  LIG1        0.1140
     19 H          -2.6704    0.0372   -2.8880 H       1  LIG1        0.0647
     20 O          -2.5021    1.6826   -1.6884 O.3     1  LIG1       -0.3313
     21 C          -4.4706    1.2074   -3.0982 C.3     1  LIG1        0.0731
     22 O          -4.0404    1.9940   -4.1999 O.3     1  LIG1       -0.3924
     23 O          -3.9984   -1.5875   -1.5697 O.3     1  LIG1       -0.3865
     24 O          -4.0507    0.8973    1.0227 O.3     1  LIG1       -0.3863
     25 O          -1.2487   -1.1626   -0.1887 O.3     1  LIG1       -0.3366
     26 C          -1.3959   -2.2793    0.7413 C.3     1  LIG1        0.1886
     27 H          -2.4553   -2.5475    0.7756 H       1  LIG1        0.0938
     28 O          -0.9650   -1.9654    2.0684 O.3     1  LIG1       -0.3405
     29 C          -1.0954   -3.0755    2.9743 C.3     1  LIG1        0.1130
     30 H          -2.1338   -3.4365    2.9745 H       1  LIG1        0.0647
     31 C          -0.1568   -4.2233    2.5668 C.3     1  LIG1        0.1119
     32 H           0.8905   -3.9095    2.6589 H       1  LIG1        0.0647
     33 C          -0.4543   -4.6561    1.1342 C.3     1  LIG1        0.1141
     34 H          -1.3429   -5.3006    1.1286 H       1  LIG1        0.0648
     35 C          -0.6353   -3.4923    0.1495 C.3     1  LIG1        0.1341
     36 H           0.3487   -3.1638   -0.1966 H       1  LIG1        0.0671
     37 O          -1.3181   -3.9828   -1.0299 O.3     1  LIG1       -0.3841
     38 O           0.6241   -5.4967    0.6793 O.3     1  LIG1       -0.3864
     39 O          -0.3166   -5.3968    3.3858 O.3     1  LIG1       -0.3865
     40 C          -0.7738   -2.6139    4.4068 C.3     1  LIG1        0.0730
     41 O          -0.8878   -3.7115    5.3164 O.3     1  LIG1       -0.3924
     42 C           2.0246    2.2182   -1.1485 C.ar    1  LIG1        0.1810
     43 O           3.0511    2.9266   -0.5437 O.2     1  LIG1       -0.4507
     44 C           3.1139    3.0000    0.8146 C.ar    1  LIG1        0.1465
     45 C           4.2728    3.5529    1.3618 C.ar    1  LIG1        0.0231
     46 C           2.3241    1.9283   -2.5780 C.ar    1  LIG1        0.0247
     47 C           3.1424    2.7940   -3.3379 C.ar    1  LIG1       -0.0057
     48 C           3.4155    2.5027   -4.6742 C.ar    1  LIG1        0.1589
     49 O           4.2511    3.2857   -5.4228 O.3     1  LIG1       -0.5033
     50 C           2.8678    1.3823   -5.2833 C.ar    1  LIG1        0.1583
     51 C           2.1394    0.4736   -4.5392 C.ar    1  LIG1       -0.0159
     52 C           1.8995    0.7327   -3.1859 C.ar    1  LIG1       -0.0473
     53 O           3.0641    1.1579   -6.6144 O.3     1  LIG1       -0.5033
     54 O          -0.1317    1.8679    1.6549 O.2     1  LIG1       -0.2830
     55 H           5.5499    4.1722    4.1919 H       1  LIG1        0.2921
     56 H           3.6388    3.0309    4.6587 H       1  LIG1        0.0691
     57 H           1.7599    1.8714    4.7723 H       1  LIG1        0.2922
     58 H          -5.0630    0.3771   -3.5059 H       1  LIG1        0.0584
     59 H          -5.1375    1.8293   -2.4878 H       1  LIG1        0.0584
     60 H          -4.8480    2.3582   -4.6052 H       1  LIG1        0.2095
     61 H          -3.0669   -1.8133   -1.7632 H       1  LIG1        0.2100
     62 H          -4.1451    0.5251    1.9208 H       1  LIG1        0.2100
     63 H          -2.2800   -3.9692   -0.8721 H       1  LIG1        0.2101
     64 H           0.6438   -6.2620    1.2846 H       1  LIG1        0.2100
     65 H          -0.4644   -5.0904    4.3083 H       1  LIG1        0.2100
     66 H          -1.4651   -1.8255    4.7210 H       1  LIG1        0.0584
     67 H           0.2435   -2.2123    4.4664 H       1  LIG1        0.0584
     68 H          -0.8089   -3.3487    6.2181 H       1  LIG1        0.2095
     69 H           5.0491    3.9483    0.7116 H       1  LIG1        0.0691
     70 H           3.5516    3.6982   -2.8963 H       1  LIG1        0.0662
     71 H           5.0349    3.4545   -4.8686 H       1  LIG1        0.2923
     72 H           1.7580   -0.4315   -5.0006 H       1  LIG1        0.0655
     73 H           1.3651   -0.0214   -2.6115 H       1  LIG1        0.0626
     74 H           3.4829    1.9773   -6.9440 H       1  LIG1        0.2923
@<TRIPOS>BOND
     1     1     2    1
     2     2     3   ar
     3     3     4   ar
     4     4     5    1
     5     4     6   ar
     6     6     7   ar
     7     7     8   ar
     8     8     9    1
     9     9    10    1
    10    10    11    1
    11    10    12    1
    12    12    14    1
    13    14    16    1
    14    16    17    1
    15    16    18    1
    16    18    20    1
    17    10    20    1
    18    21    22    1
    19    16    23    1
    20    26    28    1
    21    28    29    1
    22    29    30    1
    23    29    31    1
    24    31    33    1
    25    33    34    1
    26    33    35    1
    27    26    35    1
    28    33    38    1
    29    29    40    1
    30    40    41    1
    31     8    42   ar
    32    42    43   ar
    33    43    44   ar
    34     6    44   ar
    35    44    45   ar
    36     2    45   ar
    37    42    46    1
    38    46    47   ar
    39    47    48   ar
    40    48    49    1
    41    48    50   ar
    42    50    51   ar
    43    51    52   ar
    44    46    52   ar
    45    50    53    1
    46     7    54    2
    47    12    25    1
    48    12    13    1
    49    14    24    1
    50    14    15    1
    51    18    21    1
    52    18    19    1
    53    26    27    1
    54    26    25    1
    55    31    39    1
    56    31    32    1
    57    35    37    1
    58    35    36    1
    59     1    55    1
    60     3    56    1
    61     5    57    1
    62    21    58    1
    63    21    59    1
    64    22    60    1
    65    23    61    1
    66    24    62    1
    67    37    63    1
    68    38    64    1
    69    39    65    1
    70    40    66    1
    71    40    67    1
    72    41    68    1
    73    45    69    1
    74    47    70    1
    75    49    71    1
    76    51    72    1
    77    52    73    1
    78    53    74    1
