@<TRIPOS>MOLECULE
NuBBE_1198
 27 27 0 0 0
SMALL
GASTEIGER

@<TRIPOS>ATOM
      1 O          -2.8437    1.4649    1.7720 O.2     1  LIG1       -0.2449
      2 C          -1.7342    1.8098    1.4332 C.2     1  LIG1        0.3440
      3 O          -1.2504    3.0429    1.7321 O.3     1  LIG1       -0.4770
      4 C          -0.7656    0.9387    0.6889 C.ar    1  LIG1        0.1419
      5 C           0.1526    1.4712   -0.2495 C.ar    1  LIG1        0.1411
      6 O           0.1925    2.8392   -0.3907 O.3     1  LIG1       -0.4940
      7 C           1.1070    3.3748   -1.3476 C.3     1  LIG1        0.0788
      8 C           0.9843    0.6046   -0.9737 C.ar    1  LIG1        0.0228
      9 C           0.9502   -0.7694   -0.7543 C.ar    1  LIG1        0.1271
     10 O           1.8314   -1.5112   -1.4938 O.3     1  LIG1       -0.4949
     11 C           1.8317   -2.9153   -1.2444 C.3     1  LIG1        0.0788
     12 C           0.0592   -1.2870    0.1766 C.ar    1  LIG1        0.0228
     13 C          -0.8134   -0.4573    0.8877 C.ar    1  LIG1        0.1411
     14 O          -1.6548   -0.9729    1.8427 O.3     1  LIG1       -0.4940
     15 C          -2.1302   -2.2996    1.6176 C.3     1  LIG1        0.0788
     16 H          -0.4128    3.2467    1.2671 H       1  LIG1        0.2954
     17 H           1.1144    4.4627   -1.2341 H       1  LIG1        0.0660
     18 H           0.7820    3.1405   -2.3668 H       1  LIG1        0.0660
     19 H           2.1292    3.0265   -1.1657 H       1  LIG1        0.0660
     20 H           1.6818    0.9658   -1.7229 H       1  LIG1        0.0691
     21 H           2.5857   -3.3781   -1.8854 H       1  LIG1        0.0660
     22 H           0.8610   -3.3573   -1.4969 H       1  LIG1        0.0660
     23 H           2.1015   -3.1288   -0.2035 H       1  LIG1        0.0660
     24 H           0.0520   -2.3509    0.3616 H       1  LIG1        0.0691
     25 H          -2.8218   -2.5567    2.4240 H       1  LIG1        0.0660
     26 H          -1.3219   -3.0366    1.6605 H       1  LIG1        0.0660
     27 H          -2.6676   -2.3672    0.6651 H       1  LIG1        0.0660
@<TRIPOS>BOND
     1     1     2    2
     2     2     3    1
     3     2     4    1
     4     4     5   ar
     5     5     6    1
     6     6     7    1
     7     5     8   ar
     8     8     9   ar
     9     9    10    1
    10    10    11    1
    11     9    12   ar
    12    12    13   ar
    13     4    13   ar
    14    13    14    1
    15    14    15    1
    16     3    16    1
    17     7    17    1
    18     7    18    1
    19     7    19    1
    20     8    20    1
    21    11    21    1
    22    11    22    1
    23    11    23    1
    24    12    24    1
    25    15    25    1
    26    15    26    1
    27    15    27    1
