@<TRIPOS>MOLECULE
NuBBE_2447
 31 33 0 0 0
SMALL
GASTEIGER

@<TRIPOS>ATOM
      1 O          -2.2776    0.0465    2.3131 O.2     1  LIG1       -0.2890
      2 C          -1.1498    0.2328    1.8656 C.2     1  LIG1        0.1988
      3 C          -0.2836   -0.9059    1.5076 C.ar    1  LIG1        0.0620
      4 C           0.9706   -0.6528    0.9498 C.ar    1  LIG1        0.1355
      5 O           1.4415    0.6046    0.6759 O.3     1  LIG1       -0.4804
      6 C           0.4073    1.6012    0.4833 C.3     1  LIG1        0.1581
      7 H           0.9433    2.5604    0.5050 H       1  LIG1        0.0815
      8 C          -0.5437    1.6143    1.6910 C.3     1  LIG1        0.1583
      9 H          -1.3511    2.3378    1.5385 H       1  LIG1        0.0718
     10 O           0.1543    2.0054    2.8786 O.3     1  LIG1       -0.3798
     11 C          -0.1815    1.4960   -0.9198 C.ar    1  LIG1       -0.0044
     12 C          -1.5598    1.4662   -1.1818 C.ar    1  LIG1       -0.0550
     13 C          -2.0359    1.3784   -2.4935 C.ar    1  LIG1       -0.0614
     14 C          -1.1463    1.3273   -3.5632 C.ar    1  LIG1       -0.0617
     15 C           0.2235    1.3664   -3.3250 C.ar    1  LIG1       -0.0614
     16 C           0.7008    1.4528   -2.0162 C.ar    1  LIG1       -0.0550
     17 C           1.8337   -1.7118    0.6665 C.ar    1  LIG1        0.0223
     18 C           1.4171   -3.0165    0.9177 C.ar    1  LIG1        0.1204
     19 C           0.1601   -3.2773    1.4553 C.ar    1  LIG1       -0.0193
     20 C          -0.6967   -2.2184    1.7557 C.ar    1  LIG1       -0.0442
     21 O           2.2218   -4.0832    0.6477 O.3     1  LIG1       -0.5066
     22 H           0.9391    1.4341    2.9646 H       1  LIG1        0.2105
     23 H          -2.2993    1.5082   -0.3854 H       1  LIG1        0.0621
     24 H          -3.1073    1.3507   -2.6792 H       1  LIG1        0.0618
     25 H          -1.5215    1.2593   -4.5809 H       1  LIG1        0.0618
     26 H           0.9216    1.3299   -4.1573 H       1  LIG1        0.0618
     27 H           1.7770    1.4832   -1.8524 H       1  LIG1        0.0621
     28 H           2.8118   -1.5056    0.2437 H       1  LIG1        0.0691
     29 H          -0.1487   -4.3021    1.6456 H       1  LIG1        0.0654
     30 H          -1.6742   -2.4185    2.1896 H       1  LIG1        0.0627
     31 H           3.0534   -3.7634    0.2600 H       1  LIG1        0.2921
@<TRIPOS>BOND
     1     1     2    2
     2     2     3    1
     3     3     4   ar
     4     4     5    1
     5     5     6    1
     6     6     8    1
     7     2     8    1
     8    11    12   ar
     9    12    13   ar
    10    13    14   ar
    11    14    15   ar
    12    15    16   ar
    13    11    16   ar
    14     4    17   ar
    15    17    18   ar
    16    18    19   ar
    17    19    20   ar
    18     3    20   ar
    19    18    21    1
    20     8    10    1
    21     8     9    1
    22     6    11    1
    23     6     7    1
    24    10    22    1
    25    12    23    1
    26    13    24    1
    27    14    25    1
    28    15    26    1
    29    16    27    1
    30    17    28    1
    31    19    29    1
    32    20    30    1
    33    21    31    1
