@<TRIPOS>MOLECULE
NuBBE_2365
 42 45 0 0 0
SMALL
GASTEIGER

@<TRIPOS>ATOM
      1 C          -3.3662   -2.0321    1.5386 C.3     1  LIG1       -0.0649
      2 C          -2.3322   -1.9344    0.4235 C.3     1  LIG1       -0.0508
      3 C          -1.3533   -0.7602    0.6179 C.3     1  LIG1       -0.0146
      4 H          -1.9917    0.1267    0.7632 H       1  LIG1        0.0325
      5 C          -0.4523   -0.4816   -0.6371 C.3     1  LIG1        0.0412
      6 H          -1.1028   -0.3615   -1.5139 H       1  LIG1        0.0516
      7 C           0.2744    0.8292   -0.4049 C.ar    1  LIG1        0.0026
      8 C           0.5904    1.2478    0.8753 C.ar    1  LIG1        0.0479
      9 C           0.2623    0.5201    2.0551 C.2     1  LIG1       -0.0273
     10 C          -0.4078   -0.8678    1.8533 C.3     1  LIG1       -0.0088
     11 H          -0.9811   -1.1110    2.7553 H       1  LIG1        0.0353
     12 C           0.6895   -1.9294    1.6347 C.3     1  LIG1       -0.0330
     13 C           0.8137   -2.4579    0.1985 C.3     1  LIG1       -0.0003
     14 N           0.6031   -1.4800   -0.8642 N.3     1  LIG1       -0.2981
     15 C           0.5027   -2.1106   -2.1733 C.3     1  LIG1       -0.0122
     16 C           0.4637    1.0278    3.2811 C.2     1  LIG1       -0.0933
     17 N           1.2409    2.4417    0.7938 N.ar    1  LIG1       -0.3541
     18 H           1.6039    2.9741    1.5695 H       1  LIG1        0.1659
     19 C           1.3314    2.8313   -0.5286 C.ar    1  LIG1        0.0472
     20 C           0.7326    1.8318   -1.3044 C.ar    1  LIG1        0.0049
     21 C           0.6996    1.9932   -2.7034 C.ar    1  LIG1       -0.0523
     22 C           1.2603    3.1398   -3.2778 C.ar    1  LIG1       -0.0611
     23 C           1.8493    4.1185   -2.4805 C.ar    1  LIG1       -0.0598
     24 C           1.8972    3.9829   -1.0897 C.ar    1  LIG1       -0.0378
     25 H          -4.0986   -2.8109    1.3025 H       1  LIG1        0.0230
     26 H          -3.9063   -1.0880    1.6606 H       1  LIG1        0.0230
     27 H          -2.9024   -2.2936    2.4939 H       1  LIG1        0.0230
     28 H          -2.8673   -1.7907   -0.5234 H       1  LIG1        0.0266
     29 H          -1.8274   -2.8977    0.3480 H       1  LIG1        0.0266
     30 H           0.4770   -2.7865    2.2873 H       1  LIG1        0.0283
     31 H           1.6674   -1.5508    1.9607 H       1  LIG1        0.0283
     32 H           0.1385   -3.3121    0.0777 H       1  LIG1        0.0427
     33 H           1.8202   -2.8828    0.0886 H       1  LIG1        0.0427
     34 H           1.3618   -2.7656   -2.3566 H       1  LIG1        0.0391
     35 H           0.5095   -1.3596   -2.9707 H       1  LIG1        0.0391
     36 H          -0.4116   -2.7070   -2.2682 H       1  LIG1        0.0391
     37 H           0.9010    2.0020    3.4617 H       1  LIG1        0.0538
     38 H           0.1854    0.4605    4.1645 H       1  LIG1        0.0538
     39 H           0.2475    1.2332   -3.3324 H       1  LIG1        0.0624
     40 H           1.2372    3.2639   -4.3573 H       1  LIG1        0.0618
     41 H           2.2813    5.0012   -2.9461 H       1  LIG1        0.0618
     42 H           2.3593    4.7461   -0.4726 H       1  LIG1        0.0638
@<TRIPOS>BOND
     1     1     2    1
     2     3     5    1
     3     5     6    1
     4     5     7    1
     5     7     8   ar
     6     8     9    1
     7     9    10    1
     8    10    11    1
     9     3    10    1
    10    10    12    1
    11    12    13    1
    12    13    14    1
    13     5    14    1
    14    14    15    1
    15     9    16    2
    16     8    17   ar
    17    17    18    1
    18    17    19   ar
    19    19    20   ar
    20     7    20   ar
    21    20    21   ar
    22    21    22   ar
    23    22    23   ar
    24    23    24   ar
    25    19    24   ar
    26     3     4    1
    27     3     2    1
    28     1    25    1
    29     1    26    1
    30     1    27    1
    31     2    28    1
    32     2    29    1
    33    12    30    1
    34    12    31    1
    35    13    32    1
    36    13    33    1
    37    15    34    1
    38    15    35    1
    39    15    36    1
    40    16    37    1
    41    16    38    1
    42    21    39    1
    43    22    40    1
    44    23    41    1
    45    24    42    1
