@<TRIPOS>MOLECULE
NuBBE_1100
 36 39 0 0 0
SMALL
GASTEIGER

@<TRIPOS>ATOM
      1 O          -4.0433   -1.9563   -0.0243 O.2     1  LIG1       -0.2864
      2 C          -2.8169   -2.0046   -0.0262 C.ar    1  LIG1        0.2003
      3 C          -2.0975   -3.2412   -0.0247 C.ar    1  LIG1        0.0853
      4 C          -0.7306   -3.2206   -0.0249 C.ar    1  LIG1        0.2119
      5 O          -0.2385   -4.4864   -0.0232 O.2     1  LIG1       -0.4465
      6 C          -1.3121   -5.3221   -0.0216 C.ar    1  LIG1        0.0951
      7 C          -2.4861   -4.6011   -0.0226 C.ar    1  LIG1       -0.0108
      8 N           0.0774   -2.1309   -0.0264 N.ar    1  LIG1       -0.3132
      9 C           1.5105   -2.3797   -0.0208 C.3     1  LIG1        0.0152
     10 C          -0.5208   -0.8298   -0.0344 C.ar    1  LIG1        0.0659
     11 C           0.1717    0.4270   -0.0445 C.ar    1  LIG1        0.0408
     12 C          -0.5781    1.6342   -0.0458 C.ar    1  LIG1        0.1309
     13 O          -0.0509    2.9007   -0.0630 O.3     1  LIG1       -0.4816
     14 C           1.3660    3.0904    0.0288 C.3     1  LIG1        0.1235
     15 C           1.6448    3.8047    1.3543 C.3     1  LIG1       -0.0215
     16 C           1.7683    3.9757   -1.1554 C.3     1  LIG1       -0.0215
     17 C           2.1693    1.8319   -0.0236 C.2     1  LIG1       -0.0408
     18 C           1.6269    0.6145   -0.0644 C.2     1  LIG1       -0.0493
     19 C          -1.9731    1.6413   -0.0440 C.ar    1  LIG1       -0.0185
     20 C          -2.6699    0.4491   -0.0361 C.ar    1  LIG1       -0.0454
     21 C          -1.9673   -0.7632   -0.0315 C.ar    1  LIG1        0.0468
     22 H          -1.0779   -6.3775   -0.0199 H       1  LIG1        0.1030
     23 H          -3.4898   -5.0004   -0.0220 H       1  LIG1        0.0657
     24 H           1.7776   -3.4424    0.0068 H       1  LIG1        0.0457
     25 H           1.9731   -1.9545    0.8759 H       1  LIG1        0.0457
     26 H           1.9689   -2.0031   -0.9411 H       1  LIG1        0.0457
     27 H           1.0873    4.7455    1.4197 H       1  LIG1        0.0271
     28 H           2.7106    4.0232    1.4858 H       1  LIG1        0.0271
     29 H           1.3159    3.1910    2.2024 H       1  LIG1        0.0271
     30 H           1.2013    4.9131   -1.1579 H       1  LIG1        0.0271
     31 H           1.5434    3.4762   -2.1064 H       1  LIG1        0.0271
     32 H           2.8372    4.2169   -1.1430 H       1  LIG1        0.0271
     33 H           3.2526    1.9269   -0.0289 H       1  LIG1        0.0611
     34 H           2.3216   -0.1993   -0.1129 H       1  LIG1        0.0623
     35 H          -2.5135    2.5853   -0.0495 H       1  LIG1        0.0654
     36 H          -3.7580    0.4654   -0.0348 H       1  LIG1        0.0626
@<TRIPOS>BOND
     1     1     2    2
     2     2     3   ar
     3     3     4   ar
     4     4     5   ar
     5     5     6   ar
     6     6     7   ar
     7     3     7   ar
     8     4     8   ar
     9     8     9    1
    10     8    10   ar
    11    10    11   ar
    12    11    12   ar
    13    12    13    1
    14    13    14    1
    15    14    15    1
    16    14    16    1
    17    14    17    1
    18    17    18    2
    19    11    18    1
    20    12    19   ar
    21    19    20   ar
    22    20    21   ar
    23    10    21   ar
    24     2    21   ar
    25     6    22    1
    26     7    23    1
    27     9    24    1
    28     9    25    1
    29     9    26    1
    30    15    27    1
    31    15    28    1
    32    15    29    1
    33    16    30    1
    34    16    31    1
    35    16    32    1
    36    17    33    1
    37    18    34    1
    38    19    35    1
    39    20    36    1
