@<TRIPOS>MOLECULE
NuBBE_313
 83 84 0 0 0
SMALL
GASTEIGER

@<TRIPOS>ATOM
      1 H          -1.1921   -1.3024   -1.9617 H       1  LIG1        0.1226
      2 N          -1.9128   -0.8338   -1.4143 N.3     1  LIG1       -0.3074
      3 C          -2.0465    0.5339   -1.8086 C.3     1  LIG1        0.0422
      4 C          -2.0749    0.6255   -3.3360 C.3     1  LIG1       -0.0462
      5 C          -3.2255    1.2061   -1.0258 C.3     1  LIG1        0.1184
      6 O          -2.8563    2.5852   -0.8479 O.3     1  LIG1       -0.4567
      7 C          -2.7239    3.2752   -2.0389 C.2     1  LIG1        0.3323
      8 C          -1.3448    3.8809   -1.9936 C.2     1  LIG1        0.0231
      9 C          -0.9897    4.6835   -2.9975 C.2     1  LIG1       -0.0477
     10 C           0.3385    5.2885   -3.1634 C.ar    1  LIG1       -0.0211
     11 C           0.8305    5.5264   -4.4468 C.ar    1  LIG1       -0.0509
     12 C           2.0484    6.1846   -4.6316 C.ar    1  LIG1       -0.0160
     13 C           2.7766    6.6275   -3.5247 C.ar    1  LIG1        0.1585
     14 O           3.9442    7.3100   -3.7353 O.3     1  LIG1       -0.5033
     15 C           2.2906    6.4124   -2.2274 C.ar    1  LIG1        0.1618
     16 O           2.9981    6.8844   -1.1455 O.3     1  LIG1       -0.4914
     17 C           2.1872    7.1468    0.0057 C.3     1  LIG1        0.0790
     18 C           1.0781    5.7267   -2.0681 C.ar    1  LIG1       -0.0092
     19 O          -3.4251    3.2312   -2.9540 O.2     1  LIG1       -0.2456
     20 C          -3.4526    0.6980    0.4450 C.3     1  LIG1       -0.0128
     21 C          -2.9468   -0.6909    0.7484 C.3     1  LIG1       -0.0341
     22 C          -1.6417   -0.8433    0.0310 C.3     1  LIG1        0.0081
     23 C          -0.3807   -0.1773    0.6492 C.3     1  LIG1       -0.0375
     24 C           0.0697   -0.3645    2.2581 C.3     1  LIG1       -0.0516
     25 C           0.3048   -1.7346    3.1969 C.3     1  LIG1       -0.0530
     26 C           1.2267   -1.8477    4.4186 C.3     1  LIG1       -0.0531
     27 C           1.7528   -3.3443    4.6648 C.3     1  LIG1       -0.0531
     28 C           3.0195   -3.9223    3.9436 C.3     1  LIG1       -0.0531
     29 C           2.9721   -4.3061    2.4386 C.3     1  LIG1       -0.0531
     30 C           3.0525   -3.2655    1.2964 C.3     1  LIG1       -0.0531
     31 C           1.9010   -2.3307    1.0294 C.3     1  LIG1       -0.0530
     32 C           0.4643   -3.1039    0.9184 C.3     1  LIG1       -0.0527
     33 C          -0.1001   -3.5527   -0.4090 C.3     1  LIG1       -0.0464
     34 C          -1.6437   -3.9234   -0.3383 C.3     1  LIG1        0.0055
     35 C          -2.2368   -5.0578    0.4452 C.2     1  LIG1        0.1303
     36 C          -1.7741   -6.4345    0.2071 C.3     1  LIG1       -0.0061
     37 O          -3.1682   -4.8553    1.2357 O.2     1  LIG1       -0.2977
     38 H          -1.1066    1.0263   -1.5420 H       1  LIG1        0.0494
     39 H          -3.0667    0.4405   -3.7539 H       1  LIG1        0.0246
     40 H          -1.3617   -0.0699   -3.7974 H       1  LIG1        0.0246
     41 H          -1.7258    1.6090   -3.6578 H       1  LIG1        0.0246
     42 H          -4.1736    1.0885   -1.5666 H       1  LIG1        0.0749
     43 H          -0.6666    3.5470   -1.2182 H       1  LIG1        0.0689
     44 H          -1.7075    4.9301   -3.7784 H       1  LIG1        0.0626
     45 H           0.2627    5.2063   -5.3173 H       1  LIG1        0.0625
     46 H           2.3966    6.3584   -5.6456 H       1  LIG1        0.0655
     47 H           4.0618    7.4394   -4.6920 H       1  LIG1        0.2923
     48 H           2.7834    7.6646    0.7599 H       1  LIG1        0.0660
     49 H           1.8318    6.2183    0.4707 H       1  LIG1        0.0660
     50 H           1.3403    7.7915   -0.2608 H       1  LIG1        0.0660
     51 H           0.6737    5.5557   -1.0790 H       1  LIG1        0.0661
     52 H          -4.5183    0.7287    0.6955 H       1  LIG1        0.0302
     53 H          -2.9511    1.3653    1.1540 H       1  LIG1        0.0302
     54 H          -3.6765   -1.4502    0.4213 H       1  LIG1        0.0281
     55 H          -2.7994   -0.8773    1.8185 H       1  LIG1        0.0281
     56 H          -1.4026   -1.8322    0.1233 H       1  LIG1        0.0460
     57 H          -0.4968    0.9013    0.4997 H       1  LIG1        0.0280
     58 H           0.4441   -0.4324   -0.0314 H       1  LIG1        0.0280
     59 H          -0.7202    0.1599    2.7904 H       1  LIG1        0.0266
     60 H           0.9785    0.2543    2.3125 H       1  LIG1        0.0266
     61 H           0.8924   -2.5000    2.7621 H       1  LIG1        0.0265
     62 H          -0.6322   -2.2872    3.3037 H       1  LIG1        0.0265
     63 H           0.5867   -1.5707    5.2535 H       1  LIG1        0.0265
     64 H           2.0995   -1.1926    4.3462 H       1  LIG1        0.0265
     65 H           0.9387   -4.0649    4.5006 H       1  LIG1        0.0265
     66 H           1.9767   -3.4001    5.7402 H       1  LIG1        0.0265
     67 H           3.2058   -4.8967    4.4480 H       1  LIG1        0.0265
     68 H           3.9214   -3.3478    4.1865 H       1  LIG1        0.0265
     69 H           2.1357   -4.9952    2.2902 H       1  LIG1        0.0265
     70 H           3.8701   -4.9228    2.2656 H       1  LIG1        0.0265
     71 H           3.1725   -3.7943    0.3524 H       1  LIG1        0.0265
     72 H           3.9414   -2.6472    1.4728 H       1  LIG1        0.0265
     73 H           2.0470   -1.5735    0.2493 H       1  LIG1        0.0265
     74 H           2.0823   -1.6262    1.8685 H       1  LIG1        0.0265
     75 H          -0.3079   -2.4422    1.2822 H       1  LIG1        0.0265
     76 H           0.3402   -3.9260    1.6321 H       1  LIG1        0.0265
     77 H           0.5247   -4.3468   -0.7941 H       1  LIG1        0.0269
     78 H           0.0265   -2.6935   -1.0833 H       1  LIG1        0.0269
     79 H          -2.0722   -3.8654   -1.3430 H       1  LIG1        0.0341
     80 H          -2.2228   -3.1949    0.2272 H       1  LIG1        0.0341
     81 H          -1.1626   -6.4776   -0.6924 H       1  LIG1        0.0306
     82 H          -2.6677   -7.0498    0.0731 H       1  LIG1        0.0306
     83 H          -1.2147   -6.7436    1.0892 H       1  LIG1        0.0306
@<TRIPOS>BOND
     1     1     2    1
     2     2     3    1
     3     3     4    1
     4     3     5    1
     5     5     6    1
     6     6     7    1
     7     7     8    1
     8     8     9    2
     9     9    10    1
    10    10    11   ar
    11    11    12   ar
    12    12    13   ar
    13    13    14    1
    14    13    15   ar
    15    15    16    1
    16    16    17    1
    17    15    18   ar
    18    10    18   ar
    19     7    19    2
    20     5    20    1
    21    20    21    1
    22    21    22    1
    23     2    22    1
    24    22    23    1
    25    23    24    1
    26    24    25    1
    27    25    26    1
    28    26    27    1
    29    27    28    1
    30    28    29    1
    31    29    30    1
    32    30    31    1
    33    31    32    1
    34    32    33    1
    35    33    34    1
    36    34    35    1
    37    35    36    1
    38    35    37    2
    39     3    38    1
    40     4    39    1
    41     4    40    1
    42     4    41    1
    43     5    42    1
    44     8    43    1
    45     9    44    1
    46    11    45    1
    47    12    46    1
    48    14    47    1
    49    17    48    1
    50    17    49    1
    51    17    50    1
    52    18    51    1
    53    20    52    1
    54    20    53    1
    55    21    54    1
    56    21    55    1
    57    22    56    1
    58    23    57    1
    59    23    58    1
    60    24    59    1
    61    24    60    1
    62    25    61    1
    63    25    62    1
    64    26    63    1
    65    26    64    1
    66    27    65    1
    67    27    66    1
    68    28    67    1
    69    28    68    1
    70    29    69    1
    71    29    70    1
    72    30    71    1
    73    30    72    1
    74    31    73    1
    75    31    74    1
    76    32    75    1
    77    32    76    1
    78    33    77    1
    79    33    78    1
    80    34    79    1
    81    34    80    1
    82    36    81    1
    83    36    82    1
    84    36    83    1
