@<TRIPOS>MOLECULE
NuBBE_1237
 43 45 0 0 0
SMALL
GASTEIGER

@<TRIPOS>ATOM
      1 O          -1.2499    1.0263    2.8822 O.2     1  LIG1       -0.2864
      2 C          -0.7879    0.9876    1.7609 C.ar    1  LIG1        0.2008
      3 C          -0.5439   -0.2809    1.0045 C.ar    1  LIG1        0.0912
      4 C           0.5120   -0.2821    0.0988 C.ar    1  LIG1        0.0603
      5 C           0.7734   -1.4702   -0.5832 C.ar    1  LIG1        0.0082
      6 C          -0.0090   -2.6204   -0.4030 C.ar    1  LIG1        0.1672
      7 O           0.2641   -3.7574   -1.1269 O.3     1  LIG1       -0.4913
      8 C           0.8614   -3.5810   -2.4120 C.3     1  LIG1        0.0790
      9 C          -1.0941   -2.6065    0.5121 C.ar    1  LIG1        0.2044
     10 O          -1.9794   -3.6452    0.6874 O.3     1  LIG1       -0.4885
     11 C          -1.5128   -4.9668    0.4358 C.3     1  LIG1        0.0791
     12 C          -1.3802   -1.4125    1.2070 C.ar    1  LIG1        0.1780
     13 O          -2.5252   -1.1447    1.9174 O.3     1  LIG1       -0.4906
     14 C          -3.0774   -2.1186    2.7839 C.3     1  LIG1        0.0790
     15 N           1.1989    0.9178   -0.1749 N.ar    1  LIG1       -0.3397
     16 C           2.4932    0.8520   -0.8547 C.3     1  LIG1        0.0125
     17 C           0.5974    2.1728    0.0689 C.ar    1  LIG1        0.0951
     18 C           0.8703    3.3680   -0.6328 C.ar    1  LIG1        0.1442
     19 O           1.7343    3.3088   -1.7005 O.3     1  LIG1       -0.4930
     20 C           2.4841    4.4900   -1.9599 C.3     1  LIG1        0.0789
     21 C           0.1707    4.5488   -0.3242 C.ar    1  LIG1       -0.0179
     22 C          -0.7809    4.5745    0.6973 C.ar    1  LIG1       -0.0575
     23 C          -1.0630    3.4255    1.4036 C.ar    1  LIG1       -0.0487
     24 C          -0.4020    2.2313    1.0691 C.ar    1  LIG1        0.0495
     25 H           1.5769   -1.4815   -1.3086 H       1  LIG1        0.0676
     26 H           1.9226   -3.3236   -2.3240 H       1  LIG1        0.0660
     27 H           0.3232   -2.8327   -3.0049 H       1  LIG1        0.0660
     28 H           0.8054   -4.5346   -2.9450 H       1  LIG1        0.0660
     29 H          -0.5535   -5.1570    0.9297 H       1  LIG1        0.0660
     30 H          -1.4679   -5.1795   -0.6371 H       1  LIG1        0.0660
     31 H          -2.2438   -5.6659    0.8534 H       1  LIG1        0.0660
     32 H          -3.6385   -1.5739    3.5545 H       1  LIG1        0.0660
     33 H          -2.3243   -2.7261    3.2939 H       1  LIG1        0.0660
     34 H          -3.8006   -2.7348    2.2440 H       1  LIG1        0.0660
     35 H           3.0614   -0.0352   -0.5484 H       1  LIG1        0.0456
     36 H           3.1420    1.6918   -0.5833 H       1  LIG1        0.0456
     37 H           2.3653    0.8179   -1.9422 H       1  LIG1        0.0456
     38 H           3.3191    4.2144   -2.6114 H       1  LIG1        0.0660
     39 H           2.9027    4.9129   -1.0403 H       1  LIG1        0.0660
     40 H           1.8757    5.2256   -2.4939 H       1  LIG1        0.0660
     41 H           0.3218    5.4578   -0.8969 H       1  LIG1        0.0655
     42 H          -1.3207    5.4922    0.9193 H       1  LIG1        0.0619
     43 H          -1.8208    3.4149    2.1842 H       1  LIG1        0.0625
@<TRIPOS>BOND
     1     1     2    2
     2     2     3   ar
     3     3     4   ar
     4     4     5   ar
     5     5     6   ar
     6     6     7    1
     7     7     8    1
     8     6     9   ar
     9     9    10    1
    10    10    11    1
    11     9    12   ar
    12     3    12   ar
    13    12    13    1
    14    13    14    1
    15     4    15   ar
    16    15    16    1
    17    15    17   ar
    18    17    18   ar
    19    18    19    1
    20    19    20    1
    21    18    21   ar
    22    21    22   ar
    23    22    23   ar
    24    23    24   ar
    25    17    24   ar
    26     2    24   ar
    27     5    25    1
    28     8    26    1
    29     8    27    1
    30     8    28    1
    31    11    29    1
    32    11    30    1
    33    11    31    1
    34    14    32    1
    35    14    33    1
    36    14    34    1
    37    16    35    1
    38    16    36    1
    39    16    37    1
    40    20    38    1
    41    20    39    1
    42    20    40    1
    43    21    41    1
    44    22    42    1
    45    23    43    1
