REMARK  Name = NuBBE_1370
REMARK  8 active torsions:
REMARK  status: ('A' for Active; 'I' for Inactive)
REMARK    1  A    between atoms: C_2  and  O_3
REMARK    2  A    between atoms: C_2  and  C_8
REMARK    3  A    between atoms: O_3  and  C_4
REMARK    4  A    between atoms: C_4  and  C_5
REMARK    5  A    between atoms: C_4  and  C_6
REMARK    6  A    between atoms: C_4  and  C_7
REMARK    7  A    between atoms: C_8  and  C_9
REMARK    8  A    between atoms: C_9  and  O_10
REMARK                            x       y       z     vdW  Elec       q    Type
REMARK                         _______ _______ _______ _____ _____    ______ ____
ROOT
ATOM      1  C   LIG A   1       0.064   0.574   2.340  0.00  0.00    +0.164 C 
ATOM      2  C   LIG A   1       0.689   1.514   1.321  0.00  0.00    -0.000 A 
ATOM      3  C   LIG A   1       0.309   2.871   1.286  0.00  0.00    +0.007 A 
ATOM      4  C   LIG A   1       0.828   3.736   0.328  0.00  0.00    +0.000 A 
ATOM      5  C   LIG A   1       1.748   3.261  -0.596  0.00  0.00    +0.001 A 
ATOM      6  C   LIG A   1       2.149   1.923  -0.558  0.00  0.00    +0.009 A 
ATOM      7  C   LIG A   1       1.618   1.016   0.381  0.00  0.00    -0.011 A 
ATOM      8  C   LIG A   1       1.993  -0.418   0.401  0.00  0.00    -0.007 A 
ATOM      9  C   LIG A   1       2.578  -1.067  -0.701  0.00  0.00    +0.009 A 
ATOM     10  C   LIG A   1       2.881  -2.434  -0.672  0.00  0.00    +0.001 A 
ATOM     11  C   LIG A   1       2.631  -3.185   0.471  0.00  0.00    +0.001 A 
ATOM     12  C   LIG A   1       2.055  -2.577   1.580  0.00  0.00    +0.012 A 
ATOM     13  C   LIG A   1       1.718  -1.216   1.528  0.00  0.00    +0.028 A 
ATOM     14  C   LIG A   1       0.939  -0.646   2.645  0.00  0.00    +0.200 C 
ATOM     15  O   LIG A   1       0.950  -1.168   3.764  0.00  0.00    -0.289 OA
ENDROOT
BRANCH   1  16
ATOM     16  O   LIG A   1      -0.030   1.291   3.597  0.00  0.00    -0.375 OA
ATOM     17  H   LIG A   1       0.043   0.610   4.299  0.00  0.00    +0.211 HD
ENDBRANCH   1  16
BRANCH   1  18
ATOM     18  C   LIG A   1      -1.364   0.151   1.976  0.00  0.00    +0.168 C 
BRANCH  18  20
ATOM     19  O   LIG A   1      -1.035  -1.735   0.513  0.00  0.00    -0.251 OA
ATOM     20  C   LIG A   1      -1.468  -0.605   0.675  0.00  0.00    +0.311 C 
BRANCH  20  21
ATOM     21  O   LIG A   1      -2.095   0.144  -0.265  0.00  0.00    -0.459 OA
BRANCH  21  22
ATOM     22  C   LIG A   1      -2.193  -0.298  -1.646  0.00  0.00    +0.105 C 
ATOM     23  C   LIG A   1      -2.995  -1.597  -1.797  0.00  0.00    +0.055 C 
ATOM     24  C   LIG A   1      -2.941   0.841  -2.353  0.00  0.00    +0.055 C 
ATOM     25  C   LIG A   1      -0.806  -0.435  -2.279  0.00  0.00    +0.055 C 
ENDBRANCH  21  22
ENDBRANCH  20  21
ENDBRANCH  18  20
ENDBRANCH   1  18
TORSDOF 5
