@<TRIPOS>MOLECULE
NuBBE_1742
 28 29 0 0 0
SMALL
GASTEIGER

@<TRIPOS>ATOM
      1 C          -2.0483   -0.2620   -0.1453 C.3     1  LIG1       -0.0109
      2 C          -2.6402   -1.0969    1.0011 C.3     1  LIG1       -0.0596
      3 C          -2.7180    1.1159   -0.1702 C.3     1  LIG1       -0.0596
      4 C          -0.4973   -0.2052   -0.0995 C.3     1  LIG1        0.1250
      5 C           0.1076    0.5053   -1.3344 C.3     1  LIG1       -0.0138
      6 C           1.6452    0.4132   -1.2722 C.3     1  LIG1       -0.0143
      7 C           2.0506   -0.3094    0.0241 C.3     1  LIG1        0.1200
      8 C           1.4222    0.3718    1.2145 C.2     1  LIG1       -0.0510
      9 C           0.0838    0.4195    1.1547 C.2     1  LIG1       -0.0505
     10 O           1.4836   -1.6365   -0.0434 O.3     1  LIG1       -0.2234
     11 O          -0.0086   -1.5753   -0.1701 O.3     1  LIG1       -0.2229
     12 C           3.5616   -0.4415    0.1546 C.3     1  LIG1       -0.0291
     13 H          -2.3307   -0.7818   -1.0718 H       1  LIG1        0.0327
     14 H          -2.4564   -0.6360    1.9767 H       1  LIG1        0.0233
     15 H          -2.2215   -2.1081    1.0163 H       1  LIG1        0.0233
     16 H          -3.7249   -1.1959    0.8817 H       1  LIG1        0.0233
     17 H          -2.4747    1.7033    0.7206 H       1  LIG1        0.0233
     18 H          -3.8081    1.0123   -0.2105 H       1  LIG1        0.0233
     19 H          -2.4196    1.6901   -1.0521 H       1  LIG1        0.0233
     20 H          -0.1873    1.5597   -1.3808 H       1  LIG1        0.0298
     21 H          -0.2371    0.0259   -2.2589 H       1  LIG1        0.0298
     22 H           2.0828    1.4177   -1.3232 H       1  LIG1        0.0298
     23 H           2.0007   -0.1447   -2.1474 H       1  LIG1        0.0298
     24 H           1.9997    0.7633    2.0411 H       1  LIG1        0.0599
     25 H          -0.5250    0.8619    1.9313 H       1  LIG1        0.0599
     26 H           4.0512    0.5367    0.2062 H       1  LIG1        0.0261
     27 H           3.9784   -0.9931   -0.6958 H       1  LIG1        0.0261
     28 H           3.8302   -1.0100    1.0528 H       1  LIG1        0.0261
@<TRIPOS>BOND
     1     1     2    1
     2     1     3    1
     3     1     4    1
     4     4     5    1
     5     5     6    1
     6     6     7    1
     7     7     8    1
     8     8     9    2
     9     4     9    1
    10     7    10    1
    11    10    11    1
    12     4    11    1
    13     7    12    1
    14     1    13    1
    15     2    14    1
    16     2    15    1
    17     2    16    1
    18     3    17    1
    19     3    18    1
    20     3    19    1
    21     5    20    1
    22     5    21    1
    23     6    22    1
    24     6    23    1
    25     8    24    1
    26     9    25    1
    27    12    26    1
    28    12    27    1
    29    12    28    1
