@<TRIPOS>MOLECULE
NuBBE_860
 69 74 0 0 0
SMALL
GASTEIGER

@<TRIPOS>ATOM
      1 C          -3.7107    2.3651   -0.8312 C.3     1  LIG1       -0.0571
      2 C          -2.9581    1.1510   -0.2326 C.3     1  LIG1       -0.0038
      3 C          -4.0108    0.2831    0.5008 C.3     1  LIG1       -0.0571
      4 C          -2.4065    0.3362   -1.4283 C.3     1  LIG1        0.0745
      5 H          -3.2092    0.0712   -2.1275 H       1  LIG1        0.0608
      6 C          -1.2638    0.9997   -2.1946 C.3     1  LIG1        0.0475
      7 H          -1.5913    1.5413   -3.0858 H       1  LIG1        0.0404
      8 C          -0.3370   -0.1634   -2.4644 C.3     1  LIG1       -0.0087
      9 C          -0.4609   -0.9357   -1.1396 C.3     1  LIG1        0.1040
     10 O          -1.8943   -0.9117   -0.9269 O.3     1  LIG1       -0.3657
     11 C          -0.0224   -2.4720   -1.0782 C.3     1  LIG1        0.1142
     12 O          -1.1202   -3.2005   -0.4708 O.3     1  LIG1       -0.3845
     13 C           1.2466   -2.7776   -0.1983 C.3     1  LIG1        0.0412
     14 C           1.1454   -2.0714    1.1967 C.3     1  LIG1       -0.0408
     15 C           0.1835   -0.8855    1.2871 C.3     1  LIG1       -0.0459
     16 C           1.3267   -4.3028    0.1660 C.3     1  LIG1       -0.0531
     17 C           0.1696   -3.0865   -2.4663 C.3     1  LIG1        0.0771
     18 C           1.3626   -2.4773   -3.1432 C.2     1  LIG1        0.3106
     19 O           2.2358   -1.8539   -2.3135 O.3     1  LIG1       -0.4557
     20 C           2.5355   -2.5073   -1.0642 C.3     1  LIG1        0.1390
     21 H           2.9372   -3.4821   -1.3824 H       1  LIG1        0.0793
     22 C           3.7069   -1.8223   -0.4111 C.ar    1  LIG1        0.0310
     23 C           4.9014   -2.4166   -0.0413 C.ar    1  LIG1        0.0984
     24 O           5.7729   -1.5052    0.4596 O.2     1  LIG1       -0.4706
     25 C           5.1576   -0.3010    0.4038 C.ar    1  LIG1        0.0921
     26 C           3.8997   -0.4366   -0.1308 C.ar    1  LIG1       -0.0172
     27 O           1.4838   -2.4431   -4.3606 O.2     1  LIG1       -0.2507
     28 C           0.1828   -0.0866   -0.0105 C.3     1  LIG1        0.0033
     29 H           1.2238    0.0134   -0.3176 H       1  LIG1        0.0339
     30 C          -0.3496    1.4016    0.1386 C.3     1  LIG1        0.0359
     31 C           0.7817    2.1990    0.8179 C.3     1  LIG1       -0.0522
     32 C          -0.5203    1.9340   -1.2791 C.2     1  LIG1        0.1454
     33 O          -0.0987    3.0200   -1.6629 O.2     1  LIG1       -0.2964
     34 C          -1.7816    1.5303    0.8034 C.3     1  LIG1       -0.0110
     35 H          -1.8092    0.7941    1.6155 H       1  LIG1        0.0321
     36 C          -2.0676    2.8933    1.4903 C.3     1  LIG1        0.0492
     37 C          -1.2866    3.2010    2.7620 C.2     1  LIG1        0.3071
     38 O          -0.6149    4.3773    2.5886 O.3     1  LIG1       -0.4679
     39 C          -0.0108    4.9504    3.7490 C.3     1  LIG1        0.0817
     40 O          -1.3090    2.5340    3.7753 O.2     1  LIG1       -0.2509
     41 H          -3.0365    3.0690   -1.3272 H       1  LIG1        0.0236
     42 H          -4.2814    2.9138   -0.0759 H       1  LIG1        0.0236
     43 H          -4.4391    2.0321   -1.5824 H       1  LIG1        0.0236
     44 H          -3.5526   -0.5835    0.9904 H       1  LIG1        0.0236
     45 H          -4.7580   -0.1022   -0.2043 H       1  LIG1        0.0236
     46 H          -4.5416    0.8564    1.2671 H       1  LIG1        0.0236
     47 H          -0.7382   -0.7197   -3.3166 H       1  LIG1        0.0302
     48 H           0.6855    0.1568   -2.6888 H       1  LIG1        0.0302
     49 H          -1.8917   -2.5925   -0.4872 H       1  LIG1        0.2103
     50 H           2.1291   -1.7561    1.5539 H       1  LIG1        0.0273
     51 H           0.8079   -2.7830    1.9634 H       1  LIG1        0.0273
     52 H          -0.8254   -1.2582    1.5065 H       1  LIG1        0.0269
     53 H           0.4703   -0.2720    2.1472 H       1  LIG1        0.0269
     54 H           0.4747   -4.6288    0.7730 H       1  LIG1        0.0237
     55 H           2.2359   -4.5122    0.7429 H       1  LIG1        0.0237
     56 H           1.3528   -4.9434   -0.7208 H       1  LIG1        0.0237
     57 H          -0.7251   -2.9121   -3.0754 H       1  LIG1        0.0407
     58 H           0.2944   -4.1725   -2.4300 H       1  LIG1        0.0407
     59 H           5.2804   -3.4283   -0.0926 H       1  LIG1        0.1033
     60 H           5.7336    0.5445    0.7543 H       1  LIG1        0.1029
     61 H           3.2271    0.3853   -0.3077 H       1  LIG1        0.0653
     62 H           1.7357    2.0372    0.3013 H       1  LIG1        0.0239
     63 H           0.9287    1.9045    1.8602 H       1  LIG1        0.0239
     64 H           0.6216    3.2782    0.7640 H       1  LIG1        0.0239
     65 H          -1.9323    3.7163    0.7791 H       1  LIG1        0.0381
     66 H          -3.1168    2.9358    1.8144 H       1  LIG1        0.0381
     67 H          -0.7897    5.2481    4.4554 H       1  LIG1        0.0661
     68 H           0.5181    5.8528    3.4246 H       1  LIG1        0.0661
     69 H           0.7127    4.2765    4.2182 H       1  LIG1        0.0661
@<TRIPOS>BOND
     1     2     4    1
     2     4     6    1
     3     6     8    1
     4     8     9    1
     5     9    10    1
     6     4    10    1
     7     9    11    1
     8    11    13    1
     9    13    14    1
    10    14    15    1
    11    11    17    1
    12    17    18    1
    13    18    19    1
    14    19    20    1
    15    13    20    1
    16    22    23   ar
    17    23    24   ar
    18    24    25   ar
    19    25    26   ar
    20    22    26   ar
    21     9    28    1
    22    15    28    1
    23    28    30    1
    24    30    32    1
    25     6    32    1
    26    30    34    1
    27     2    34    1
    28    36    37    1
    29    37    38    1
    30    38    39    1
    31    37    40    2
    32     1     2    1
    33     2     3    1
    34     4     5    1
    35     6     7    1
    36    11    12    1
    37    13    16    1
    38    18    27    2
    39    28    29    1
    40    30    31    1
    41    32    33    2
    42    20    22    1
    43    20    21    1
    44    34    36    1
    45    34    35    1
    46     1    41    1
    47     1    42    1
    48     1    43    1
    49     3    44    1
    50     3    45    1
    51     3    46    1
    52     8    47    1
    53     8    48    1
    54    12    49    1
    55    14    50    1
    56    14    51    1
    57    15    52    1
    58    15    53    1
    59    16    54    1
    60    16    55    1
    61    16    56    1
    62    17    57    1
    63    17    58    1
    64    23    59    1
    65    25    60    1
    66    26    61    1
    67    31    62    1
    68    31    63    1
    69    31    64    1
    70    36    65    1
    71    36    66    1
    72    39    67    1
    73    39    68    1
    74    39    69    1
