@<TRIPOS>MOLECULE
NuBBE_1293
 64 68 0 0 0
SMALL
GASTEIGER

@<TRIPOS>ATOM
      1 C           1.6712   -2.6228   -1.7016 C.3     1  LIG1       -0.0519
      2 C           1.0998   -1.7675   -0.5398 C.3     1  LIG1        0.0396
      3 C          -0.0914   -2.6274    0.0271 C.3     1  LIG1        0.0207
      4 C          -1.2352   -1.7741    0.5626 C.3     1  LIG1        0.0895
      5 H          -2.0539   -2.3707    0.9783 H       1  LIG1        0.0626
      6 O          -0.7495   -0.9404    1.6127 O.3     1  LIG1       -0.3886
      7 C          -1.7794   -1.0015   -0.6562 C.3     1  LIG1        0.0952
      8 H          -2.0057   -1.7200   -1.4546 H       1  LIG1        0.0631
      9 C          -0.8170    0.1007   -1.1641 C.3     1  LIG1        0.0244
     10 C          -1.4046    1.2558   -0.3616 C.2     1  LIG1       -0.0329
     11 C          -1.2443    2.5819   -0.2192 C.2     1  LIG1       -0.0628
     12 C          -0.1130    3.4437   -0.6408 C.3     1  LIG1       -0.0429
     13 C          -2.5237    3.1986    0.3628 C.3     1  LIG1        0.0109
     14 H          -2.8221    4.0799   -0.2187 H       1  LIG1        0.0396
     15 C          -2.4343    3.5748    1.8170 C.ar    1  LIG1       -0.0025
     16 C          -3.4304    4.1611    2.5792 C.ar    1  LIG1        0.0954
     17 O          -3.0169    4.3642    3.8558 O.2     1  LIG1       -0.4707
     18 C          -1.7421    3.9101    3.9322 C.ar    1  LIG1        0.0920
     19 C          -1.3385    3.4131    2.7165 C.ar    1  LIG1       -0.0202
     20 C          -3.5389    2.0595    0.1012 C.3     1  LIG1       -0.0121
     21 C          -2.6772    0.8324    0.3027 C.3     1  LIG1        0.0819
     22 O          -3.0480   -0.3536   -0.3676 O.3     1  LIG1       -0.3656
     23 C          -1.1994    0.3714   -2.6440 C.3     1  LIG1       -0.0530
     24 C           0.7308   -0.2422   -0.9709 C.3     1  LIG1       -0.0066
     25 H           1.0085    0.3845   -0.1124 H       1  LIG1        0.0325
     26 C           1.6124    0.3178   -2.1441 C.3     1  LIG1        0.0495
     27 C           3.1228    0.1670   -2.1016 C.2     1  LIG1        0.3071
     28 O           3.7229    1.1265   -1.3596 O.3     1  LIG1       -0.4679
     29 C           5.1402    0.9799   -1.2009 C.3     1  LIG1        0.0817
     30 O           3.7243   -0.6986   -2.7434 O.2     1  LIG1       -0.2509
     31 C           0.2999   -3.7488    0.9883 C.2     1  LIG1       -0.0696
     32 C          -0.7352   -4.8127    1.2487 C.3     1  LIG1       -0.0434
     33 C           1.5272   -3.8591    1.5185 C.2     1  LIG1       -0.0776
     34 C           2.6456   -2.9125    1.2717 C.3     1  LIG1        0.0248
     35 C           2.2119   -1.6637    0.5404 C.2     1  LIG1        0.1438
     36 O           2.8536   -0.6274    0.7372 O.2     1  LIG1       -0.2965
     37 H           1.1482   -2.4233   -2.6418 H       1  LIG1        0.0239
     38 H           1.5598   -3.6983   -1.5109 H       1  LIG1        0.0239
     39 H           2.7446   -2.4983   -1.8322 H       1  LIG1        0.0239
     40 H          -0.5164   -3.1665   -0.8353 H       1  LIG1        0.0381
     41 H          -0.5097   -1.5161    2.3604 H       1  LIG1        0.2099
     42 H           0.8379    2.9128   -0.5420 H       1  LIG1        0.0275
     43 H          -0.0462    4.3269    0.0044 H       1  LIG1        0.0275
     44 H          -0.2370    3.7815   -1.6719 H       1  LIG1        0.0275
     45 H          -4.4446    4.4753    2.3720 H       1  LIG1        0.1032
     46 H          -1.2654    4.0058    4.8976 H       1  LIG1        0.1029
     47 H          -0.3695    2.9839    2.5010 H       1  LIG1        0.0652
     48 H          -3.9194    2.1008   -0.9298 H       1  LIG1        0.0302
     49 H          -4.4130    2.0667    0.7609 H       1  LIG1        0.0302
     50 H          -2.5525    0.6251    1.3709 H       1  LIG1        0.0644
     51 H          -2.2819    0.5027   -2.7721 H       1  LIG1        0.0239
     52 H          -0.9106   -0.4701   -3.2832 H       1  LIG1        0.0239
     53 H          -0.7332    1.2832   -3.0327 H       1  LIG1        0.0239
     54 H           1.4180    1.3884   -2.2818 H       1  LIG1        0.0381
     55 H           1.3103   -0.1512   -3.0886 H       1  LIG1        0.0381
     56 H           5.6517    1.7368   -1.8030 H       1  LIG1        0.0661
     57 H           5.5183   -0.0120   -1.4757 H       1  LIG1        0.0661
     58 H           5.3817    1.1453   -0.1480 H       1  LIG1        0.0661
     59 H          -1.5691   -4.4117    1.8307 H       1  LIG1        0.0274
     60 H          -0.3201   -5.6596    1.8056 H       1  LIG1        0.0274
     61 H          -1.1204   -5.2043    0.3016 H       1  LIG1        0.0274
     62 H           1.7682   -4.7009    2.1654 H       1  LIG1        0.0576
     63 H           3.4348   -3.3987    0.6902 H       1  LIG1        0.0384
     64 H           3.0650   -2.6042    2.2363 H       1  LIG1        0.0384
@<TRIPOS>BOND
     1     1     2    1
     2     2     3    1
     3     3     4    1
     4     4     5    1
     5     4     6    1
     6     4     7    1
     7     7     8    1
     8     7     9    1
     9     9    10    1
    10    10    11    2
    11    11    12    1
    12    11    13    1
    13    13    14    1
    14    13    15    1
    15    15    16   ar
    16    16    17   ar
    17    17    18   ar
    18    18    19   ar
    19    15    19   ar
    20    13    20    1
    21    20    21    1
    22    10    21    1
    23    21    22    1
    24     7    22    1
    25     9    23    1
    26     9    24    1
    27    24    25    1
    28     2    24    1
    29    24    26    1
    30    26    27    1
    31    27    28    1
    32    28    29    1
    33    27    30    2
    34     3    31    1
    35    31    32    1
    36    31    33    2
    37    33    34    1
    38    34    35    1
    39     2    35    1
    40    35    36    2
    41     1    37    1
    42     1    38    1
    43     1    39    1
    44     3    40    1
    45     6    41    1
    46    12    42    1
    47    12    43    1
    48    12    44    1
    49    16    45    1
    50    18    46    1
    51    19    47    1
    52    20    48    1
    53    20    49    1
    54    21    50    1
    55    23    51    1
    56    23    52    1
    57    23    53    1
    58    26    54    1
    59    26    55    1
    60    29    56    1
    61    29    57    1
    62    29    58    1
    63    32    59    1
    64    32    60    1
    65    32    61    1
    66    33    62    1
    67    34    63    1
    68    34    64    1
