REMARK  Name = NuBBE_2352
REMARK  8 active torsions:
REMARK  status: ('A' for Active; 'I' for Inactive)
REMARK    1  A    between atoms: C_1  and  C_2
REMARK    2  A    between atoms: C_2  and  C_3
REMARK    3  A    between atoms: C_2  and  C_4
REMARK    4  A    between atoms: C_5  and  O_6
REMARK    5  A    between atoms: C_15  and  C_16
REMARK    6  A    between atoms: C_19  and  O_21
REMARK    7  A    between atoms: C_22  and  C_23
REMARK    8  A    between atoms: C_22  and  C_24
REMARK                            x       y       z     vdW  Elec       q    Type
REMARK                         _______ _______ _______ _____ _____    ______ ____
ROOT
ATOM      1  C   LIG A   1      -1.524  -0.329  -2.444  0.00  0.00    +0.000 A 
ATOM      2  C   LIG A   1      -1.467  -1.654  -2.921  0.00  0.00    +0.120 A 
ATOM      3  C   LIG A   1      -0.936  -2.687  -2.159  0.00  0.00    +0.046 A 
ATOM      4  C   LIG A   1      -0.451  -2.424  -0.884  0.00  0.00    +0.008 A 
ATOM      5  C   LIG A   1      -0.442  -1.120  -0.358  0.00  0.00    -0.037 A 
ATOM      6  C   LIG A   1      -0.954  -0.062  -1.165  0.00  0.00    -0.037 A 
ATOM      7  C   LIG A   1      -0.866   1.329  -0.593  0.00  0.00    +0.036 C 
ATOM      8  C   LIG A   1       0.466   1.506   0.114  0.00  0.00    +0.009 C 
ATOM      9  C   LIG A   1       0.583   0.600   1.352  0.00  0.00    +0.008 C 
ATOM     10  C   LIG A   1       0.008  -0.860   1.110  0.00  0.00    -0.003 C 
ATOM     11  C   LIG A   1      -1.296  -1.014   1.950  0.00  0.00    +0.016 C 
ATOM     12  C   LIG A   1       0.995  -1.952   1.612  0.00  0.00    +0.014 C 
ATOM     13  C   LIG A   1       1.637  -1.701   2.972  0.00  0.00    +0.033 C 
ATOM     14  C   LIG A   1       2.092  -0.268   3.228  0.00  0.00    +0.121 C 
ATOM     15  C   LIG A   1       2.014   0.683   2.006  0.00  0.00    -0.005 C 
ATOM     16  C   LIG A   1       2.281   2.131   2.506  0.00  0.00    +0.014 C 
ATOM     17  C   LIG A   1       3.155   0.360   1.011  0.00  0.00    +0.014 C 
ENDROOT
BRANCH   1  19
ATOM     18  C   LIG A   1      -3.272   1.562  -2.660  0.00  0.00    +0.012 C 
ATOM     19  C   LIG A   1      -2.189   0.718  -3.343  0.00  0.00    +0.017 C 
ATOM     20  C   LIG A   1      -1.167   1.569  -4.099  0.00  0.00    +0.012 C 
ENDBRANCH   1  19
BRANCH   2  21
ATOM     21  O   LIG A   1      -1.948  -1.944  -4.170  0.00  0.00    -0.506 OA
ATOM     22  H   LIG A   1      -1.822  -2.890  -4.346  0.00  0.00    +0.292 HD
ENDBRANCH   2  21
BRANCH  14  23
ATOM     23  O   LIG A   1       1.331   0.245   4.329  0.00  0.00    -0.391 OA
ATOM     24  H   LIG A   1       0.396   0.282   4.072  0.00  0.00    +0.210 HD
ENDBRANCH  14  23
TORSDOF 3
