REMARK  Name = NuBBE_480
REMARK  12 active torsions:
REMARK  status: ('A' for Active; 'I' for Inactive)
REMARK    1  A    between atoms: O_1  and  C_2
REMARK    2  A    between atoms: C_6  and  C_39
REMARK    3  A    between atoms: C_8  and  C_9
REMARK    4  A    between atoms: C_8  and  C_10
REMARK    5  A    between atoms: C_10  and  O_11
REMARK    6  A    between atoms: C_15  and  C_38
REMARK    7  A    between atoms: C_20  and  C_36
REMARK    8  A    between atoms: C_23  and  C_32
REMARK    9  A    between atoms: C_26  and  C_27
REMARK   10  A    between atoms: C_26  and  C_31
REMARK   11  A    between atoms: C_32  and  O_33
REMARK   12  A    between atoms: O_33  and  C_34
REMARK                            x       y       z     vdW  Elec       q    Type
REMARK                         _______ _______ _______ _____ _____    ______ ____
ROOT
ATOM      1  C   LIG A   1      -4.406  -3.089  -2.268  0.00  0.00    +0.123 C 
ATOM      2  C   LIG A   1      -3.969  -3.428  -0.845  0.00  0.00    +0.032 C 
ATOM      3  C   LIG A   1      -2.461  -3.253  -0.621  0.00  0.00    +0.010 C 
ATOM      4  C   LIG A   1      -1.908  -1.835  -0.991  0.00  0.00    -0.025 C 
ATOM      5  C   LIG A   1      -2.393  -1.516  -2.457  0.00  0.00    +0.006 C 
ATOM      6  C   LIG A   1      -3.942  -1.675  -2.734  0.00  0.00    +0.020 C 
ATOM      7  C   LIG A   1      -4.214  -1.574  -4.262  0.00  0.00    +0.016 C 
ATOM      8  C   LIG A   1      -1.779  -0.201  -2.965  0.00  0.00    +0.005 C 
ATOM      9  C   LIG A   1      -0.250  -0.289  -3.028  0.00  0.00    +0.008 C 
ATOM     10  C   LIG A   1       0.480  -0.710  -1.719  0.00  0.00    -0.019 C 
ATOM     11  C   LIG A   1      -0.313  -1.889  -1.016  0.00  0.00    +0.006 C 
ATOM     12  C   LIG A   1       0.361  -2.281   0.315  0.00  0.00    +0.031 C 
ATOM     13  C   LIG A   1       0.872  -1.147   1.139  0.00  0.00    -0.026 C 
ATOM     14  C   LIG A   1       1.057   0.119   0.728  0.00  0.00    -0.063 C 
ATOM     15  C   LIG A   1       0.838   0.552  -0.738  0.00  0.00    -0.005 C 
ATOM     16  C   LIG A   1       2.173   1.254  -1.178  0.00  0.00    +0.012 C 
ATOM     17  C   LIG A   1       2.632   2.415  -0.279  0.00  0.00    +0.019 C 
ATOM     18  C   LIG A   1       2.739   2.028   1.216  0.00  0.00    +0.074 C 
ATOM     19  C   LIG A   1       2.797   3.327   2.067  0.00  0.00    +0.019 C 
ATOM     20  C   LIG A   1       2.890   3.058   3.572  0.00  0.00    +0.007 C 
ATOM     21  C   LIG A   1       1.814   2.095   4.118  0.00  0.00    -0.034 C 
ATOM     22  C   LIG A   1       0.471   2.836   4.287  0.00  0.00    +0.011 C 
ATOM     23  C   LIG A   1       1.629   0.864   3.194  0.00  0.00    +0.015 C 
ATOM     24  C   LIG A   1       1.491   1.235   1.694  0.00  0.00    +0.033 C 
ATOM     25  C   LIG A   1       2.255   1.604   5.512  0.00  0.00    +0.011 C 
ATOM     26  C   LIG A   1      -0.252   1.656  -0.792  0.00  0.00    +0.016 C 
ATOM     27  C   LIG A   1       1.821  -1.370  -2.215  0.00  0.00    +0.012 C 
ATOM     28  C   LIG A   1      -2.432  -0.854   0.080  0.00  0.00    +0.012 C 
ENDROOT
BRANCH   1  29
ATOM     29  O   LIG A   1      -3.924  -4.120  -3.140  0.00  0.00    -0.391 OA
ATOM     30  H   LIG A   1      -2.954  -4.113  -3.133  0.00  0.00    +0.210 HD
ENDBRANCH   1  29
BRANCH  18  31
ATOM     31  C   LIG A   1       4.038   1.204   1.367  0.00  0.00    +0.314 C 
ATOM     32  O   LIG A   1       4.112  -0.015   1.257  0.00  0.00    -0.250 OA
BRANCH  31  33
ATOM     33  O   LIG A   1       5.114   2.015   1.567  0.00  0.00    -0.468 OA
ATOM     34  C   LIG A   1       6.394   1.387   1.693  0.00  0.00    +0.280 C 
ENDBRANCH  31  33
ENDBRANCH  18  31
BRANCH   6  35
ATOM     35  C   LIG A   1      -4.798  -0.579  -2.048  0.00  0.00    +0.165 C 
BRANCH  35  36
ATOM     36  O   LIG A   1      -6.183  -0.748  -2.338  0.00  0.00    -0.394 OA
ATOM     37  H   LIG A   1      -6.667  -0.062  -1.845  0.00  0.00    +0.209 HD
ENDBRANCH  35  36
ENDBRANCH   6  35
TORSDOF 5
