REMARK  Name = NuBBE_1450
REMARK  8 active torsions:
REMARK  status: ('A' for Active; 'I' for Inactive)
REMARK    1  A    between atoms: C_5  and  O_6
REMARK    2  A    between atoms: C_11  and  C_12
REMARK    3  A    between atoms: C_12  and  C_13
REMARK    4  A    between atoms: C_13  and  O_14
REMARK    5  A    between atoms: C_25  and  O_26
REMARK    6  A    between atoms: O_26  and  C_27
REMARK    7  A    between atoms: C_28  and  O_29
REMARK    8  A    between atoms: O_29  and  C_30
REMARK                            x       y       z     vdW  Elec       q    Type
REMARK                         _______ _______ _______ _____ _____    ______ ____
ROOT
ATOM      1  C   LIG A   1      -1.439   0.686   0.376  0.00  0.00    +0.138 C 
ATOM      2  C   LIG A   1      -1.613  -0.324  -0.744  0.00  0.00    +0.181 C 
ATOM      3  C   LIG A   1      -0.467  -0.554  -1.644  0.00  0.00    +0.102 A 
ATOM      4  C   LIG A   1      -0.493  -1.547  -2.641  0.00  0.00    +0.134 A 
ATOM      5  C   LIG A   1       0.614  -1.772  -3.462  0.00  0.00    +0.092 A 
ATOM      6  C   LIG A   1       1.729  -0.979  -3.274  0.00  0.00    +0.132 A 
ATOM      7  C   LIG A   1       1.763   0.014  -2.312  0.00  0.00    +0.041 A 
ATOM      8  C   LIG A   1       3.097   0.658  -2.301  0.00  0.00    +0.091 C 
ATOM      9  C   LIG A   1       3.722   0.024  -3.561  0.00  0.00    +0.206 C 
ATOM     10  O   LIG A   1       2.881  -1.081  -4.007  0.00  0.00    -0.484 OA
ATOM     11  C   LIG A   1       0.675   0.241  -1.490  0.00  0.00    +0.142 A 
ATOM     12  O   LIG A   1       0.781   1.241  -0.572  0.00  0.00    -0.483 OA
ATOM     13  C   LIG A   1       0.044   0.975   0.625  0.00  0.00    +0.226 C 
ATOM     14  C   LIG A   1       0.763  -0.088   1.488  0.00  0.00    +0.274 C 
ATOM     15  O   LIG A   1      -0.065  -1.169   1.929  0.00  0.00    -0.488 OA
ATOM     16  C   LIG A   1      -1.257  -0.711   2.416  0.00  0.00    +0.128 A 
ATOM     17  C   LIG A   1      -2.007   0.209   1.689  0.00  0.00    +0.012 A 
ATOM     18  C   LIG A   1      -3.221   0.647   2.222  0.00  0.00    +0.057 A 
ATOM     19  C   LIG A   1      -3.664   0.196   3.483  0.00  0.00    +0.162 A 
ATOM     20  C   LIG A   1      -2.874  -0.717   4.210  0.00  0.00    +0.165 A 
ATOM     21  C   LIG A   1      -1.690  -1.198   3.639  0.00  0.00    +0.095 A 
ATOM     22  O   LIG A   1      -2.673  -0.922  -0.969  0.00  0.00    -0.291 OA
ENDROOT
BRANCH   4  23
ATOM     23  O   LIG A   1      -1.591  -2.339  -2.866  0.00  0.00    -0.506 OA
ATOM     24  H   LIG A   1      -2.306  -2.054  -2.253  0.00  0.00    +0.292 HD
ENDBRANCH   4  23
BRANCH   9  25
ATOM     25  C   LIG A   1       3.909   1.004  -4.712  0.00  0.00    -0.011 C 
ATOM     26  C   LIG A   1       2.886   1.677  -5.272  0.00  0.00    +0.013 C 
BRANCH  25  27
ATOM     27  C   LIG A   1       5.314   1.174  -5.213  0.00  0.00    +0.189 C 
BRANCH  27  28
ATOM     28  O   LIG A   1       6.120   1.674  -4.156  0.00  0.00    -0.391 OA
ATOM     29  H   LIG A   1       5.759   2.545  -3.918  0.00  0.00    +0.210 HD
ENDBRANCH  27  28
ENDBRANCH  25  27
ENDBRANCH   9  25
BRANCH  19  30
ATOM     30  O   LIG A   1      -4.859   0.764   3.845  0.00  0.00    -0.491 OA
ATOM     31  C   LIG A   1      -5.440   0.399   5.088  0.00  0.00    +0.277 C 
ENDBRANCH  19  30
BRANCH  20  32
ATOM     32  O   LIG A   1      -3.287  -1.136   5.449  0.00  0.00    -0.491 OA
ATOM     33  C   LIG A   1      -2.260  -1.535   6.353  0.00  0.00    +0.277 C 
ENDBRANCH  20  32
TORSDOF 6
