@<TRIPOS>MOLECULE
NuBBE_1638
 72 73 0 0 0
SMALL
GASTEIGER

@<TRIPOS>ATOM
      1 C          -0.2163   -7.1100   -1.8722 C.3     1  LIG1       -0.0361
      2 C          -1.0644   -5.8777   -1.8444 C.ar    1  LIG1       -0.0050
      3 C          -0.4937   -4.6464   -1.6085 C.ar    1  LIG1        0.1276
      4 C          -1.3256   -3.5247   -1.4432 C.ar    1  LIG1       -0.0018
      5 C          -0.7978   -2.2561   -0.9570 C.3     1  LIG1       -0.0205
      6 C           0.5823   -2.5872   -0.5132 C.3     1  LIG1       -0.0091
      7 C           1.5065   -3.3440   -1.4517 C.3     1  LIG1        0.1085
      8 O           0.8793   -4.6265   -1.5768 O.3     1  LIG1       -0.4854
      9 C           1.6770   -2.6351   -2.8242 C.3     1  LIG1       -0.0097
     10 C           2.4665   -1.2956   -2.8512 C.3     1  LIG1       -0.0309
     11 C           1.9319   -0.1343   -2.0570 C.2     1  LIG1       -0.0849
     12 C           1.9281    0.0809   -0.7137 C.2     1  LIG1       -0.0762
     13 C           1.0323    1.1526   -0.2013 C.3     1  LIG1       -0.0286
     14 C           1.7912    2.4330   -0.3485 C.3     1  LIG1       -0.0303
     15 C           1.1971    3.6468    0.2702 C.2     1  LIG1       -0.0738
     16 C          -0.0837    4.0298    0.4282 C.2     1  LIG1        0.0330
     17 C          -0.3762    5.4951    0.6801 C.3     1  LIG1       -0.0178
     18 C          -0.0449    6.0212    2.0818 C.3     1  LIG1       -0.0303
     19 C          -0.8698    5.4547    3.2099 C.2     1  LIG1       -0.0850
     20 C          -0.6187    4.3568    3.9520 C.2     1  LIG1       -0.0796
     21 C           0.5640    3.4422    3.8097 C.3     1  LIG1       -0.0440
     22 C          -1.6343    3.8209    4.9250 C.3     1  LIG1       -0.0440
     23 C          -1.2569    3.0824    0.3667 C.2     1  LIG1        0.3346
     24 O          -1.3100    2.0120    0.8501 O.2     1  LIG1       -0.2453
     25 O          -2.3322    3.7738   -0.1116 O.3     1  LIG1       -0.4647
     26 C          -3.3405    3.8831    0.8900 C.3     1  LIG1        0.0820
     27 C           2.4455   -0.7798    0.4379 C.3     1  LIG1       -0.0438
     28 C           2.9219   -3.6720   -0.8781 C.3     1  LIG1       -0.0249
     29 C          -2.6787   -3.5544   -1.7180 C.ar    1  LIG1       -0.0135
     30 C          -3.2184   -4.7645   -2.0667 C.ar    1  LIG1        0.1176
     31 C          -2.4461   -5.9263   -2.0507 C.ar    1  LIG1       -0.0138
     32 O          -4.5161   -4.8351   -2.4631 O.3     1  LIG1       -0.5067
     33 H          -0.1264   -7.5400   -0.8692 H       1  LIG1        0.0279
     34 H           0.7926   -6.8995   -2.2474 H       1  LIG1        0.0279
     35 H          -0.6572   -7.8402   -2.5507 H       1  LIG1        0.0279
     36 H          -1.3422   -1.8450   -0.0922 H       1  LIG1        0.0316
     37 H          -0.8161   -1.4794   -1.7355 H       1  LIG1        0.0316
     38 H           0.5904   -3.0064    0.4982 H       1  LIG1        0.0307
     39 H           0.8357   -1.5877   -0.5240 H       1  LIG1        0.0307
     40 H           0.6916   -2.4787   -3.2802 H       1  LIG1        0.0306
     41 H           2.1836   -3.3322   -3.5059 H       1  LIG1        0.0306
     42 H           2.4874   -0.9723   -3.9058 H       1  LIG1        0.0309
     43 H           3.5150   -1.4374   -2.5857 H       1  LIG1        0.0309
     44 H           1.4333    0.6113   -2.6898 H       1  LIG1        0.0572
     45 H           0.7911    0.9529    0.8498 H       1  LIG1        0.0313
     46 H           0.0966    1.1369   -0.7764 H       1  LIG1        0.0313
     47 H           1.9371    2.6442   -1.4185 H       1  LIG1        0.0311
     48 H           2.8003    2.2794    0.0564 H       1  LIG1        0.0311
     49 H           1.9693    4.3455    0.5889 H       1  LIG1        0.0577
     50 H          -1.4049    5.7609    0.4173 H       1  LIG1        0.0318
     51 H           0.2103    6.0708   -0.0516 H       1  LIG1        0.0318
     52 H          -0.2309    7.1032    2.0562 H       1  LIG1        0.0311
     53 H           1.0249    5.9116    2.2789 H       1  LIG1        0.0311
     54 H          -1.7893    6.0069    3.4089 H       1  LIG1        0.0572
     55 H           1.3048    3.8021    3.0968 H       1  LIG1        0.0274
     56 H           0.1833    2.4749    3.4687 H       1  LIG1        0.0274
     57 H           1.0836    3.2740    4.7615 H       1  LIG1        0.0274
     58 H          -2.4190    4.5409    5.1720 H       1  LIG1        0.0274
     59 H          -1.1547    3.4986    5.8553 H       1  LIG1        0.0274
     60 H          -2.1088    2.9449    4.4681 H       1  LIG1        0.0274
     61 H          -3.3563    3.0473    1.5969 H       1  LIG1        0.0661
     62 H          -4.3078    3.9638    0.3927 H       1  LIG1        0.0661
     63 H          -3.1658    4.8091    1.4462 H       1  LIG1        0.0661
     64 H           3.0335   -1.5672    0.0223 H       1  LIG1        0.0274
     65 H           1.6348   -1.2412    1.0352 H       1  LIG1        0.0274
     66 H           3.0278   -0.2904    1.2019 H       1  LIG1        0.0274
     67 H           2.8668   -3.9243    0.1882 H       1  LIG1        0.0268
     68 H           3.6799   -2.8893   -0.9962 H       1  LIG1        0.0268
     69 H           3.3811   -4.5243   -1.3885 H       1  LIG1        0.0268
     70 H          -3.2584   -2.6364   -1.6532 H       1  LIG1        0.0658
     71 H          -2.9194   -6.8743   -2.2616 H       1  LIG1        0.0658
     72 H          -4.7966   -3.9284   -2.6783 H       1  LIG1        0.2921
@<TRIPOS>BOND
     1     1     2    1
     2     2     3   ar
     3     3     4   ar
     4     4     5    1
     5     5     6    1
     6     6     7    1
     7     7     8    1
     8     3     8    1
     9     7     9    1
    10     9    10    1
    11    10    11    1
    12    11    12    2
    13    12    13    1
    14    13    14    1
    15    14    15    1
    16    15    16    2
    17    16    17    1
    18    17    18    1
    19    18    19    1
    20    19    20    2
    21    20    21    1
    22    20    22    1
    23    16    23    1
    24    23    24    2
    25    23    25    1
    26    25    26    1
    27    12    27    1
    28     7    28    1
    29     4    29   ar
    30    29    30   ar
    31    30    31   ar
    32     2    31   ar
    33    30    32    1
    34     1    33    1
    35     1    34    1
    36     1    35    1
    37     5    36    1
    38     5    37    1
    39     6    38    1
    40     6    39    1
    41     9    40    1
    42     9    41    1
    43    10    42    1
    44    10    43    1
    45    11    44    1
    46    13    45    1
    47    13    46    1
    48    14    47    1
    49    14    48    1
    50    15    49    1
    51    17    50    1
    52    17    51    1
    53    18    52    1
    54    18    53    1
    55    19    54    1
    56    21    55    1
    57    21    56    1
    58    21    57    1
    59    22    58    1
    60    22    59    1
    61    22    60    1
    62    26    61    1
    63    26    62    1
    64    26    63    1
    65    27    64    1
    66    27    65    1
    67    27    66    1
    68    28    67    1
    69    28    68    1
    70    28    69    1
    71    29    70    1
    72    31    71    1
    73    32    72    1
