@<TRIPOS>MOLECULE
NuBBE_977
 56 56 0 0 0
SMALL
GASTEIGER

@<TRIPOS>ATOM
      1 C           3.9559   -0.0641    0.9406 C.3     1  LIG1       -0.0361
      2 C           2.9730    0.8949    0.2490 C.3     1  LIG1        0.0635
      3 O           3.3892    1.0462   -1.1121 O.3     1  LIG1       -0.3888
      4 C           1.5012    0.3514    0.2543 C.3     1  LIG1       -0.0090
      5 H           1.2173    0.2473    1.3089 H       1  LIG1        0.0330
      6 C           0.5156    1.3353   -0.4483 C.3     1  LIG1       -0.0471
      7 C          -0.4938    2.0114    0.5011 C.3     1  LIG1       -0.0468
      8 C          -1.9881    1.9566    0.0923 C.3     1  LIG1       -0.0067
      9 C          -2.7198    0.6983    0.6185 C.3     1  LIG1       -0.0468
     10 C          -2.1736   -0.6440    0.1318 C.3     1  LIG1       -0.0489
     11 C          -1.3572   -1.3835    1.2014 C.3     1  LIG1       -0.0285
     12 C          -0.4969   -2.4659    0.5844 C.2     1  LIG1       -0.0367
     13 C          -1.0850   -3.5988    0.1507 C.2     1  LIG1       -0.0960
     14 C          -2.2377    2.2192   -1.4096 C.3     1  LIG1        0.0952
     15 O          -3.6379    2.1759   -1.7498 O.3     1  LIG1       -0.4645
     16 C          -4.3614    3.3010   -1.4991 C.2     1  LIG1        0.3040
     17 C          -5.7618    3.1290   -2.0098 C.3     1  LIG1        0.0332
     18 O          -3.9463    4.3030   -0.9408 O.2     1  LIG1       -0.2512
     19 C           1.4064   -1.0521   -0.4264 C.3     1  LIG1       -0.0063
     20 C           1.0086   -2.2037    0.5243 C.3     1  LIG1        0.1242
     21 O           1.6676   -3.3775   -0.0081 O.3     1  LIG1       -0.4571
     22 C           2.6092   -3.9634    0.7721 C.2     1  LIG1        0.3045
     23 C           3.3175   -5.0384    0.0060 C.3     1  LIG1        0.0333
     24 O           2.8940   -3.6504    1.9192 O.2     1  LIG1       -0.2511
     25 C           3.0811    2.2660    0.9361 C.3     1  LIG1       -0.0361
     26 H           4.9692    0.3568    0.9396 H       1  LIG1        0.0257
     27 H           4.0418   -1.0204    0.4163 H       1  LIG1        0.0257
     28 H           3.6674   -0.2573    1.9785 H       1  LIG1        0.0257
     29 H           4.2889    1.4169   -1.1145 H       1  LIG1        0.2101
     30 H          -0.0027    0.8232   -1.2560 H       1  LIG1        0.0269
     31 H           1.0679    2.1287   -0.9659 H       1  LIG1        0.0269
     32 H          -0.2122    3.0720    0.5629 H       1  LIG1        0.0269
     33 H          -0.3947    1.6372    1.5258 H       1  LIG1        0.0269
     34 H          -2.4704    2.7844    0.6302 H       1  LIG1        0.0334
     35 H          -3.7740    0.7624    0.3213 H       1  LIG1        0.0269
     36 H          -2.7306    0.7269    1.7156 H       1  LIG1        0.0269
     37 H          -1.6050   -0.5264   -0.7925 H       1  LIG1        0.0268
     38 H          -3.0265   -1.2811   -0.1341 H       1  LIG1        0.0268
     39 H          -2.0460   -1.8334    1.9287 H       1  LIG1        0.0311
     40 H          -0.7386   -0.6986    1.7872 H       1  LIG1        0.0311
     41 H          -2.1578   -3.7448    0.2269 H       1  LIG1        0.0536
     42 H          -0.5207   -4.4068   -0.3058 H       1  LIG1        0.0536
     43 H          -1.7793    1.4548   -2.0362 H       1  LIG1        0.0700
     44 H          -1.8078    3.1792   -1.7193 H       1  LIG1        0.0700
     45 H          -5.7401    2.8129   -3.0560 H       1  LIG1        0.0342
     46 H          -6.2827    4.0896   -1.9574 H       1  LIG1        0.0342
     47 H          -6.2955    2.3986   -1.3998 H       1  LIG1        0.0342
     48 H           2.3583   -1.2973   -0.9081 H       1  LIG1        0.0308
     49 H           0.7054   -1.0511   -1.2709 H       1  LIG1        0.0308
     50 H           1.3621   -1.9903    1.5391 H       1  LIG1        0.0782
     51 H           2.8355   -5.2148   -0.9609 H       1  LIG1        0.0342
     52 H           3.2934   -5.9701    0.5750 H       1  LIG1        0.0342
     53 H           4.3490   -4.7234   -0.1737 H       1  LIG1        0.0342
     54 H           4.1194    2.6198    0.9306 H       1  LIG1        0.0257
     55 H           2.7400    2.2213    1.9751 H       1  LIG1        0.0257
     56 H           2.5094    3.0371    0.4114 H       1  LIG1        0.0257
@<TRIPOS>BOND
     1     1     2    1
     2     2     3    1
     3     4     6    1
     4     6     7    1
     5     7     8    1
     6     8     9    1
     7     9    10    1
     8    10    11    1
     9    11    12    1
    10    12    13    2
    11     8    14    1
    12    14    15    1
    13    15    16    1
    14    16    17    1
    15    16    18    2
    16     4    19    1
    17    19    20    1
    18    12    20    1
    19    20    21    1
    20    21    22    1
    21    22    23    1
    22    22    24    2
    23     2    25    1
    24     4     5    1
    25     4     2    1
    26     1    26    1
    27     1    27    1
    28     1    28    1
    29     3    29    1
    30     6    30    1
    31     6    31    1
    32     7    32    1
    33     7    33    1
    34     8    34    1
    35     9    35    1
    36     9    36    1
    37    10    37    1
    38    10    38    1
    39    11    39    1
    40    11    40    1
    41    13    41    1
    42    13    42    1
    43    14    43    1
    44    14    44    1
    45    17    45    1
    46    17    46    1
    47    17    47    1
    48    19    48    1
    49    19    49    1
    50    20    50    1
    51    23    51    1
    52    23    52    1
    53    23    53    1
    54    25    54    1
    55    25    55    1
    56    25    56    1
