@<TRIPOS>MOLECULE
NuBBE_1773
 93 97 0 0 0
SMALL
GASTEIGER

@<TRIPOS>ATOM
      1 C          -1.7262    0.7984   -2.4032 C.3     1  LIG1       -0.0482
      2 C          -0.3997   -0.0014   -2.0836 C.3     1  LIG1        0.0627
      3 C          -0.2598   -0.8626   -0.7777 C.3     1  LIG1        0.0286
      4 C           1.1707   -0.9743   -0.1479 C.3     1  LIG1        0.1456
      5 H           1.1877   -1.6341    0.7182 H       1  LIG1        0.0775
      6 C           1.8531    0.3640    0.1662 C.3     1  LIG1        0.1496
      7 H           2.8805    0.1564    0.4962 H       1  LIG1        0.0780
      8 O           1.2016    1.0266    1.2791 O.3     1  LIG1       -0.4565
      9 C           1.4436    0.5040    2.5422 C.2     1  LIG1        0.3101
     10 C           1.2193    1.5641    3.6107 C.3     1  LIG1        0.0508
     11 C          -0.1344    2.2410    3.4964 C.3     1  LIG1       -0.0525
     12 C           1.4649    1.0984    5.0481 C.3     1  LIG1       -0.0525
     13 O           1.9241   -0.5988    2.7672 O.2     1  LIG1       -0.2505
     14 C           1.9869    1.2054   -1.1626 C.3     1  LIG1        0.0376
     15 C           3.2198    0.6860   -1.9902 C.3     1  LIG1       -0.0517
     16 C           0.7176    1.1177   -2.0854 C.2     1  LIG1       -0.0495
     17 C           0.5056    2.3472   -2.6000 C.2     1  LIG1       -0.0826
     18 C           1.2557    3.4470   -1.9495 C.3     1  LIG1       -0.0265
     19 C           2.3249    2.7848   -1.0714 C.3     1  LIG1        0.0069
     20 H           3.2392    2.9401   -1.6733 H       1  LIG1        0.0364
     21 C           2.6937    3.5642    0.1731 C.2     1  LIG1        0.0440
     22 C           3.6045    3.3639    1.1327 C.2     1  LIG1        0.0066
     23 C           3.6731    4.4999    2.0892 C.3     1  LIG1        0.2697
     24 O           3.2624    4.0915    3.3812 O.3     1  LIG1       -0.4210
     25 C           4.1976    4.1841    4.3534 C.2     1  LIG1        0.3071
     26 C           3.5016    4.4001    5.6617 C.3     1  LIG1        0.0333
     27 O           5.4050    4.1646    4.1858 O.2     1  LIG1       -0.2511
     28 O           2.7095    5.4139    1.5989 O.3     1  LIG1       -0.4176
     29 C           2.1981    4.9541    0.4257 C.2     1  LIG1        0.3385
     30 O           1.5018    5.6153   -0.2836 O.2     1  LIG1       -0.2452
     31 O           1.9658   -1.6285   -1.1992 O.3     1  LIG1       -0.4574
     32 C           2.2157   -2.9583   -1.1996 C.2     1  LIG1        0.3043
     33 C           2.4239   -3.4134   -2.6169 C.3     1  LIG1        0.0332
     34 O           2.1643   -3.6878   -0.2208 O.2     1  LIG1       -0.2512
     35 H          -0.1209   -1.8961   -1.1401 H       1  LIG1        0.0362
     36 C          -1.6317   -1.1786   -0.1035 C.3     1  LIG1        0.0201
     37 C          -2.4347   -2.0271   -1.1881 C.2     1  LIG1        0.0102
     38 C          -3.8898   -2.4228   -0.7187 C.3     1  LIG1        0.1520
     39 C          -4.7290   -3.2423   -1.7233 C.3     1  LIG1       -0.0382
     40 C          -4.5976   -1.0634   -0.5321 C.2     1  LIG1        0.1765
     41 C          -3.8209    0.0801    0.0450 C.2     1  LIG1       -0.0209
     42 C          -2.4941    0.0114    0.2680 C.2     1  LIG1       -0.0702
     43 O          -5.7885   -0.8818   -0.7884 O.2     1  LIG1       -0.2912
     44 C          -4.0055   -3.1880    0.6247 C.2     1  LIG1        0.3247
     45 O          -3.7771   -4.5162    0.4262 O.3     1  LIG1       -0.4670
     46 C          -3.4434   -5.3027    1.5701 C.3     1  LIG1        0.0817
     47 O          -4.2072   -2.6812    1.7205 O.2     1  LIG1       -0.2494
     48 C          -1.9402   -2.1497   -2.4727 C.2     1  LIG1        0.1762
     49 O          -2.4290   -3.1008   -3.3806 O.3     1  LIG1       -0.4224
     50 C          -2.8993   -2.5619   -4.5475 C.2     1  LIG1        0.3093
     51 C          -2.9543   -3.6336   -5.5955 C.3     1  LIG1        0.0336
     52 O          -3.2775   -1.4088   -4.7002 O.2     1  LIG1       -0.2507
     53 C          -0.7151   -1.2347   -3.0129 C.2     1  LIG1        0.2083
     54 O          -0.0991   -1.5311   -4.0299 O.2     1  LIG1       -0.2879
     55 C          -1.3006   -1.9739    1.1700 C.3     1  LIG1       -0.0518
     56 H          -1.8713    1.6607   -1.7447 H       1  LIG1        0.0242
     57 H          -2.6546    0.2270   -2.3968 H       1  LIG1        0.0242
     58 H          -1.7017    1.1590   -3.4440 H       1  LIG1        0.0242
     59 H           1.9905    2.2953    3.3962 H       1  LIG1        0.0408
     60 H          -0.3571    2.5282    2.4653 H       1  LIG1        0.0237
     61 H          -0.1522    3.1533    4.1030 H       1  LIG1        0.0237
     62 H          -0.9325    1.5791    3.8448 H       1  LIG1        0.0237
     63 H           0.7763    0.3011    5.3417 H       1  LIG1        0.0237
     64 H           1.3260    1.9306    5.7505 H       1  LIG1        0.0237
     65 H           2.4879    0.7295    5.1846 H       1  LIG1        0.0237
     66 H           3.2107   -0.3583   -2.2816 H       1  LIG1        0.0239
     67 H           4.1431    0.8527   -1.4202 H       1  LIG1        0.0239
     68 H           3.3149    1.2258   -2.9411 H       1  LIG1        0.0239
     69 H          -0.3169    2.6582   -3.2329 H       1  LIG1        0.0572
     70 H           0.5056    3.9858   -1.3643 H       1  LIG1        0.0314
     71 H           1.6952    4.1320   -2.6821 H       1  LIG1        0.0314
     72 H           4.2743    2.5213    1.2270 H       1  LIG1        0.0650
     73 H           4.6363    5.0208    2.0901 H       1  LIG1        0.1258
     74 H           2.7827    5.2166    5.5354 H       1  LIG1        0.0342
     75 H           4.2268    4.7026    6.4191 H       1  LIG1        0.0342
     76 H           2.9894    3.4943    5.9861 H       1  LIG1        0.0342
     77 H           1.5242   -3.1909   -3.1958 H       1  LIG1        0.0342
     78 H           2.5714   -4.4948   -2.6490 H       1  LIG1        0.0342
     79 H           3.2853   -2.9141   -3.0661 H       1  LIG1        0.0342
     80 H          -4.9275   -2.6956   -2.6480 H       1  LIG1        0.0248
     81 H          -5.7082   -3.4952   -1.2930 H       1  LIG1        0.0248
     82 H          -4.2462   -4.1953   -1.9695 H       1  LIG1        0.0248
     83 H          -4.4023    0.9739    0.2475 H       1  LIG1        0.0650
     84 H          -2.0017    0.8883    0.6821 H       1  LIG1        0.0582
     85 H          -4.2807   -5.4332    2.2634 H       1  LIG1        0.0661
     86 H          -2.5749   -4.8709    2.0741 H       1  LIG1        0.0661
     87 H          -3.1579   -6.2848    1.1836 H       1  LIG1        0.0661
     88 H          -1.9890   -4.1464   -5.6448 H       1  LIG1        0.0342
     89 H          -3.1459   -3.1798   -6.5711 H       1  LIG1        0.0342
     90 H          -3.7494   -4.3464   -5.3632 H       1  LIG1        0.0342
     91 H          -0.9643   -2.9888    0.9280 H       1  LIG1        0.0241
     92 H          -2.1199   -2.0315    1.8777 H       1  LIG1        0.0241
     93 H          -0.5225   -1.4803    1.7558 H       1  LIG1        0.0241
@<TRIPOS>BOND
     1     1     2    1
     2     2     3    1
     3     3     4    1
     4     4     5    1
     5     4     6    1
     6     8     9    1
     7     9    10    1
     8    10    11    1
     9    10    12    1
    10     9    13    2
    11     6    14    1
    12    14    15    1
    13    14    16    1
    14     2    16    1
    15    16    17    2
    16    17    18    1
    17    18    19    1
    18    19    20    1
    19    14    19    1
    20    19    21    1
    21    21    22    2
    22    22    23    1
    23    23    24    1
    24    24    25    1
    25    25    26    1
    26    25    27    2
    27    23    28    1
    28    28    29    1
    29    21    29    1
    30    29    30    2
    31     4    31    1
    32    31    32    1
    33    32    33    1
    34    32    34    2
    35     3    35    1
    36     3    36    1
    37    36    37    1
    38    37    38    1
    39    38    39    1
    40    38    40    1
    41    40    41    1
    42    41    42    2
    43    40    43    2
    44    38    44    1
    45    44    45    1
    46    45    46    1
    47    44    47    2
    48    37    48    2
    49    48    49    1
    50    49    50    1
    51    50    51    1
    52    50    52    2
    53    48    53    1
    54     2    53    1
    55    53    54    2
    56    42    36    1
    57    36    55    1
    58     6     8    1
    59     6     7    1
    60     1    56    1
    61     1    57    1
    62     1    58    1
    63    10    59    1
    64    11    60    1
    65    11    61    1
    66    11    62    1
    67    12    63    1
    68    12    64    1
    69    12    65    1
    70    15    66    1
    71    15    67    1
    72    15    68    1
    73    17    69    1
    74    18    70    1
    75    18    71    1
    76    22    72    1
    77    23    73    1
    78    26    74    1
    79    26    75    1
    80    26    76    1
    81    33    77    1
    82    33    78    1
    83    33    79    1
    84    39    80    1
    85    39    81    1
    86    39    82    1
    87    41    83    1
    88    42    84    1
    89    46    85    1
    90    46    86    1
    91    46    87    1
    92    51    88    1
    93    51    89    1
    94    51    90    1
    95    55    91    1
    96    55    92    1
    97    55    93    1
