REMARK  Name = NuBBE_2077
REMARK  4 active torsions:
REMARK  status: ('A' for Active; 'I' for Inactive)
REMARK    1  A    between atoms: C_3  and  C_4
REMARK    2  A    between atoms: C_5  and  O_6
REMARK    3  A    between atoms: O_6  and  C_7
REMARK    4  A    between atoms: C_7  and  C_8
REMARK                            x       y       z     vdW  Elec       q    Type
REMARK                         _______ _______ _______ _____ _____    ______ ____
ROOT
ATOM      1  O   LIG A   1      -0.082  -4.149  -0.402  0.00  0.00    -0.250 OA
ATOM      2  C   LIG A   1      -0.217  -2.943  -0.515  0.00  0.00    +0.320 C 
ATOM      3  C   LIG A   1       0.873  -1.884  -0.645  0.00  0.00    +0.137 C 
ATOM      4  C   LIG A   1       1.191  -1.988  -2.172  0.00  0.00    +0.030 C 
ATOM      5  C   LIG A   1       2.174  -1.652   0.161  0.00  0.00    +0.232 C 
ATOM      6  C   LIG A   1       2.889  -0.417  -0.497  0.00  0.00    +0.081 C 
ATOM      7  C   LIG A   1       1.879   0.756  -0.647  0.00  0.00    +0.016 C 
ATOM      8  C   LIG A   1       0.666   0.502   0.282  0.00  0.00    +0.005 C 
ATOM      9  C   LIG A   1       1.341   0.100   1.635  0.00  0.00    +0.172 C 
ATOM     10  O   LIG A   1       1.956  -1.210   1.520  0.00  0.00    -0.338 OA
ATOM     11  C   LIG A   1      -0.345   1.701   0.322  0.00  0.00    +0.009 C 
ATOM     12  C   LIG A   1      -0.798   2.103   1.754  0.00  0.00    +0.009 C 
ATOM     13  C   LIG A   1      -1.667   3.374   1.774  0.00  0.00    +0.042 C 
ATOM     14  C   LIG A   1      -2.646   3.349   0.678  0.00  0.00    +0.036 C 
ATOM     15  C   LIG A   1      -2.661   2.537  -0.373  0.00  0.00    +0.108 C 
ATOM     16  O   LIG A   1      -3.687   2.675  -1.299  0.00  0.00    -0.488 OA
ATOM     17  C   LIG A   1      -4.537   3.721  -0.774  0.00  0.00    +0.307 C 
ATOM     18  C   LIG A   1      -3.836   4.157   0.480  0.00  0.00    +0.199 C 
ATOM     19  O   LIG A   1      -4.190   5.046   1.236  0.00  0.00    -0.289 OA
ATOM     20  C   LIG A   1      -1.610   1.496  -0.620  0.00  0.00    +0.062 C 
ATOM     21  C   LIG A   1      -2.247   0.086  -0.520  0.00  0.00    +0.056 C 
ATOM     22  C   LIG A   1      -1.210  -0.905  -0.994  0.00  0.00    +0.182 C 
ATOM     23  O   LIG A   1      -1.460  -2.313  -0.797  0.00  0.00    -0.461 OA
ATOM     24  C   LIG A   1      -0.031  -0.788  -0.114  0.00  0.00    +0.061 C 
ENDROOT
BRANCH   5  25
ATOM     25  O   LIG A   1       3.083  -2.751   0.044  0.00  0.00    -0.431 OA
BRANCH  25  26
ATOM     26  C   LIG A   1       2.829  -3.846   0.809  0.00  0.00    +0.306 C 
ATOM     27  C   LIG A   1       3.741  -4.962   0.398  0.00  0.00    +0.136 C 
ATOM     28  O   LIG A   1       1.992  -3.936   1.693  0.00  0.00    -0.251 OA
ENDBRANCH  25  26
ENDBRANCH   5  25
TORSDOF 2
