@<TRIPOS>MOLECULE
NuBBE_134
 21 21 0 0 0
SMALL
GASTEIGER

@<TRIPOS>ATOM
      1 O          -0.8493   -1.7229    4.3916 O.3     1  LIG1       -0.4775
      2 C          -1.3716   -0.8518    3.5048 C.2     1  LIG1        0.3296
      3 C          -0.6778   -0.9158    2.2039 C.2     1  LIG1        0.0229
      4 C          -0.8699    0.0578    1.2996 C.2     1  LIG1       -0.0477
      5 C          -0.2192    0.0926   -0.0199 C.ar    1  LIG1       -0.0211
      6 C           0.0426    1.3382   -0.6141 C.ar    1  LIG1       -0.0094
      7 C           0.6442    1.3916   -1.8691 C.ar    1  LIG1        0.1588
      8 O           0.9314    2.5785   -2.4859 O.3     1  LIG1       -0.5033
      9 C           0.9764    0.2201   -2.5425 C.ar    1  LIG1        0.1582
     10 C           0.7121   -1.0176   -1.9811 C.ar    1  LIG1       -0.0160
     11 C           0.1074   -1.0805   -0.7233 C.ar    1  LIG1       -0.0509
     12 O           1.5632    0.2801   -3.7731 O.3     1  LIG1       -0.5033
     13 O          -2.2961   -0.1039    3.7626 O.2     1  LIG1       -0.2458
     14 H          -0.0675   -2.2159    4.0851 H       1  LIG1        0.2954
     15 H          -0.0235   -1.7543    2.0126 H       1  LIG1        0.0689
     16 H          -1.5233    0.8978    1.5356 H       1  LIG1        0.0626
     17 H          -0.2173    2.2543   -0.0916 H       1  LIG1        0.0661
     18 H           0.6508    3.3032   -1.9007 H       1  LIG1        0.2923
     19 H           0.9663   -1.9260   -2.5185 H       1  LIG1        0.0655
     20 H          -0.1147   -2.0616   -0.3119 H       1  LIG1        0.0625
     21 H           1.6360    1.2364   -3.9641 H       1  LIG1        0.2923
@<TRIPOS>BOND
     1     1     2    1
     2     2     3    1
     3     3     4    2
     4     4     5    1
     5     5     6   ar
     6     6     7   ar
     7     7     8    1
     8     7     9   ar
     9     9    10   ar
    10    10    11   ar
    11     5    11   ar
    12     9    12    1
    13     2    13    2
    14     1    14    1
    15     3    15    1
    16     4    16    1
    17     6    17    1
    18     8    18    1
    19    10    19    1
    20    11    20    1
    21    12    21    1
