@<TRIPOS>MOLECULE
NuBBE_471
 77 81 0 0 0
SMALL
GASTEIGER

@<TRIPOS>ATOM
      1 CL          1.1770    1.6727   -5.3905 Cl      1  LIG1       -0.0792
      2 C          -0.1459    1.5304   -4.2838 C.2     1  LIG1        0.0938
      3 C          -1.4904    1.2463   -4.9155 C.2     1  LIG1        0.2068
      4 C          -2.5813    0.7334   -3.9620 C.3     1  LIG1        0.1407
      5 C          -2.3172   -0.7558   -3.6723 C.3     1  LIG1       -0.0277
      6 C          -2.5391    1.6753   -2.7641 C.3     1  LIG1        0.0418
      7 C          -1.2185    1.5226   -2.0638 C.2     1  LIG1        0.0034
      8 C          -1.0207    1.3468   -0.7480 C.2     1  LIG1        0.0966
      9 O           0.2274    1.2781   -0.1562 O.2     1  LIG1       -0.4632
     10 H          -2.5518    2.7154   -3.1331 H       1  LIG1        0.0392
     11 O          -3.9238    0.8444   -4.4307 O.3     1  LIG1       -0.3329
     12 C          -4.7750    1.1040   -3.3074 C.3     1  LIG1        0.1881
     13 O          -5.4271   -0.1319   -3.0371 O.3     1  LIG1       -0.3635
     14 C          -3.8973    1.4473   -2.1009 C.3     1  LIG1        0.1202
     15 H          -3.8653    0.6068   -1.3958 H       1  LIG1        0.0474
     16 C          -5.8248    2.1485   -3.6850 C.3     1  LIG1        0.0478
     17 H          -6.5857    1.6868   -4.3285 H       1  LIG1        0.0386
     18 C          -6.5010    2.6574   -2.4149 C.3     1  LIG1        0.1077
     19 H          -7.1659    3.4858   -2.6896 H       1  LIG1        0.0735
     20 O          -5.5276    3.2130   -1.5157 O.3     1  LIG1       -0.4608
     21 C          -4.3156    2.6625   -1.3071 C.2     1  LIG1        0.3164
     22 O          -3.5648    3.1546   -0.4695 O.2     1  LIG1       -0.2503
     23 C          -7.3491    1.6404   -1.6590 C.3     1  LIG1       -0.0273
     24 C          -5.2312    3.3239   -4.4805 C.3     1  LIG1       -0.0541
     25 O          -1.6899    1.4068   -6.1181 O.2     1  LIG1       -0.2880
     26 C          -0.0211    1.5982   -2.9355 C.2     1  LIG1        0.0067
     27 C           1.2711    1.7563   -2.2644 C.2     1  LIG1       -0.0104
     28 C           1.3495    1.5714   -0.9333 C.2     1  LIG1        0.1279
     29 C           2.6029    1.6694   -0.2074 C.2     1  LIG1       -0.0229
     30 C           2.8404    1.0513    0.9599 C.2     1  LIG1       -0.0742
     31 C           4.1499    1.0530    1.7225 C.3     1  LIG1        0.0115
     32 H           4.8601    1.7138    1.2088 H       1  LIG1        0.0376
     33 C           3.8978    1.6273    3.1208 C.3     1  LIG1       -0.0556
     34 C           4.7567   -0.3801    1.7614 C.3     1  LIG1        0.1063
     35 H           4.8955   -0.7195    0.7239 H       1  LIG1        0.0737
     36 O           3.8389   -1.2656    2.4446 O.3     1  LIG1       -0.4590
     37 C           3.9406   -2.6128    2.1534 C.2     1  LIG1        0.3411
     38 C           2.8514   -3.4015    2.9319 C.3     1  LIG1        0.1795
     39 O           1.5723   -2.8054    3.1564 O.3     1  LIG1       -0.3639
     40 C           0.9317   -2.3542    1.9754 C.3     1  LIG1        0.0380
     41 C           3.3600   -3.8393    4.3015 C.ar    1  LIG1       -0.0082
     42 C           3.6049   -5.1926    4.5820 C.ar    1  LIG1       -0.0556
     43 C           4.0353   -5.5892    5.8519 C.ar    1  LIG1       -0.0614
     44 C           4.2336   -4.6405    6.8533 C.ar    1  LIG1       -0.0617
     45 C           3.9957   -3.2941    6.5898 C.ar    1  LIG1       -0.0614
     46 C           3.5580   -2.8963    5.3247 C.ar    1  LIG1       -0.0556
     47 H           2.6674   -4.2995    2.3237 H       1  LIG1        0.0764
     48 O           4.7591   -3.1038    1.3918 O.2     1  LIG1       -0.2475
     49 C           6.1030   -0.4238    2.4865 C.3     1  LIG1       -0.0272
     50 H          -1.2842   -0.9625   -3.3759 H       1  LIG1        0.0262
     51 H          -2.5208   -1.3518   -4.5702 H       1  LIG1        0.0262
     52 H          -2.9739   -1.1446   -2.8878 H       1  LIG1        0.0262
     53 H          -1.7943    1.2778    0.0054 H       1  LIG1        0.1032
     54 H          -5.7967   -0.4161   -3.8929 H       1  LIG1        0.2128
     55 H          -6.7389    0.8960   -1.1390 H       1  LIG1        0.0265
     56 H          -8.0522    1.1325   -2.3255 H       1  LIG1        0.0265
     57 H          -7.9249    2.1493   -0.8775 H       1  LIG1        0.0265
     58 H          -4.4574    3.8575   -3.9210 H       1  LIG1        0.0235
     59 H          -6.0133    4.0475   -4.7345 H       1  LIG1        0.0235
     60 H          -4.7913    2.9821   -5.4231 H       1  LIG1        0.0235
     61 H           2.1635    1.9720   -2.8416 H       1  LIG1        0.0661
     62 H           3.3912    2.2571   -0.6722 H       1  LIG1        0.0651
     63 H           2.0442    0.4715    1.4135 H       1  LIG1        0.0577
     64 H           3.4769    2.6370    3.0567 H       1  LIG1        0.0237
     65 H           4.8286    1.7035    3.6905 H       1  LIG1        0.0237
     66 H           3.1985    1.0098    3.6963 H       1  LIG1        0.0237
     67 H          -0.1434   -2.2994    2.1660 H       1  LIG1        0.0524
     68 H           1.1114   -3.0114    1.1200 H       1  LIG1        0.0524
     69 H           1.2695   -1.3485    1.7426 H       1  LIG1        0.0524
     70 H           3.4491   -5.9525    3.8193 H       1  LIG1        0.0621
     71 H           4.2100   -6.6410    6.0638 H       1  LIG1        0.0618
     72 H           4.5665   -4.9506    7.8407 H       1  LIG1        0.0618
     73 H           4.1390   -2.5533    7.3721 H       1  LIG1        0.0618
     74 H           3.3481   -1.8436    5.1445 H       1  LIG1        0.0621
     75 H           6.5650   -1.4114    2.3829 H       1  LIG1        0.0265
     76 H           5.9792   -0.2639    3.5627 H       1  LIG1        0.0265
     77 H           6.8009    0.3193    2.0897 H       1  LIG1        0.0265
@<TRIPOS>BOND
     1     2     3    1
     2     3     4    1
     3     4     6    1
     4     6     7    1
     5     7     8    2
     6     8     9    1
     7     4    11    1
     8    11    12    1
     9    12    14    1
    10     6    14    1
    11    12    16    1
    12    16    18    1
    13    18    20    1
    14    20    21    1
    15    14    21    1
    16     2    26    2
    17     7    26    1
    18    26    27    1
    19    27    28    2
    20     9    28    1
    21    29    30    2
    22    30    31    1
    23    31    32    1
    24    31    33    1
    25    34    36    1
    26    36    37    1
    27    39    40    1
    28    38    41    1
    29    41    42   ar
    30    42    43   ar
    31    43    44   ar
    32    44    45   ar
    33    45    46   ar
    34    41    46   ar
    35    38    47    1
    36    37    48    2
    37    34    49    1
    38     1     2    1
    39     3    25    2
    40     4     5    1
    41     6    10    1
    42    12    13    1
    43    14    15    1
    44    16    17    1
    45    16    24    1
    46    21    22    2
    47    28    29    1
    48    18    23    1
    49    18    19    1
    50    34    35    1
    51    34    31    1
    52    38    39    1
    53    38    37    1
    54     5    50    1
    55     5    51    1
    56     5    52    1
    57     8    53    1
    58    13    54    1
    59    23    55    1
    60    23    56    1
    61    23    57    1
    62    24    58    1
    63    24    59    1
    64    24    60    1
    65    27    61    1
    66    29    62    1
    67    30    63    1
    68    33    64    1
    69    33    65    1
    70    33    66    1
    71    40    67    1
    72    40    68    1
    73    40    69    1
    74    42    70    1
    75    43    71    1
    76    44    72    1
    77    45    73    1
    78    46    74    1
    79    49    75    1
    80    49    76    1
    81    49    77    1
