REMARK  Name = NuBBE_370
REMARK  10 active torsions:
REMARK  status: ('A' for Active; 'I' for Inactive)
REMARK    1  A    between atoms: O_1  and  C_2
REMARK    2  A    between atoms: C_8  and  O_28
REMARK    3  A    between atoms: C_9  and  C_10
REMARK    4  A    between atoms: C_13  and  C_24
REMARK    5  A    between atoms: C_15  and  O_23
REMARK    6  A    between atoms: C_17  and  O_22
REMARK    7  A    between atoms: C_19  and  O_21
REMARK    8  A    between atoms: C_24  and  O_25
REMARK    9  A    between atoms: C_26  and  O_27
REMARK   10  A    between atoms: C_34  and  O_35
REMARK                            x       y       z     vdW  Elec       q    Type
REMARK                         _______ _______ _______ _____ _____    ______ ____
ROOT
ATOM      1  C   LIG A   1       0.827  -6.178   2.249  0.00  0.00    +0.162 A 
ATOM      2  C   LIG A   1       1.344  -4.943   2.640  0.00  0.00    +0.096 A 
ATOM      3  C   LIG A   1       1.027  -3.801   1.901  0.00  0.00    +0.143 A 
ATOM      4  O   LIG A   1       1.570  -2.617   2.338  0.00  0.00    -0.454 OA
ATOM      5  C   LIG A   1       1.249  -1.464   1.663  0.00  0.00    +0.146 A 
ATOM      6  C   LIG A   1       1.797  -0.284   2.165  0.00  0.00    +0.093 A 
ATOM      7  C   LIG A   1       1.503   0.936   1.550  0.00  0.00    +0.130 A 
ATOM      8  C   LIG A   1       0.662   1.013   0.428  0.00  0.00    +0.067 A 
ATOM      9  C   LIG A   1       0.133  -0.192  -0.075  0.00  0.00    +0.140 A 
ATOM     10  C   LIG A   1       0.426  -1.419   0.542  0.00  0.00    +0.106 A 
ATOM     11  C   LIG A   1      -0.127  -2.686   0.039  0.00  0.00    +0.204 A 
ATOM     12  O   LIG A   1      -0.837  -2.709  -0.959  0.00  0.00    -0.286 OA
ATOM     13  C   LIG A   1       0.199  -3.907   0.785  0.00  0.00    +0.068 A 
ATOM     14  C   LIG A   1      -0.320  -5.143   0.386  0.00  0.00    +0.064 A 
ATOM     15  C   LIG A   1       0.000  -6.277   1.126  0.00  0.00    +0.159 A 
ENDROOT
BRANCH   8  16
ATOM     16  C   LIG A   1       0.333   2.354  -0.212  0.00  0.00    +0.187 C 
ATOM     17  O   LIG A   1      -1.101   2.499  -0.141  0.00  0.00    -0.361 OA
ATOM     18  C   LIG A   1      -1.600   3.686  -0.768  0.00  0.00    +0.175 C 
ATOM     19  C   LIG A   1      -1.219   3.710  -2.250  0.00  0.00    +0.176 C 
ATOM     20  C   LIG A   1       0.304   3.677  -2.370  0.00  0.00    +0.177 C 
ATOM     21  C   LIG A   1       0.891   2.461  -1.652  0.00  0.00    +0.179 C 
BRANCH  21  22
ATOM     22  O   LIG A   1       2.323   2.599  -1.651  0.00  0.00    -0.386 OA
ATOM     23  H   LIG A   1       2.559   2.769  -2.585  0.00  0.00    +0.210 HD
ENDBRANCH  21  22
BRANCH  20  24
ATOM     24  O   LIG A   1       0.695   3.642  -3.754  0.00  0.00    -0.387 OA
ATOM     25  H   LIG A   1       0.032   4.179  -4.234  0.00  0.00    +0.210 HD
ENDBRANCH  20  24
BRANCH  19  26
ATOM     26  O   LIG A   1      -1.708   4.872  -2.931  0.00  0.00    -0.387 OA
ATOM     27  H   LIG A   1      -1.464   5.661  -2.415  0.00  0.00    +0.210 HD
ENDBRANCH  19  26
BRANCH  18  28
ATOM     28  C   LIG A   1      -3.122   3.701  -0.586  0.00  0.00    +0.190 C 
BRANCH  28  29
ATOM     29  O   LIG A   1      -3.439   3.705   0.807  0.00  0.00    -0.392 OA
ATOM     30  H   LIG A   1      -2.966   2.935   1.179  0.00  0.00    +0.209 HD
ENDBRANCH  28  29
ENDBRANCH  18  28
ENDBRANCH   8  16
BRANCH   1  31
ATOM     31  O   LIG A   1       1.122  -7.306   2.960  0.00  0.00    -0.503 OA
ATOM     32  H   LIG A   1       1.695  -7.080   3.709  0.00  0.00    +0.292 HD
ENDBRANCH   1  31
BRANCH   9  33
ATOM     33  O   LIG A   1      -0.679  -0.136  -1.182  0.00  0.00    -0.505 OA
ATOM     34  H   LIG A   1      -0.967  -1.050  -1.406  0.00  0.00    +0.292 HD
ENDBRANCH   9  33
BRANCH   7  35
ATOM     35  O   LIG A   1       2.042   2.086   2.061  0.00  0.00    -0.506 OA
ATOM     36  H   LIG A   1       2.691   1.864   2.749  0.00  0.00    +0.292 HD
ENDBRANCH   7  35
BRANCH  15  37
ATOM     37  O   LIG A   1      -0.491  -7.499   0.763  0.00  0.00    -0.503 OA
ATOM     38  H   LIG A   1      -1.041  -7.405  -0.031  0.00  0.00    +0.292 HD
ENDBRANCH  15  37
TORSDOF 10
