REMARK  Name = NuBBE_2185
REMARK  13 active torsions:
REMARK  status: ('A' for Active; 'I' for Inactive)
REMARK    1  A    between atoms: C_1  and  C_3
REMARK    2  A    between atoms: C_1  and  C_14
REMARK    3  A    between atoms: C_1  and  C_15
REMARK    4  A    between atoms: C_3  and  C_4
REMARK    5  A    between atoms: C_6  and  O_7
REMARK    6  A    between atoms: O_7  and  C_8
REMARK    7  A    between atoms: C_9  and  O_12
REMARK    8  A    between atoms: O_12  and  C_13
REMARK    9  A    between atoms: C_16  and  O_17
REMARK   10  A    between atoms: O_17  and  C_18
REMARK   11  A    between atoms: C_20  and  O_26
REMARK   12  A    between atoms: C_21  and  C_23
REMARK   13  A    between atoms: C_23  and  C_24
REMARK                            x       y       z     vdW  Elec       q    Type
REMARK                         _______ _______ _______ _____ _____    ______ ____
ROOT
ATOM      1  C   LIG A   1       1.214   1.515   1.953  0.00  0.00    +0.024 C 
ATOM      2  C   LIG A   1       2.290   2.147   2.877  0.00  0.00    +0.013 C 
ENDROOT
BRANCH   1   3
ATOM      3  C   LIG A   1       1.591   0.974   0.521  0.00  0.00    -0.002 A 
ATOM      4  C   LIG A   1       2.782   0.412  -0.007  0.00  0.00    +0.127 A 
ATOM      5  C   LIG A   1       2.830   0.007  -1.366  0.00  0.00    +0.091 A 
ATOM      6  C   LIG A   1       1.737   0.104  -2.222  0.00  0.00    +0.124 A 
ATOM      7  C   LIG A   1       0.552   0.694  -1.790  0.00  0.00    -0.002 A 
ATOM      8  C   LIG A   1       0.510   1.105  -0.428  0.00  0.00    +0.015 A 
BRANCH   4   9
ATOM      9  O   LIG A   1       4.003   0.113   0.549  0.00  0.00    -0.495 OA
ATOM     10  C   LIG A   1       4.162   0.320   1.922  0.00  0.00    +0.277 C 
ENDBRANCH   4   9
BRANCH   6  11
ATOM     11  O   LIG A   1       1.836  -0.469  -3.457  0.00  0.00    -0.506 OA
ATOM     12  H   LIG A   1       2.720  -0.832  -3.605  0.00  0.00    +0.292 HD
ENDBRANCH   6  11
BRANCH   7  13
ATOM     13  C   LIG A   1      -0.718   0.829  -2.636  0.00  0.00    +0.065 C 
BRANCH  13  14
ATOM     14  C   LIG A   1      -0.630   0.302  -4.032  0.00  0.00    -0.030 C 
ATOM     15  C   LIG A   1      -0.156   1.112  -5.069  0.00  0.00    +0.004 C 
ENDBRANCH  13  14
ENDBRANCH   7  13
ENDBRANCH   1   3
BRANCH   1  16
ATOM     16  C   LIG A   1       0.314   0.605   2.872  0.00  0.00    +0.043 C 
BRANCH  16  17
ATOM     17  C   LIG A   1      -0.967   0.052   2.300  0.00  0.00    -0.043 A 
ATOM     18  C   LIG A   1      -0.886  -0.965   1.347  0.00  0.00    +0.053 A 
ATOM     19  C   LIG A   1      -2.000  -1.499   0.680  0.00  0.00    +0.162 A 
ATOM     20  C   LIG A   1      -3.263  -1.180   1.194  0.00  0.00    +0.162 A 
ATOM     21  C   LIG A   1      -3.358  -0.179   2.186  0.00  0.00    +0.050 A 
ATOM     22  C   LIG A   1      -2.229   0.467   2.703  0.00  0.00    +0.007 A 
BRANCH  19  23
ATOM     23  O   LIG A   1      -1.799  -2.370  -0.366  0.00  0.00    -0.491 OA
ATOM     24  C   LIG A   1      -0.679  -2.071  -1.215  0.00  0.00    +0.277 C 
ENDBRANCH  19  23
BRANCH  20  25
ATOM     25  O   LIG A   1      -4.470  -1.788   0.993  0.00  0.00    -0.491 OA
ATOM     26  C   LIG A   1      -4.804  -2.384  -0.244  0.00  0.00    +0.277 C 
ENDBRANCH  20  25
ENDBRANCH  16  17
ENDBRANCH   1  16
TORSDOF 9
