@<TRIPOS>MOLECULE
NuBBE_927
 66 69 0 0 0
SMALL
GASTEIGER

@<TRIPOS>ATOM
      1 O          -2.8594   -1.2825    2.0154 O.2     1  LIG1       -0.2863
      2 C          -1.7959   -1.0852    1.4981 C.ar    1  LIG1        0.2039
      3 C          -1.4419    0.2579    0.9565 C.ar    1  LIG1        0.1097
      4 C          -0.1131    0.5082    0.6661 C.ar    1  LIG1        0.1457
      5 C           0.2930    1.7329    0.1567 C.ar    1  LIG1        0.0271
      6 C          -0.6421    2.7110   -0.1751 C.ar    1  LIG1        0.1726
      7 C          -2.0048    2.5025    0.1189 C.ar    1  LIG1        0.2044
      8 C          -2.3981    1.2654    0.7150 C.ar    1  LIG1        0.1768
      9 O          -3.7196    1.0563    1.0265 O.3     1  LIG1       -0.5027
     10 O          -3.0112    3.3922   -0.2059 O.3     1  LIG1       -0.4885
     11 C          -2.6689    4.7743   -0.3465 C.3     1  LIG1        0.0791
     12 O          -0.2588    3.8890   -0.7485 O.3     1  LIG1       -0.4569
     13 C           0.8745    3.9355   -1.6272 C.3     1  LIG1        0.2310
     14 H           0.8310    3.0875   -2.3252 H       1  LIG1        0.1084
     15 O           2.0327    3.8693   -0.8004 O.3     1  LIG1       -0.3313
     16 C           3.2663    4.2249   -1.3956 C.3     1  LIG1        0.1140
     17 H           3.5007    3.5396   -2.2221 H       1  LIG1        0.0647
     18 C           4.3347    4.0513   -0.3122 C.3     1  LIG1        0.0731
     19 O           5.6252    4.4182   -0.7774 O.3     1  LIG1       -0.3924
     20 C           3.1902    5.6658   -1.9030 C.3     1  LIG1        0.1120
     21 H           2.9163    6.3535   -1.0926 H       1  LIG1        0.0647
     22 C           2.1194    5.7050   -2.9845 C.3     1  LIG1        0.1152
     23 H           2.4028    5.0716   -3.8346 H       1  LIG1        0.0648
     24 C           0.7692    5.2704   -2.4223 C.3     1  LIG1        0.1454
     25 H           0.3653    6.0616   -1.7776 H       1  LIG1        0.0683
     26 O          -0.1495    5.1624   -3.5260 O.3     1  LIG1       -0.3829
     27 O           2.0176    7.0342   -3.5191 O.3     1  LIG1       -0.3864
     28 O           4.4093    6.1350   -2.4787 O.3     1  LIG1       -0.3865
     29 O           0.8831   -0.4272    0.7937 O.2     1  LIG1       -0.4618
     30 C           0.4911   -1.7331    0.9653 C.ar    1  LIG1        0.1040
     31 C          -0.7334   -2.1399    1.3127 C.ar    1  LIG1        0.0680
     32 C          -0.9877   -3.5771    1.4912 C.ar    1  LIG1        0.0341
     33 C          -1.4568   -4.3920    0.4527 C.ar    1  LIG1        0.1317
     34 O          -1.7588   -3.8586   -0.7810 O.3     1  LIG1       -0.4944
     35 C          -2.6983   -4.6321   -1.5479 C.3     1  LIG1        0.0788
     36 C          -1.5521   -5.7655    0.6722 C.ar    1  LIG1        0.0260
     37 C          -1.2334   -6.3764    1.8837 C.ar    1  LIG1        0.1650
     38 C          -0.7783   -5.5749    2.9307 C.ar    1  LIG1        0.1623
     39 C          -0.6504   -4.1860    2.7205 C.ar    1  LIG1       -0.0049
     40 O          -0.3494   -5.9782    4.1667 O.3     1  LIG1       -0.4914
     41 C          -0.7198   -7.2714    4.6277 C.3     1  LIG1        0.0790
     42 O          -1.3867   -7.7304    2.0359 O.3     1  LIG1       -0.4913
     43 C          -1.2259   -8.5095    0.8500 C.3     1  LIG1        0.0790
     44 H           1.3534    1.8885    0.0172 H       1  LIG1        0.0692
     45 H          -3.7943    0.1995    1.5122 H       1  LIG1        0.2923
     46 H          -2.3220    5.1799    0.6102 H       1  LIG1        0.0660
     47 H          -3.5522    5.3330   -0.6673 H       1  LIG1        0.0660
     48 H          -1.9564    4.9791   -1.1478 H       1  LIG1        0.0660
     49 H           4.3608    3.0118    0.0363 H       1  LIG1        0.0584
     50 H           4.0917    4.6638    0.5638 H       1  LIG1        0.0584
     51 H           5.7942    3.9112   -1.5930 H       1  LIG1        0.2095
     52 H          -0.0308    5.9870   -4.0420 H       1  LIG1        0.2102
     53 H           2.9454    7.3051   -3.6852 H       1  LIG1        0.2100
     54 H           5.0346    6.2554   -1.7326 H       1  LIG1        0.2100
     55 H           1.3260   -2.3882    0.7761 H       1  LIG1        0.1037
     56 H          -2.9235   -4.1072   -2.4781 H       1  LIG1        0.0660
     57 H          -3.6298   -4.7654   -0.9845 H       1  LIG1        0.0660
     58 H          -2.2958   -5.6070   -1.8547 H       1  LIG1        0.0660
     59 H          -1.8672   -6.3911   -0.1426 H       1  LIG1        0.0692
     60 H          -0.2685   -3.5770    3.5399 H       1  LIG1        0.0663
     61 H          -0.7368   -7.2292    5.7206 H       1  LIG1        0.0660
     62 H           0.0278   -8.0166    4.3333 H       1  LIG1        0.0660
     63 H          -1.7256   -7.5685    4.3188 H       1  LIG1        0.0660
     64 H          -1.3270   -9.5635    1.1144 H       1  LIG1        0.0660
     65 H          -0.2286   -8.3435    0.4296 H       1  LIG1        0.0660
     66 H          -2.0036   -8.3125    0.1027 H       1  LIG1        0.0660
@<TRIPOS>BOND
     1     1     2    2
     2     2     3   ar
     3     3     4   ar
     4     4     5   ar
     5     5     6   ar
     6     6     7   ar
     7     7     8   ar
     8     3     8   ar
     9     8     9    1
    10     7    10    1
    11    10    11    1
    12     6    12    1
    13    12    13    1
    14    13    14    1
    15    13    15    1
    16    15    16    1
    17    16    17    1
    18    16    18    1
    19    18    19    1
    20    16    20    1
    21    20    22    1
    22    22    23    1
    23    22    24    1
    24    13    24    1
    25    22    27    1
    26     4    29   ar
    27    29    30   ar
    28    30    31   ar
    29     2    31   ar
    30    31    32    1
    31    32    33   ar
    32    33    34    1
    33    34    35    1
    34    33    36   ar
    35    36    37   ar
    36    37    38   ar
    37    38    39   ar
    38    32    39   ar
    39    38    40    1
    40    40    41    1
    41    37    42    1
    42    42    43    1
    43    20    28    1
    44    20    21    1
    45    24    26    1
    46    24    25    1
    47     5    44    1
    48     9    45    1
    49    11    46    1
    50    11    47    1
    51    11    48    1
    52    18    49    1
    53    18    50    1
    54    19    51    1
    55    26    52    1
    56    27    53    1
    57    28    54    1
    58    30    55    1
    59    35    56    1
    60    35    57    1
    61    35    58    1
    62    36    59    1
    63    39    60    1
    64    41    61    1
    65    41    62    1
    66    41    63    1
    67    43    64    1
    68    43    65    1
    69    43    66    1
