@<TRIPOS>MOLECULE
NuBBE_1646
 77 78 0 0 0
SMALL
GASTEIGER

@<TRIPOS>ATOM
      1 C           4.6525   -2.7777    0.5930 C.3     1  LIG1       -0.0206
      2 C           4.7223   -2.1744   -0.8271 C.3     1  LIG1       -0.0304
      3 C           3.6901   -1.0668   -0.9905 C.2     1  LIG1       -0.0847
      4 C           3.8216    0.2705   -0.8396 C.2     1  LIG1       -0.0762
      5 C           2.6198    1.2411   -0.9297 C.3     1  LIG1       -0.0286
      6 C           1.2059    0.6771   -0.5884 C.3     1  LIG1       -0.0308
      7 C           0.0613    1.6804   -0.7001 C.2     1  LIG1       -0.0847
      8 C          -1.2329    1.4029   -0.9986 C.2     1  LIG1       -0.0762
      9 C          -2.2724    2.5198   -1.1924 C.3     1  LIG1       -0.0286
     10 C          -3.5696    2.4018   -0.3587 C.3     1  LIG1       -0.0308
     11 C          -4.6808    3.4287   -0.5436 C.2     1  LIG1       -0.0847
     12 C          -5.3723    3.7536   -1.6619 C.2     1  LIG1       -0.0762
     13 C          -6.6786    4.5928   -1.6683 C.3     1  LIG1       -0.0286
     14 C          -7.2552    4.9933   -0.2882 C.3     1  LIG1       -0.0308
     15 C          -8.4957    5.8638   -0.1837 C.2     1  LIG1       -0.0850
     16 C          -9.7950    5.5842    0.0890 C.2     1  LIG1       -0.0796
     17 C         -10.5031    4.2567    0.0921 C.3     1  LIG1       -0.0440
     18 C         -10.6996    6.7157    0.5347 C.3     1  LIG1       -0.0440
     19 C          -4.9547    3.2572   -3.0265 C.3     1  LIG1       -0.0438
     20 C          -1.7038   -0.0081   -1.2646 C.3     1  LIG1       -0.0438
     21 C           5.1578    0.9314   -0.5637 C.3     1  LIG1       -0.0438
     22 C           5.5700   -3.9433    0.9155 C.ar    1  LIG1       -0.0010
     23 C           6.9565   -3.8445    0.9968 C.ar    1  LIG1        0.1387
     24 C           7.7475   -4.9341    1.3129 C.ar    1  LIG1        0.0094
     25 C           7.2387   -6.1676    1.6064 C.ar    1  LIG1       -0.0120
     26 C           5.8643   -6.2947    1.6413 C.ar    1  LIG1        0.1324
     27 C           5.0304   -5.2101    1.2571 C.ar    1  LIG1       -0.0125
     28 O           5.2577   -7.4571    2.1421 O.3     1  LIG1       -0.4260
     29 C           5.9511   -8.3731    2.9425 C.2     1  LIG1        0.3092
     30 O           7.1698   -8.4719    3.1123 O.2     1  LIG1       -0.2507
     31 C           4.9639   -9.1981    3.6943 C.3     1  LIG1        0.0336
     32 C           9.1765   -4.5722    1.2785 C.3     1  LIG1        0.0740
     33 C           9.0528   -3.1182    0.8855 C.2     1  LIG1        0.3168
     34 O          10.0060   -2.3893    0.6746 O.2     1  LIG1       -0.2500
     35 O           7.7112   -2.7054    0.7737 O.3     1  LIG1       -0.4250
     36 H           3.6161   -3.1090    0.7511 H       1  LIG1        0.0317
     37 H           4.8183   -1.9873    1.3374 H       1  LIG1        0.0317
     38 H           4.4812   -2.9536   -1.5631 H       1  LIG1        0.0311
     39 H           5.7324   -1.8378   -1.0765 H       1  LIG1        0.0311
     40 H           2.7125   -1.4510   -1.2725 H       1  LIG1        0.0572
     41 H           2.6042    1.6719   -1.9388 H       1  LIG1        0.0313
     42 H           2.8081    2.0761   -0.2396 H       1  LIG1        0.0313
     43 H           1.2220    0.2999    0.4419 H       1  LIG1        0.0310
     44 H           0.9952   -0.1681   -1.2509 H       1  LIG1        0.0310
     45 H           0.3404    2.7218   -0.5482 H       1  LIG1        0.0572
     46 H          -2.5080    2.5259   -2.2592 H       1  LIG1        0.0313
     47 H          -1.8199    3.4960   -0.9803 H       1  LIG1        0.0313
     48 H          -3.2906    2.4183    0.7045 H       1  LIG1        0.0310
     49 H          -4.0453    1.4266   -0.5116 H       1  LIG1        0.0310
     50 H          -5.0104    3.8471    0.4064 H       1  LIG1        0.0572
     51 H          -7.4429    3.9966   -2.1846 H       1  LIG1        0.0313
     52 H          -6.5084    5.4893   -2.2783 H       1  LIG1        0.0313
     53 H          -6.4725    5.5959    0.1981 H       1  LIG1        0.0310
     54 H          -7.3797    4.1064    0.3417 H       1  LIG1        0.0310
     55 H          -8.2262    6.9202   -0.1317 H       1  LIG1        0.0572
     56 H          -9.9125    3.4401   -0.3254 H       1  LIG1        0.0274
     57 H         -11.4206    4.3323   -0.5116 H       1  LIG1        0.0274
     58 H         -10.8195    3.9910    1.1075 H       1  LIG1        0.0274
     59 H         -10.3825    7.6850    0.1396 H       1  LIG1        0.0274
     60 H         -10.6869    6.7690    1.6306 H       1  LIG1        0.0274
     61 H         -11.7375    6.5569    0.2232 H       1  LIG1        0.0274
     62 H          -4.4512    2.2877   -2.9811 H       1  LIG1        0.0274
     63 H          -4.2781    3.9817   -3.4957 H       1  LIG1        0.0274
     64 H          -5.8134    3.1165   -3.6881 H       1  LIG1        0.0274
     65 H          -1.1967   -0.7348   -0.6208 H       1  LIG1        0.0274
     66 H          -1.5174   -0.2723   -2.3103 H       1  LIG1        0.0274
     67 H          -2.7729   -0.1385   -1.0799 H       1  LIG1        0.0274
     68 H           5.9886    0.2202   -0.5302 H       1  LIG1        0.0274
     69 H           5.1498    1.4560    0.3975 H       1  LIG1        0.0274
     70 H           5.3984    1.6568   -1.3494 H       1  LIG1        0.0274
     71 H           7.9258   -6.9670    1.8285 H       1  LIG1        0.0658
     72 H           3.9507   -5.3494    1.2580 H       1  LIG1        0.0658
     73 H           4.2856   -9.6881    3.0123 H       1  LIG1        0.0342
     74 H           4.4291   -8.5201    4.3707 H       1  LIG1        0.0342
     75 H           5.5025   -9.9300    4.2968 H       1  LIG1        0.0342
     76 H           9.6817   -5.1527    0.5083 H       1  LIG1        0.0428
     77 H           9.6366   -4.6897    2.2567 H       1  LIG1        0.0428
@<TRIPOS>BOND
     1     1     2    1
     2     2     3    1
     3     3     4    2
     4     4     5    1
     5     5     6    1
     6     6     7    1
     7     7     8    2
     8     8     9    1
     9     9    10    1
    10    10    11    1
    11    11    12    2
    12    12    13    1
    13    13    14    1
    14    14    15    1
    15    15    16    2
    16    16    17    1
    17    16    18    1
    18    12    19    1
    19     8    20    1
    20     4    21    1
    21     1    22    1
    22    22    23   ar
    23    23    24   ar
    24    24    25   ar
    25    25    26   ar
    26    26    27   ar
    27    22    27   ar
    28    26    28    1
    29    28    29    1
    30    29    30    2
    31    29    31    1
    32    24    32    1
    33    32    33    1
    34    33    34    2
    35    33    35    1
    36    23    35    1
    37     1    36    1
    38     1    37    1
    39     2    38    1
    40     2    39    1
    41     3    40    1
    42     5    41    1
    43     5    42    1
    44     6    43    1
    45     6    44    1
    46     7    45    1
    47     9    46    1
    48     9    47    1
    49    10    48    1
    50    10    49    1
    51    11    50    1
    52    13    51    1
    53    13    52    1
    54    14    53    1
    55    14    54    1
    56    15    55    1
    57    17    56    1
    58    17    57    1
    59    17    58    1
    60    18    59    1
    61    18    60    1
    62    18    61    1
    63    19    62    1
    64    19    63    1
    65    19    64    1
    66    20    65    1
    67    20    66    1
    68    20    67    1
    69    21    68    1
    70    21    69    1
    71    21    70    1
    72    25    71    1
    73    27    72    1
    74    31    73    1
    75    31    74    1
    76    31    75    1
    77    32    76    1
    78    32    77    1
