@<TRIPOS>MOLECULE
NuBBE_1227
 78 81 0 0 0
SMALL
GASTEIGER

@<TRIPOS>ATOM
      1 C          -3.3101   -0.2174   -1.6811 C.3     1  LIG1       -0.0563
      2 C          -1.7792   -0.1875   -1.3156 C.3     1  LIG1        0.0061
      3 C          -1.0185    0.8573   -2.1899 C.3     1  LIG1        0.0934
      4 C           0.4993    0.6547   -2.2572 C.2     1  LIG1       -0.0310
      5 C           1.3836    1.6598   -2.1106 C.2     1  LIG1       -0.0167
      6 C           2.8230    1.4990   -2.4414 C.2     1  LIG1        0.1598
      7 C           3.2269    0.2319   -3.1751 C.3     1  LIG1        0.0299
      8 H           2.8596    0.3602   -4.2048 H       1  LIG1        0.0387
      9 C           4.7490    0.0769   -3.2605 C.3     1  LIG1       -0.0141
     10 C           5.1317   -1.1630   -4.0663 C.3     1  LIG1        0.0817
     11 H           4.8928   -0.9888   -5.1220 H       1  LIG1        0.0619
     12 O           6.5447   -1.3811   -3.9665 O.3     1  LIG1       -0.3892
     13 C           4.4183   -2.4427   -3.5986 C.3     1  LIG1        0.0816
     14 H           4.5814   -3.2332   -4.3405 H       1  LIG1        0.0619
     15 O           5.0225   -2.9202   -2.3944 O.3     1  LIG1       -0.3892
     16 C           2.9125   -2.2510   -3.3861 C.3     1  LIG1       -0.0178
     17 C           2.5282   -0.9942   -2.5440 C.3     1  LIG1       -0.0132
     18 C           3.0107   -1.1920   -1.0783 C.3     1  LIG1       -0.0583
     19 C           0.9543   -0.7640   -2.6187 C.3     1  LIG1       -0.0107
     20 C           0.2065   -1.8105   -1.7758 C.3     1  LIG1       -0.0453
     21 C          -1.2978   -1.6095   -1.6537 C.3     1  LIG1       -0.0438
     22 O           3.5898    2.4320   -2.2365 O.2     1  LIG1       -0.2924
     23 C          -1.5374    2.1758   -1.6057 C.3     1  LIG1       -0.0192
     24 C          -1.6107    1.9459   -0.0975 C.3     1  LIG1       -0.0440
     25 C          -1.7244    0.4056    0.1624 C.3     1  LIG1       -0.0015
     26 H          -2.7128    0.2286    0.6071 H       1  LIG1        0.0336
     27 C          -0.7203   -0.0615    1.2707 C.3     1  LIG1        0.0924
     28 C          -0.8734    0.7235    2.6451 C.3     1  LIG1        0.0840
     29 H          -0.7581    1.7989    2.4754 H       1  LIG1        0.0622
     30 O           0.2593    0.3458    3.4593 O.3     1  LIG1       -0.3890
     31 C          -2.1813    0.4566    3.4221 C.3     1  LIG1       -0.0216
     32 C          -2.2747    1.2419    4.7485 C.3     1  LIG1       -0.0221
     33 C          -3.5688    1.0015    5.5610 C.3     1  LIG1        0.0606
     34 C          -3.5347    1.8244    6.8557 C.3     1  LIG1       -0.0363
     35 C          -4.8336    1.3424    4.7735 C.3     1  LIG1       -0.0363
     36 O          -3.6505   -0.3799    5.9156 O.3     1  LIG1       -0.3891
     37 O           0.6072    0.2225    0.8117 O.3     1  LIG1       -0.3860
     38 C          -0.7964   -1.5655    1.5820 C.3     1  LIG1       -0.0334
     39 O          -1.4555    0.7679   -3.5507 O.3     1  LIG1       -0.3837
     40 H          -3.4787   -0.4449   -2.7392 H       1  LIG1        0.0236
     41 H          -3.8177    0.7282   -1.4655 H       1  LIG1        0.0236
     42 H          -3.8232   -0.9904   -1.0956 H       1  LIG1        0.0236
     43 H           1.1160    2.6714   -1.8373 H       1  LIG1        0.0653
     44 H           5.2157    0.0554   -2.2685 H       1  LIG1        0.0298
     45 H           5.1901    0.9596   -3.7425 H       1  LIG1        0.0298
     46 H           6.9851   -0.5314   -4.1479 H       1  LIG1        0.2099
     47 H           5.9824   -2.7758   -2.5260 H       1  LIG1        0.2099
     48 H           2.5050   -3.1521   -2.9124 H       1  LIG1        0.0297
     49 H           2.4436   -2.1695   -4.3756 H       1  LIG1        0.0297
     50 H           4.0972   -1.1788   -0.9751 H       1  LIG1        0.0235
     51 H           2.6878   -2.1565   -0.6721 H       1  LIG1        0.0235
     52 H           2.6411   -0.4036   -0.4203 H       1  LIG1        0.0235
     53 H           0.6515   -0.9109   -3.6663 H       1  LIG1        0.0352
     54 H           0.6322   -1.8382   -0.7790 H       1  LIG1        0.0271
     55 H           0.3746   -2.8080   -2.2003 H       1  LIG1        0.0271
     56 H          -1.7240   -2.3352   -0.9521 H       1  LIG1        0.0272
     57 H          -1.7135   -1.8960   -2.6315 H       1  LIG1        0.0272
     58 H          -2.5322    2.4111   -2.0063 H       1  LIG1        0.0296
     59 H          -0.9381    3.0538   -1.8627 H       1  LIG1        0.0296
     60 H          -2.4816    2.4679    0.3161 H       1  LIG1        0.0270
     61 H          -0.7215    2.3838    0.3649 H       1  LIG1        0.0270
     62 H           0.2706    0.9119    4.2487 H       1  LIG1        0.2099
     63 H          -2.2583   -0.6088    3.6636 H       1  LIG1        0.0292
     64 H          -3.0299    0.7207    2.7852 H       1  LIG1        0.0292
     65 H          -2.1627    2.3130    4.5415 H       1  LIG1        0.0293
     66 H          -1.4314    0.9453    5.3847 H       1  LIG1        0.0293
     67 H          -3.4892    2.8987    6.6480 H       1  LIG1        0.0257
     68 H          -2.6700    1.5542    7.4725 H       1  LIG1        0.0257
     69 H          -4.4219    1.6289    7.4696 H       1  LIG1        0.0257
     70 H          -4.8046    2.3665    4.3890 H       1  LIG1        0.0257
     71 H          -5.7239    1.2375    5.4054 H       1  LIG1        0.0257
     72 H          -4.9824    0.6519    3.9369 H       1  LIG1        0.0257
     73 H          -2.8578   -0.6125    6.4292 H       1  LIG1        0.2101
     74 H           1.1743    0.1429    1.6071 H       1  LIG1        0.2103
     75 H          -0.4608   -2.1991    0.7698 H       1  LIG1        0.0258
     76 H          -1.8094   -1.8768    1.8461 H       1  LIG1        0.0258
     77 H          -0.1219   -1.8319    2.4043 H       1  LIG1        0.0258
     78 H          -1.0757    1.5265   -4.0250 H       1  LIG1        0.2106
@<TRIPOS>BOND
     1     2     3    1
     2     3     4    1
     3     4     5    2
     4     5     6    1
     5     6     7    1
     6     7     9    1
     7     9    10    1
     8    10    13    1
     9    13    16    1
    10    16    17    1
    11     7    17    1
    12    17    19    1
    13     4    19    1
    14    19    20    1
    15    20    21    1
    16     2    21    1
    17     3    23    1
    18    23    24    1
    19    24    25    1
    20     2    25    1
    21    28    31    1
    22    31    32    1
    23    32    33    1
    24    33    34    1
    25    33    35    1
    26    33    36    1
    27    27    38    1
    28     1     2    1
    29     3    39    1
    30     6    22    2
    31     7     8    1
    32    13    14    1
    33    13    15    1
    34    17    18    1
    35    10    12    1
    36    10    11    1
    37    25    27    1
    38    25    26    1
    39    27    37    1
    40    27    28    1
    41    28    30    1
    42    28    29    1
    43     1    40    1
    44     1    41    1
    45     1    42    1
    46     5    43    1
    47     9    44    1
    48     9    45    1
    49    12    46    1
    50    15    47    1
    51    16    48    1
    52    16    49    1
    53    18    50    1
    54    18    51    1
    55    18    52    1
    56    19    53    1
    57    20    54    1
    58    20    55    1
    59    21    56    1
    60    21    57    1
    61    23    58    1
    62    23    59    1
    63    24    60    1
    64    24    61    1
    65    30    62    1
    66    31    63    1
    67    31    64    1
    68    32    65    1
    69    32    66    1
    70    34    67    1
    71    34    68    1
    72    34    69    1
    73    35    70    1
    74    35    71    1
    75    35    72    1
    76    36    73    1
    77    37    74    1
    78    38    75    1
    79    38    76    1
    80    38    77    1
    81    39    78    1
