@<TRIPOS>MOLECULE
NuBBE_1922
 39 40 0 0 0
SMALL
GASTEIGER

@<TRIPOS>ATOM
      1 C           0.0159   -1.3219   -1.8311 C.3     1  LIG1       -0.0590
      2 C           0.7327   -1.1148   -0.4733 C.3     1  LIG1       -0.0255
      3 C          -0.2349   -0.5903    0.6318 C.3     1  LIG1       -0.0142
      4 H           0.3507   -0.4942    1.5607 H       1  LIG1        0.0351
      5 C          -1.3003   -1.6355    0.9428 C.2     1  LIG1       -0.0730
      6 C          -0.7258   -2.9611    1.3920 C.3     1  LIG1       -0.0317
      7 C           0.2780   -3.5084    0.3773 C.3     1  LIG1       -0.0489
      8 C           1.3372   -2.4709   -0.0111 C.3     1  LIG1       -0.0468
      9 C          -2.6270   -1.4541    0.8413 C.2     1  LIG1       -0.0992
     10 C          -0.7445    0.8341    0.3287 C.3     1  LIG1       -0.0395
     11 C           0.4223    1.8253    0.1439 C.3     1  LIG1       -0.0198
     12 H           0.9992    1.8404    1.0805 H       1  LIG1        0.0346
     13 C          -0.1012    3.2452   -0.0667 C.2     1  LIG1       -0.0766
     14 C          -0.5112    3.9751    1.1886 C.3     1  LIG1       -0.0438
     15 C          -0.1924    3.8591   -1.2592 C.2     1  LIG1       -0.0994
     16 C           1.3956    1.3258   -0.9410 C.3     1  LIG1       -0.0460
     17 C           1.8856   -0.0964   -0.6567 C.3     1  LIG1       -0.0465
     18 H          -0.8026   -2.0447   -1.7657 H       1  LIG1        0.0235
     19 H           0.7189   -1.6956   -2.5848 H       1  LIG1        0.0235
     20 H          -0.4153   -0.3966   -2.2228 H       1  LIG1        0.0235
     21 H          -1.5135   -3.7063    1.5545 H       1  LIG1        0.0310
     22 H          -0.2268   -2.8177    2.3590 H       1  LIG1        0.0310
     23 H          -0.2523   -3.8540   -0.5178 H       1  LIG1        0.0268
     24 H           0.7745   -4.3906    0.7986 H       1  LIG1        0.0268
     25 H           1.9796   -2.8882   -0.7967 H       1  LIG1        0.0271
     26 H           1.9855   -2.3032    0.8596 H       1  LIG1        0.0271
     27 H          -3.0637   -0.5163    0.5160 H       1  LIG1        0.0534
     28 H          -3.3250   -2.2512    1.0798 H       1  LIG1        0.0534
     29 H          -1.3769    1.1682    1.1613 H       1  LIG1        0.0277
     30 H          -1.3812    0.8387   -0.5651 H       1  LIG1        0.0277
     31 H          -0.8472    4.9968    0.9813 H       1  LIG1        0.0274
     32 H           0.3339    4.0413    1.8815 H       1  LIG1        0.0274
     33 H          -1.3330    3.4544    1.6891 H       1  LIG1        0.0274
     34 H          -0.5663    4.8757   -1.3442 H       1  LIG1        0.0534
     35 H           0.0870    3.3776   -2.1894 H       1  LIG1        0.0534
     36 H           2.2642    1.9946   -0.9928 H       1  LIG1        0.0271
     37 H           0.9279    1.3492   -1.9310 H       1  LIG1        0.0271
     38 H           2.5032   -0.0721    0.2511 H       1  LIG1        0.0271
     39 H           2.5487   -0.4174   -1.4699 H       1  LIG1        0.0271
@<TRIPOS>BOND
     1     1     2    1
     2     2     3    1
     3     3     4    1
     4     3     5    1
     5     5     6    1
     6     6     7    1
     7     7     8    1
     8     2     8    1
     9     5     9    2
    10     3    10    1
    11    10    11    1
    12    13    14    1
    13    13    15    2
    14    11    16    1
    15    16    17    1
    16     2    17    1
    17    11    13    1
    18    11    12    1
    19     1    18    1
    20     1    19    1
    21     1    20    1
    22     6    21    1
    23     6    22    1
    24     7    23    1
    25     7    24    1
    26     8    25    1
    27     8    26    1
    28     9    27    1
    29     9    28    1
    30    10    29    1
    31    10    30    1
    32    14    31    1
    33    14    32    1
    34    14    33    1
    35    15    34    1
    36    15    35    1
    37    16    36    1
    38    16    37    1
    39    17    38    1
    40    17    39    1
