REMARK  Name = NuBBE_1585
REMARK  10 active torsions:
REMARK  status: ('A' for Active; 'I' for Inactive)
REMARK    1  A    between atoms: C_1  and  C_2
REMARK    2  A    between atoms: C_2  and  C_3
REMARK    3  A    between atoms: C_4  and  C_5
REMARK    4  A    between atoms: C_5  and  C_6
REMARK    5  A    between atoms: C_6  and  O_7
REMARK    6  A    between atoms: O_7  and  C_8
REMARK    7  A    between atoms: C_9  and  O_10
REMARK    8  A    between atoms: O_10  and  C_11
REMARK    9  A    between atoms: C_13  and  C_14
REMARK   10  A    between atoms: C_20  and  C_22
REMARK                            x       y       z     vdW  Elec       q    Type
REMARK                         _______ _______ _______ _____ _____    ______ ____
ROOT
ATOM      1  C   LIG A   1      -0.006  -2.614   1.410  0.00  0.00    +0.154 C 
ATOM      2  C   LIG A   1       0.987  -2.031   2.395  0.00  0.00    +0.056 C 
ATOM      3  C   LIG A   1       2.116  -1.544   1.523  0.00  0.00    +0.056 C 
ATOM      4  C   LIG A   1       3.325  -1.573   2.444  0.00  0.00    +0.154 C 
ATOM      5  O   LIG A   1       3.084  -2.676   3.344  0.00  0.00    -0.371 OA
ATOM      6  C   LIG A   1       1.709  -3.087   3.232  0.00  0.00    +0.167 C 
ATOM      7  C   LIG A   1       2.144  -2.614   0.432  0.00  0.00    +0.167 C 
ATOM      8  O   LIG A   1       0.833  -3.217   0.386  0.00  0.00    -0.371 OA
ENDROOT
BRANCH   4   9
ATOM      9  C   LIG A   1       3.538  -0.280   3.229  0.00  0.00    -0.015 A 
ATOM     10  C   LIG A   1       3.535  -0.277   4.647  0.00  0.00    +0.010 A 
ATOM     11  C   LIG A   1       3.755   0.894   5.381  0.00  0.00    +0.050 A 
ATOM     12  C   LIG A   1       3.985   2.055   4.681  0.00  0.00    +0.166 A 
ATOM     13  O   LIG A   1       4.225   3.277   5.228  0.00  0.00    -0.453 OA
ATOM     14  C   LIG A   1       4.401   4.074   4.040  0.00  0.00    +0.466 C 
ATOM     15  O   LIG A   1       4.255   3.320   2.816  0.00  0.00    -0.453 OA
ATOM     16  C   LIG A   1       4.002   2.075   3.308  0.00  0.00    +0.167 A 
ATOM     17  C   LIG A   1       3.787   0.933   2.557  0.00  0.00    +0.055 A 
ENDBRANCH   4   9
BRANCH   1  21
ATOM     18  C   LIG A   1      -2.887  -0.181  -0.780  0.00  0.00    +0.162 A 
ATOM     19  C   LIG A   1      -3.156  -0.514   0.562  0.00  0.00    +0.162 A 
ATOM     20  C   LIG A   1      -2.200  -1.254   1.307  0.00  0.00    +0.055 A 
ATOM     21  C   LIG A   1      -0.965  -1.629   0.744  0.00  0.00    -0.015 A 
ATOM     22  C   LIG A   1      -0.685  -1.162  -0.543  0.00  0.00    +0.010 A 
ATOM     23  C   LIG A   1      -1.641  -0.502  -1.306  0.00  0.00    +0.050 A 
BRANCH  19  24
ATOM     24  O   LIG A   1      -4.302  -0.216   1.267  0.00  0.00    -0.491 OA
ATOM     25  C   LIG A   1      -5.307   0.539   0.592  0.00  0.00    +0.277 C 
ENDBRANCH  19  24
BRANCH  18  26
ATOM     26  O   LIG A   1      -3.886   0.318  -1.573  0.00  0.00    -0.488 OA
BRANCH  26  27
ATOM     27  C   LIG A   1      -3.561   1.224  -2.634  0.00  0.00    +0.233 C 
BRANCH  27  28
ATOM     28  C   LIG A   1      -3.426   0.475  -3.969  0.00  0.00    +0.068 C 
BRANCH  28  32
ATOM     29  C   LIG A   1      -1.621   2.158  -6.999  0.00  0.00    +0.038 C 
ATOM     30  C   LIG A   1      -1.895   1.192  -5.886  0.00  0.00    -0.080 C 
ATOM     31  C   LIG A   1      -0.853   0.128  -5.717  0.00  0.00    +0.038 C 
ATOM     32  C   LIG A   1      -3.021   1.333  -5.117  0.00  0.00    -0.025 C 
ENDBRANCH  28  32
ENDBRANCH  27  28
ENDBRANCH  26  27
ENDBRANCH  18  26
ENDBRANCH   1  21
TORSDOF 7
