REMARK  Name = NuBBE_538
REMARK  12 active torsions:
REMARK  status: ('A' for Active; 'I' for Inactive)
REMARK    1  A    between atoms: O_1  and  C_2
REMARK    2  A    between atoms: C_2  and  C_4
REMARK    3  A    between atoms: C_2  and  C_23
REMARK    4  A    between atoms: C_4  and  C_5
REMARK    5  A    between atoms: C_5  and  O_7
REMARK    6  A    between atoms: C_5  and  C_8
REMARK    7  A    between atoms: C_8  and  C_9
REMARK    8  A    between atoms: C_9  and  O_11
REMARK    9  A    between atoms: C_9  and  C_12
REMARK   10  A    between atoms: C_12  and  C_13
REMARK   11  A    between atoms: C_14  and  C_15
REMARK   12  A    between atoms: C_24  and  C_25
REMARK                            x       y       z     vdW  Elec       q    Type
REMARK                         _______ _______ _______ _____ _____    ______ ____
ROOT
ATOM      1  C   LIG A   1       0.292  -0.728   0.560  0.00  0.00    +0.120 C 
ENDROOT
BRANCH   1   2
ATOM      2  O   LIG A   1      -0.413  -1.837   1.132  0.00  0.00    -0.392 OA
ATOM      3  H   LIG A   1       0.015  -2.037   1.984  0.00  0.00    +0.210 HD
ENDBRANCH   1   2
BRANCH   1   4
ATOM      4  C   LIG A   1       1.430  -1.312  -0.266  0.00  0.00    +0.067 C 
BRANCH   4   5
ATOM      5  C   LIG A   1       2.323  -0.281  -0.968  0.00  0.00    +0.140 C 
BRANCH   5   6
ATOM      6  O   LIG A   1       2.863   0.619  -0.008  0.00  0.00    -0.388 OA
ATOM      7  H   LIG A   1       3.421   0.097   0.594  0.00  0.00    +0.210 HD
ENDBRANCH   5   6
BRANCH   5   8
ATOM      8  C   LIG A   1       3.472  -0.875  -1.739  0.00  0.00    +0.004 C 
ATOM      9  C   LIG A   1       3.709  -2.191  -1.864  0.00  0.00    +0.006 C 
BRANCH   9  10
ATOM     10  C   LIG A   1       4.760  -2.821  -2.663  0.00  0.00    -0.025 A 
ATOM     11  C   LIG A   1       4.494  -4.091  -3.197  0.00  0.00    +0.008 A 
ATOM     12  C   LIG A   1       5.460  -4.767  -3.938  0.00  0.00    +0.001 A 
ATOM     13  C   LIG A   1       6.706  -4.182  -4.142  0.00  0.00    +0.000 A 
ATOM     14  C   LIG A   1       6.988  -2.929  -3.597  0.00  0.00    +0.001 A 
ATOM     15  C   LIG A   1       6.020  -2.251  -2.855  0.00  0.00    +0.008 A 
ENDBRANCH   9  10
ENDBRANCH   5   8
ENDBRANCH   4   5
ENDBRANCH   1   4
BRANCH   1  16
ATOM     16  C   LIG A   1      -0.687   0.085  -0.289  0.00  0.00    +0.063 C 
BRANCH  16  17
ATOM     17  C   LIG A   1      -1.823   0.639   0.568  0.00  0.00    +0.121 C 
BRANCH  17  18
ATOM     18  O   LIG A   1      -1.263   1.492   1.574  0.00  0.00    -0.391 OA
ATOM     19  H   LIG A   1      -0.887   2.271   1.126  0.00  0.00    +0.210 HD
ENDBRANCH  17  18
BRANCH  17  20
ATOM     20  C   LIG A   1      -2.837   1.423  -0.284  0.00  0.00    +0.058 C 
BRANCH  20  21
ATOM     21  C   LIG A   1      -4.004   1.996   0.482  0.00  0.00    -0.025 C 
ATOM     22  C   LIG A   1      -4.507   1.494   1.623  0.00  0.00    +0.013 C 
BRANCH  22  23
ATOM     23  C   LIG A   1      -5.607   2.084   2.485  0.00  0.00    +0.203 C 
ATOM     24  O   LIG A   1      -6.057   3.336   1.972  0.00  0.00    -0.454 OA
ATOM     25  C   LIG A   1      -5.323   4.457   2.219  0.00  0.00    +0.332 C 
ATOM     26  C   LIG A   1      -4.370   4.425   3.336  0.00  0.00    +0.087 C 
ATOM     27  C   LIG A   1      -4.336   3.395   4.183  0.00  0.00    -0.016 C 
ATOM     28  C   LIG A   1      -5.194   2.192   3.963  0.00  0.00    +0.076 C 
ATOM     29  O   LIG A   1      -5.439   5.468   1.541  0.00  0.00    -0.246 OA
ENDBRANCH  22  23
ENDBRANCH  20  21
ENDBRANCH  17  20
ENDBRANCH  16  17
ENDBRANCH   1  16
TORSDOF 12
