@<TRIPOS>MOLECULE
NuBBE_2112
 39 38 0 0 0
SMALL
GASTEIGER

@<TRIPOS>ATOM
      1 C          -1.6112    2.0032    5.4372 C.2     1  LIG1       -0.1026
      2 C          -1.4186    1.7909    4.1026 C.2     1  LIG1       -0.0911
      3 C          -2.4840    1.2845    3.1878 C.3     1  LIG1       -0.0350
      4 C          -2.1833   -0.0525    2.4918 C.3     1  LIG1       -0.0496
      5 C          -0.9850   -0.0354    1.5496 C.3     1  LIG1       -0.0528
      6 C          -0.7715   -1.4242    0.9119 C.3     1  LIG1       -0.0530
      7 C           0.4349   -1.3728   -0.0076 C.3     1  LIG1       -0.0531
      8 C           0.6190   -2.5744   -0.9280 C.3     1  LIG1       -0.0531
      9 C           1.7832   -2.4134   -1.9243 C.3     1  LIG1       -0.0531
     10 C           1.6257   -1.3339   -3.0207 C.3     1  LIG1       -0.0531
     11 C           1.5377    0.1224   -2.5478 C.3     1  LIG1       -0.0533
     12 C           1.4161    1.1534   -3.6607 C.3     1  LIG1       -0.0559
     13 C           1.2672    2.5617   -3.0847 C.3     1  LIG1       -0.0653
     14 H          -0.8178    2.4084    6.0367 H       1  LIG1        0.0532
     15 H          -2.5592    1.7804    5.8998 H       1  LIG1        0.0532
     16 H          -0.4594    2.0520    3.6722 H       1  LIG1        0.0566
     17 H          -2.6801    2.0545    2.4253 H       1  LIG1        0.0307
     18 H          -3.4238    1.1571    3.7384 H       1  LIG1        0.0307
     19 H          -3.0711   -0.3323    1.9095 H       1  LIG1        0.0268
     20 H          -2.0377   -0.8344    3.2451 H       1  LIG1        0.0268
     21 H          -0.0740    0.2655    2.0787 H       1  LIG1        0.0265
     22 H          -1.1545    0.7146    0.7624 H       1  LIG1        0.0265
     23 H          -1.6593   -1.6832    0.3216 H       1  LIG1        0.0265
     24 H          -0.6310   -2.1929    1.6753 H       1  LIG1        0.0265
     25 H           1.3595   -1.1617    0.5406 H       1  LIG1        0.0265
     26 H           0.2155   -0.5039   -0.5949 H       1  LIG1        0.0265
     27 H          -0.3030   -2.7780   -1.4850 H       1  LIG1        0.0265
     28 H           0.8112   -3.4617   -0.3093 H       1  LIG1        0.0265
     29 H           1.8956   -3.3788   -2.4409 H       1  LIG1        0.0265
     30 H           2.7217   -2.2611   -1.3772 H       1  LIG1        0.0265
     31 H           0.7364   -1.5726   -3.6149 H       1  LIG1        0.0265
     32 H           2.4869   -1.4240   -3.6946 H       1  LIG1        0.0265
     33 H           2.3589    0.3574   -1.8602 H       1  LIG1        0.0265
     34 H           0.5967    0.2764   -2.0380 H       1  LIG1        0.0265
     35 H           0.5090    0.9248   -4.2331 H       1  LIG1        0.0263
     36 H           2.2690    1.1054   -4.3403 H       1  LIG1        0.0263
     37 H           0.5240    2.6012   -2.2779 H       1  LIG1        0.0230
     38 H           0.9393    3.2526   -3.8670 H       1  LIG1        0.0230
     39 H           2.2170    2.9246   -2.6792 H       1  LIG1        0.0230
@<TRIPOS>BOND
     1     1     2    2
     2     2     3    1
     3     3     4    1
     4     4     5    1
     5     5     6    1
     6     6     7    1
     7     7     8    1
     8     8     9    1
     9     9    10    1
    10    10    11    1
    11    11    12    1
    12    12    13    1
    13     1    14    1
    14     1    15    1
    15     2    16    1
    16     3    17    1
    17     3    18    1
    18     4    19    1
    19     4    20    1
    20     5    21    1
    21     5    22    1
    22     6    23    1
    23     6    24    1
    24     7    25    1
    25     7    26    1
    26     8    27    1
    27     8    28    1
    28     9    29    1
    29     9    30    1
    30    10    31    1
    31    10    32    1
    32    11    33    1
    33    11    34    1
    34    12    35    1
    35    12    36    1
    36    13    37    1
    37    13    38    1
    38    13    39    1
