@<TRIPOS>MOLECULE
NuBBE_2341
 49 52 0 0 0
SMALL
GASTEIGER

@<TRIPOS>ATOM
      1 C           1.0082    2.3632    4.6766 C.3     1  LIG1        0.0790
      2 O           0.3020    2.3853    3.4414 O.3     1  LIG1       -0.4913
      3 C          -0.4074    1.2638    3.1171 C.ar    1  LIG1        0.1657
      4 C          -0.6037    0.1331    3.8835 C.ar    1  LIG1        0.2075
      5 O          -0.1465   -0.1072    5.1447 O.3     1  LIG1       -0.4489
      6 C          -0.6851   -1.4129    5.4079 C.3     1  LIG1        0.2334
      7 O          -1.4331   -1.9516    4.3028 O.3     1  LIG1       -0.4525
      8 C          -1.3417   -0.9296    3.4072 C.ar    1  LIG1        0.1703
      9 C          -1.9164   -0.9317    2.1508 C.ar    1  LIG1       -0.0092
     10 C          -1.7422    0.1955    1.3313 C.ar    1  LIG1        0.0004
     11 C          -2.3710    0.2214   -0.0644 C.3     1  LIG1        0.1320
     12 H          -3.4584    0.1671    0.0756 H       1  LIG1        0.0790
     13 O          -2.0973    1.4662   -0.7642 O.2     1  LIG1       -0.4832
     14 C          -0.9945    1.2050   -1.5538 C.2     1  LIG1        0.1282
     15 C          -0.7456   -0.1973   -1.6728 C.2     1  LIG1        0.0003
     16 C          -1.8760   -0.9001   -1.0037 C.3     1  LIG1        0.0258
     17 H          -1.5458   -1.7963   -0.4678 H       1  LIG1        0.0387
     18 C          -2.9453   -1.2993   -2.0254 C.3     1  LIG1       -0.0546
     19 C           0.3668   -0.6856   -2.2307 C.2     1  LIG1       -0.0378
     20 C           1.4118    0.2253   -2.8480 C.3     1  LIG1        0.1528
     21 C           2.7049    0.2089   -1.9794 C.3     1  LIG1        0.0052
     22 C           3.3677   -1.1452   -1.8525 C.2     1  LIG1       -0.0876
     23 C           3.5874   -1.7767   -0.6925 C.2     1  LIG1       -0.1025
     24 O           1.7682   -0.2682   -4.1483 O.3     1  LIG1       -0.3643
     25 C           0.7060   -0.3160   -5.0919 C.3     1  LIG1        0.0382
     26 C          -0.2404    2.1507   -2.1138 C.2     1  LIG1        0.0261
     27 C           0.9579    1.7331   -2.8894 C.2     1  LIG1        0.1953
     28 O           1.5615    2.5999   -3.5253 O.2     1  LIG1       -0.2891
     29 C          -1.0012    1.2904    1.8423 C.ar    1  LIG1       -0.0094
     30 H           1.5860    3.2894    4.7500 H       1  LIG1        0.0660
     31 H           1.7215    1.5328    4.7154 H       1  LIG1        0.0660
     32 H           0.3151    2.3417    5.5239 H       1  LIG1        0.0660
     33 H          -1.3417   -1.3491    6.2833 H       1  LIG1        0.1166
     34 H           0.1434   -2.0917    5.6399 H       1  LIG1        0.1166
     35 H          -2.4879   -1.7944    1.8235 H       1  LIG1        0.0659
     36 H          -2.5477   -2.0272   -2.7418 H       1  LIG1        0.0237
     37 H          -3.3147   -0.4400   -2.5973 H       1  LIG1        0.0237
     38 H          -3.8033   -1.7582   -1.5230 H       1  LIG1        0.0237
     39 H           0.5495   -1.7572   -2.2627 H       1  LIG1        0.0609
     40 H           3.4491    0.8812   -2.4277 H       1  LIG1        0.0343
     41 H           2.4871    0.6145   -0.9816 H       1  LIG1        0.0343
     42 H           3.6874   -1.6125   -2.7831 H       1  LIG1        0.0567
     43 H           3.2940   -1.3441    0.2587 H       1  LIG1        0.0532
     44 H           4.0747   -2.7470   -0.6747 H       1  LIG1        0.0532
     45 H           1.1291   -0.5954   -6.0606 H       1  LIG1        0.0524
     46 H           0.2117    0.6530   -5.1979 H       1  LIG1        0.0524
     47 H          -0.0229   -1.0839   -4.8156 H       1  LIG1        0.0524
     48 H          -0.4499    3.2077   -2.0273 H       1  LIG1        0.0690
     49 H          -0.8713    2.1894    1.2413 H       1  LIG1        0.0659
@<TRIPOS>BOND
     1     1     2    1
     2     2     3    1
     3     3     4   ar
     4     4     5    1
     5     5     6    1
     6     6     7    1
     7     4     8   ar
     8     7     8    1
     9     8     9   ar
    10     9    10   ar
    11    11    13    1
    12    13    14    1
    13    14    15    1
    14    15    16    1
    15    16    17    1
    16    11    16    1
    17    16    18    1
    18    15    19    2
    19    19    20    1
    20    21    22    1
    21    22    23    2
    22    24    25    1
    23    14    26    2
    24    26    27    1
    25    20    27    1
    26    27    28    2
    27    10    29   ar
    28     3    29   ar
    29    11    12    1
    30    11    10    1
    31    20    24    1
    32    20    21    1
    33     1    30    1
    34     1    31    1
    35     1    32    1
    36     6    33    1
    37     6    34    1
    38     9    35    1
    39    18    36    1
    40    18    37    1
    41    18    38    1
    42    19    39    1
    43    21    40    1
    44    21    41    1
    45    22    42    1
    46    23    43    1
    47    23    44    1
    48    25    45    1
    49    25    46    1
    50    25    47    1
    51    26    48    1
    52    29    49    1
