REMARK  Name = NuBBE_2478
REMARK  14 active torsions:
REMARK  status: ('A' for Active; 'I' for Inactive)
REMARK    1  A    between atoms: C_1  and  C_2
REMARK    2  A    between atoms: C_1  and  C_4
REMARK    3  A    between atoms: C_4  and  O_5
REMARK    4  A    between atoms: O_5  and  C_6
REMARK    5  A    between atoms: C_10  and  O_13
REMARK    6  A    between atoms: O_13  and  C_14
REMARK    7  A    between atoms: C_16  and  C_21
REMARK    8  A    between atoms: C_18  and  C_20
REMARK    9  A    between atoms: C_23  and  O_24
REMARK   10  A    between atoms: O_24  and  C_25
REMARK   11  A    between atoms: C_26  and  O_31
REMARK   12  A    between atoms: C_27  and  O_29
REMARK   13  A    between atoms: O_29  and  C_30
REMARK   14  A    between atoms: O_31  and  C_32
REMARK                            x       y       z     vdW  Elec       q    Type
REMARK                         _______ _______ _______ _____ _____    ______ ____
ROOT
ATOM      1  C   LIG A   1      -0.733  -0.757  -3.374  0.00  0.00    +0.156 C 
ATOM      2  C   LIG A   1      -0.134   0.460  -2.721  0.00  0.00    +0.023 C 
ATOM      3  C   LIG A   1       0.753   0.343  -1.735  0.00  0.00    +0.004 C 
ATOM      4  C   LIG A   1       1.199  -0.926  -1.236  0.00  0.00    +0.170 C 
ATOM      5  C   LIG A   1       0.788  -2.122  -1.690  0.00  0.00    +0.208 C 
ATOM      6  C   LIG A   1      -0.243  -2.120  -2.804  0.00  0.00    +0.237 C 
ATOM      7  O   LIG A   1      -0.693  -3.163  -3.260  0.00  0.00    -0.285 OA
ATOM      8  O   LIG A   1       2.087  -0.742  -0.183  0.00  0.00    -0.480 OA
ATOM      9  C   LIG A   1       1.889   0.624   0.275  0.00  0.00    +0.211 C 
ATOM     10  C   LIG A   1       1.400   1.423  -0.945  0.00  0.00    +0.065 C 
ATOM     11  C   LIG A   1       2.551   2.062  -1.718  0.00  0.00    +0.016 C 
ENDROOT
BRANCH   9  12
ATOM     12  C   LIG A   1       0.943   0.692   1.471  0.00  0.00    +0.000 A 
ATOM     13  C   LIG A   1       0.371  -0.466   2.009  0.00  0.00    +0.057 A 
ATOM     14  C   LIG A   1      -0.502  -0.406   3.096  0.00  0.00    +0.166 A 
ATOM     15  C   LIG A   1      -0.734   0.827   3.737  0.00  0.00    +0.203 A 
ATOM     16  C   LIG A   1      -0.193   2.013   3.194  0.00  0.00    +0.166 A 
ATOM     17  C   LIG A   1       0.635   1.926   2.065  0.00  0.00    +0.057 A 
BRANCH  14  18
ATOM     18  O   LIG A   1      -1.121  -1.526   3.600  0.00  0.00    -0.491 OA
ATOM     19  C   LIG A   1      -1.400  -2.555   2.648  0.00  0.00    +0.277 C 
ENDBRANCH  14  18
BRANCH  16  20
ATOM     20  O   LIG A   1      -0.553   3.222   3.745  0.00  0.00    -0.491 OA
ATOM     21  C   LIG A   1       0.318   4.324   3.487  0.00  0.00    +0.277 C 
ENDBRANCH  16  20
BRANCH  15  22
ATOM     22  O   LIG A   1      -1.569   0.793   4.828  0.00  0.00    -0.488 OA
ATOM     23  C   LIG A   1      -1.088   1.456   5.994  0.00  0.00    +0.277 C 
ENDBRANCH  15  22
ENDBRANCH   9  12
BRANCH   1  24
ATOM     24  O   LIG A   1      -0.480  -0.666  -4.787  0.00  0.00    -0.364 OA
ATOM     25  C   LIG A   1       0.898  -0.723  -5.153  0.00  0.00    +0.195 C 
ENDBRANCH   1  24
BRANCH   5  26
ATOM     26  O   LIG A   1       1.233  -3.305  -1.105  0.00  0.00    -0.488 OA
ATOM     27  C   LIG A   1       1.358  -4.426  -1.979  0.00  0.00    +0.277 C 
ENDBRANCH   5  26
BRANCH   1  28
ATOM     28  C   LIG A   1      -2.274  -0.742  -3.167  0.00  0.00    +0.074 C 
BRANCH  28  29
ATOM     29  C   LIG A   1      -2.744  -0.768  -1.727  0.00  0.00    -0.031 C 
ATOM     30  C   LIG A   1      -2.967   0.335  -1.001  0.00  0.00    +0.004 C 
ENDBRANCH  28  29
ENDBRANCH   1  28
TORSDOF 8
