@<TRIPOS>MOLECULE
NuBBE_2271
 37 38 0 0 0
SMALL
GASTEIGER

@<TRIPOS>ATOM
      1 C           2.4080   -0.8365   -0.1367 C.ar    1  LIG1       -0.0466
      2 C           1.1771   -0.1358   -0.1423 C.ar    1  LIG1       -0.0334
      3 C           1.1792    1.2804   -0.0981 C.ar    1  LIG1        0.0237
      4 C           2.4003    1.9881    0.0001 C.ar    1  LIG1       -0.0397
      5 C           3.6019    1.2668    0.0423 C.ar    1  LIG1       -0.0579
      6 C           3.6060   -0.1227   -0.0281 C.ar    1  LIG1       -0.0583
      7 C           2.4866    3.4906    0.0568 C.3     1  LIG1       -0.0390
      8 C          -0.1326    2.0042   -0.1740 C.2     1  LIG1        0.1640
      9 O          -0.2184    3.2199   -0.0240 O.2     1  LIG1       -0.2920
     10 C          -1.3667    1.1999   -0.5032 C.3     1  LIG1        0.0162
     11 C          -1.3588   -0.1423    0.2285 C.3     1  LIG1       -0.0017
     12 H          -1.2411    0.0529    1.3049 H       1  LIG1        0.0336
     13 C          -0.1182   -0.9162   -0.2457 C.3     1  LIG1       -0.0209
     14 C          -2.6831   -0.9431    0.0275 C.3     1  LIG1        0.0640
     15 C          -2.6486   -2.3128    0.7230 C.3     1  LIG1       -0.0361
     16 C          -3.8989   -0.1693    0.5587 C.3     1  LIG1       -0.0361
     17 O          -2.9122   -1.1490   -1.3691 O.3     1  LIG1       -0.3888
     18 C           2.4765   -2.3395   -0.2136 C.3     1  LIG1       -0.0394
     19 H           4.5542    1.7884    0.1211 H       1  LIG1        0.0620
     20 H           4.5605   -0.6454   -0.0024 H       1  LIG1        0.0620
     21 H           2.0415    3.9367   -0.8381 H       1  LIG1        0.0278
     22 H           3.5273    3.8318    0.0934 H       1  LIG1        0.0278
     23 H           1.9964    3.8700    0.9587 H       1  LIG1        0.0278
     24 H          -1.4217    1.0799   -1.5911 H       1  LIG1        0.0349
     25 H          -2.2242    1.8020   -0.1866 H       1  LIG1        0.0349
     26 H          -0.2364   -1.2310   -1.2897 H       1  LIG1        0.0317
     27 H          -0.0272   -1.8162    0.3710 H       1  LIG1        0.0317
     28 H          -2.4302   -2.2143    1.7912 H       1  LIG1        0.0257
     29 H          -1.9085   -2.9813    0.2712 H       1  LIG1        0.0257
     30 H          -3.6104   -2.8280    0.6140 H       1  LIG1        0.0257
     31 H          -3.7671    0.1177    1.6068 H       1  LIG1        0.0257
     32 H          -4.8091   -0.7764    0.4821 H       1  LIG1        0.0257
     33 H          -4.1018    0.7285   -0.0339 H       1  LIG1        0.0257
     34 H          -2.3983   -1.9183   -1.6667 H       1  LIG1        0.2101
     35 H           1.8627   -2.7130   -1.0394 H       1  LIG1        0.0278
     36 H           2.1353   -2.7813    0.7277 H       1  LIG1        0.0278
     37 H           3.4996   -2.6856   -0.3964 H       1  LIG1        0.0278
@<TRIPOS>BOND
     1     1     2   ar
     2     2     3   ar
     3     3     4   ar
     4     4     5   ar
     5     5     6   ar
     6     1     6   ar
     7     4     7    1
     8     3     8    1
     9     8     9    2
    10     8    10    1
    11    10    11    1
    12    11    12    1
    13    11    13    1
    14     2    13    1
    15    11    14    1
    16    14    15    1
    17    14    16    1
    18    14    17    1
    19     1    18    1
    20     5    19    1
    21     6    20    1
    22     7    21    1
    23     7    22    1
    24     7    23    1
    25    10    24    1
    26    10    25    1
    27    13    26    1
    28    13    27    1
    29    15    28    1
    30    15    29    1
    31    15    30    1
    32    16    31    1
    33    16    32    1
    34    16    33    1
    35    17    34    1
    36    18    35    1
    37    18    36    1
    38    18    37    1
