@<TRIPOS>MOLECULE
NuBBE_255
 70 74 0 0 0
SMALL
GASTEIGER

@<TRIPOS>ATOM
      1 O          -5.4048   -1.8555   -0.6895 O.2     1  LIG1       -0.2840
      2 C          -4.6559   -1.7315    0.2462 C.2     1  LIG1        0.2206
      3 C          -3.8648   -2.8878    0.7526 C.2     1  LIG1        0.1671
      4 O          -4.1439   -4.0917    0.1258 O.2     1  LIG1       -0.5030
      5 C          -2.9177   -2.7388    1.7067 C.2     1  LIG1        0.0022
      6 C          -2.2383   -3.9605    2.2367 C.3     1  LIG1       -0.0356
      7 C          -2.4759   -1.3526    2.1165 C.2     1  LIG1       -0.0144
      8 C          -1.3504   -1.0401    2.8181 C.2     1  LIG1       -0.0539
      9 C          -0.5706    0.2653    2.7059 C.2     1  LIG1       -0.0606
     10 C          -0.9470    1.2112    1.8074 C.2     1  LIG1       -0.0529
     11 C           0.0049    2.0926    0.6140 C.3     1  LIG1       -0.0043
     12 C           1.4870    2.7676    0.2098 C.3     1  LIG1       -0.0428
     13 C           2.6753    2.1724   -0.6551 C.3     1  LIG1       -0.0441
     14 C           2.4791    0.8361   -1.4269 C.3     1  LIG1       -0.0003
     15 C           1.9546    0.9260   -2.8819 C.3     1  LIG1       -0.0569
     16 C           1.4184    0.1655   -0.5206 C.3     1  LIG1       -0.0267
     17 H           1.7529    0.3603    0.5169 H       1  LIG1        0.0312
     18 C           1.5151   -1.3821   -0.4802 C.3     1  LIG1       -0.0441
     19 C           2.9351   -2.0459   -0.6535 C.3     1  LIG1       -0.0151
     20 H           2.7271   -3.0668   -1.0033 H       1  LIG1        0.0324
     21 C           3.7862   -2.2839    0.6155 C.3     1  LIG1       -0.0600
     22 C           3.7776   -1.3824   -1.7430 C.3     1  LIG1        0.0841
     23 H           3.3438   -1.6211   -2.7196 H       1  LIG1        0.0622
     24 O           5.1032   -1.9400   -1.7807 O.3     1  LIG1       -0.3890
     25 C           3.8708    0.1352   -1.5576 C.3     1  LIG1        0.0869
     26 H           4.5082    0.3631   -0.6994 H       1  LIG1        0.0625
     27 O           4.6344    0.6609   -2.6724 O.3     1  LIG1       -0.3887
     28 C          -0.7139    3.5010    0.6757 C.3     1  LIG1       -0.0553
     29 C          -0.0653    1.0313   -0.6276 C.3     1  LIG1       -0.0195
     30 C          -0.4747    1.7066   -1.9867 C.3     1  LIG1       -0.0585
     31 C          -1.2877    0.1484   -0.4917 C.3     1  LIG1       -0.0455
     32 C          -2.4424    1.1390   -0.0931 C.3     1  LIG1       -0.0393
     33 C          -2.5260    1.1056    1.4258 C.3     1  LIG1        0.0154
     34 C          -3.4471    2.1123    2.1542 C.3     1  LIG1       -0.0517
     35 C          -3.2356   -0.2486    1.5666 C.2     1  LIG1       -0.0262
     36 C          -4.3970   -0.4316    0.8896 C.2     1  LIG1       -0.0067
     37 H          -4.7456   -3.8569   -0.6197 H       1  LIG1        0.2923
     38 H          -2.5685   -4.8709    1.7226 H       1  LIG1        0.0279
     39 H          -2.4924   -4.0929    3.2928 H       1  LIG1        0.0279
     40 H          -1.1540   -3.9097    2.1120 H       1  LIG1        0.0279
     41 H          -0.7676   -1.8325    3.2792 H       1  LIG1        0.0624
     42 H           0.4526    0.1996    3.0654 H       1  LIG1        0.0618
     43 H           1.8985    3.3581    1.0365 H       1  LIG1        0.0274
     44 H           1.1940    3.5409   -0.5286 H       1  LIG1        0.0274
     45 H           3.4890    2.0422    0.0721 H       1  LIG1        0.0272
     46 H           3.0513    2.9356   -1.3530 H       1  LIG1        0.0272
     47 H           1.6002    1.9219   -3.1346 H       1  LIG1        0.0236
     48 H           1.2083    0.1411   -3.0501 H       1  LIG1        0.0236
     49 H           2.6572    0.7297   -3.6893 H       1  LIG1        0.0236
     50 H           0.8619   -1.7883   -1.2546 H       1  LIG1        0.0272
     51 H           1.1178   -1.7290    0.4844 H       1  LIG1        0.0272
     52 H           4.5199   -1.4913    0.8038 H       1  LIG1        0.0233
     53 H           4.3775   -3.2048    0.4773 H       1  LIG1        0.0233
     54 H           3.1875   -2.4321    1.5155 H       1  LIG1        0.0233
     55 H           5.7430   -1.2158   -1.6325 H       1  LIG1        0.2099
     56 H           4.4447    0.1109   -3.4603 H       1  LIG1        0.2099
     57 H          -0.1096    4.2048    1.2738 H       1  LIG1        0.0238
     58 H          -1.6678    3.5414    1.1819 H       1  LIG1        0.0238
     59 H          -0.8568    3.9511   -0.3109 H       1  LIG1        0.0238
     60 H           0.0947    2.5879   -2.2546 H       1  LIG1        0.0235
     61 H          -1.5031    2.0788   -2.0320 H       1  LIG1        0.0235
     62 H          -0.5163    0.9561   -2.7860 H       1  LIG1        0.0235
     63 H          -1.0629   -0.6448    0.2218 H       1  LIG1        0.0271
     64 H          -1.5441   -0.4134   -1.3935 H       1  LIG1        0.0271
     65 H          -3.3231    0.8923   -0.6871 H       1  LIG1        0.0277
     66 H          -2.3150    2.1828   -0.3726 H       1  LIG1        0.0277
     67 H          -2.9455    2.9995    2.5439 H       1  LIG1        0.0241
     68 H          -3.9109    1.6516    3.0407 H       1  LIG1        0.0241
     69 H          -4.2710    2.4427    1.5097 H       1  LIG1        0.0241
     70 H          -4.9583    0.3740    0.4249 H       1  LIG1        0.0660
@<TRIPOS>BOND
     1     2     3    1
     2     3     5    2
     3     5     7    1
     4     7     8    2
     5     8     9    1
     6     9    10    2
     7    10    11    1
     8    11    12    1
     9    12    13    1
    10    13    14    1
    11    14    16    1
    12    16    18    1
    13    18    19    1
    14    19    22    1
    15    22    25    1
    16    14    25    1
    17    11    29    1
    18    16    29    1
    19    29    31    1
    20    31    32    1
    21    10    33    1
    22    32    33    1
    23    33    35    1
    24     7    35    1
    25    35    36    2
    26     2    36    1
    27     1     2    2
    28     3     4    1
    29     5     6    1
    30    11    28    1
    31    14    15    1
    32    16    17    1
    33    25    26    1
    34    25    27    1
    35    29    30    1
    36    33    34    1
    37    19    21    1
    38    19    20    1
    39    22    24    1
    40    22    23    1
    41     4    37    1
    42     6    38    1
    43     6    39    1
    44     6    40    1
    45     8    41    1
    46     9    42    1
    47    12    43    1
    48    12    44    1
    49    13    45    1
    50    13    46    1
    51    15    47    1
    52    15    48    1
    53    15    49    1
    54    18    50    1
    55    18    51    1
    56    21    52    1
    57    21    53    1
    58    21    54    1
    59    24    55    1
    60    27    56    1
    61    28    57    1
    62    28    58    1
    63    28    59    1
    64    30    60    1
    65    30    61    1
    66    30    62    1
    67    31    63    1
    68    31    64    1
    69    32    65    1
    70    32    66    1
    71    34    67    1
    72    34    68    1
    73    34    69    1
    74    36    70    1
