REMARK  Name = NuBBE_1135
REMARK  4 active torsions:
REMARK  status: ('A' for Active; 'I' for Inactive)
REMARK    1  A    between atoms: C_1  and  O_2
REMARK    2  A    between atoms: O_2  and  C_3
REMARK    3  A    between atoms: C_3  and  C_4
REMARK    4  A    between atoms: C_7  and  C_8
REMARK                            x       y       z     vdW  Elec       q    Type
REMARK                         _______ _______ _______ _____ _____    ______ ____
ROOT
ATOM      1  C   LIG A   1       1.192  -0.412   0.156  0.00  0.00    +0.018 A 
ATOM      2  C   LIG A   1       2.228  -1.207   0.668  0.00  0.00    +0.013 A 
ATOM      3  C   LIG A   1       3.579  -0.877   0.491  0.00  0.00    +0.027 A 
ATOM      4  C   LIG A   1       3.868   0.288  -0.223  0.00  0.00    +0.046 A 
ATOM      5  N   LIG A   1       5.080   0.854  -0.549  0.00  0.00    -0.361 N 
ATOM      6  H   LIG A   1       5.979   0.468  -0.294  0.00  0.00    +0.165 HD
ATOM      7  C   LIG A   1       4.887   2.006  -1.264  0.00  0.00    +0.083 A 
ATOM      8  C   LIG A   1       3.530   2.192  -1.403  0.00  0.00    +0.027 A 
ATOM      9  C   LIG A   1       2.875   1.112  -0.749  0.00  0.00    +0.000 A 
ATOM     10  C   LIG A   1       1.524   0.756  -0.555  0.00  0.00    +0.021 A 
ENDROOT
BRANCH   1  14
ATOM     11  C   LIG A   1      -2.449  -1.063   0.503  0.00  0.00    +0.016 A 
ATOM     12  C   LIG A   1      -1.788  -2.095   1.135  0.00  0.00    +0.201 A 
ATOM     13  O   LIG A   1      -0.445  -1.935   1.051  0.00  0.00    -0.463 OA
ATOM     14  C   LIG A   1      -0.209  -0.780   0.355  0.00  0.00    +0.135 A 
ATOM     15  C   LIG A   1      -1.419  -0.220  -0.007  0.00  0.00    +0.055 A 
BRANCH  11  16
ATOM     16  C   LIG A   1      -3.920  -0.884   0.375  0.00  0.00    +0.198 C 
BRANCH  16  18
ATOM     17  C   LIG A   1      -5.670   0.682   0.169  0.00  0.00    +0.194 C 
ATOM     18  O   LIG A   1      -4.269   0.501   0.313  0.00  0.00    -0.378 OA
ENDBRANCH  16  18
ENDBRANCH  11  16
ENDBRANCH   1  14
TORSDOF 3
