REMARK  Name = NuBBE_1471
REMARK  4 active torsions:
REMARK  status: ('A' for Active; 'I' for Inactive)
REMARK    1  A    between atoms: C_4  and  O_5
REMARK    2  A    between atoms: O_5  and  C_6
REMARK    3  A    between atoms: N_7  and  O_8
REMARK    4  A    between atoms: O_8  and  C_9
REMARK                            x       y       z     vdW  Elec       q    Type
REMARK                         _______ _______ _______ _____ _____    ______ ____
ROOT
ATOM      1  O   LIG A   1      -3.202  -0.331   0.279  0.00  0.00    -0.265 OA
ATOM      2  C   LIG A   1      -1.986  -0.251   0.118  0.00  0.00    +0.287 A 
ATOM      3  C   LIG A   1      -1.242  -1.474  -0.277  0.00  0.00    +0.119 A 
ATOM      4  C   LIG A   1       0.081  -1.465  -0.511  0.00  0.00    +0.135 A 
ATOM      5  N   LIG A   1      -1.222   0.877   0.306  0.00  0.00    -0.144 N 
ATOM      6  C   LIG A   1       0.145   0.977  -0.023  0.00  0.00    +0.095 A 
ATOM      7  C   LIG A   1       0.825  -0.190  -0.415  0.00  0.00    +0.044 A 
ATOM      8  C   LIG A   1       2.192  -0.104  -0.723  0.00  0.00    +0.013 A 
ATOM      9  C   LIG A   1       2.867   1.116  -0.648  0.00  0.00    +0.001 A 
ATOM     10  C   LIG A   1       2.185   2.268  -0.267  0.00  0.00    +0.002 A 
ATOM     11  C   LIG A   1       0.828   2.200   0.046  0.00  0.00    +0.030 A 
ENDROOT
BRANCH   4  12
ATOM     12  O   LIG A   1       0.855  -2.553  -0.852  0.00  0.00    -0.494 OA
ATOM     13  C   LIG A   1       0.206  -3.799  -1.077  0.00  0.00    +0.277 C 
ENDBRANCH   4  12
BRANCH   5  14
ATOM     14  O   LIG A   1      -1.909   2.085   0.579  0.00  0.00    -0.411 OA
ATOM     15  C   LIG A   1      -2.114   2.193   1.986  0.00  0.00    +0.311 C 
ENDBRANCH   5  14
TORSDOF 2
