REMARK  Name = NuBBE_829
REMARK  5 active torsions:
REMARK  status: ('A' for Active; 'I' for Inactive)
REMARK    1  A    between atoms: C_13  and  C_14
REMARK    2  A    between atoms: C_13  and  C_15
REMARK    3  A    between atoms: C_15  and  O_16
REMARK    4  A    between atoms: O_16  and  C_17
REMARK    5  A    between atoms: C_26  and  C_28
REMARK                            x       y       z     vdW  Elec       q    Type
REMARK                         _______ _______ _______ _____ _____    ______ ____
ROOT
ATOM      1  O   LIG A   1       1.007   3.177  -1.662  0.00  0.00    -0.250 OA
ATOM      2  C   LIG A   1       1.140   2.581  -0.602  0.00  0.00    +0.315 C 
ATOM      3  C   LIG A   1       1.748   1.225  -0.506  0.00  0.00    +0.155 C 
ATOM      4  C   LIG A   1       1.707   0.302  -1.687  0.00  0.00    +0.192 C 
ATOM      5  O   LIG A   1       2.188  -0.918  -1.087  0.00  0.00    -0.460 OA
ATOM      6  C   LIG A   1       1.858  -0.903   0.253  0.00  0.00    +0.315 C 
ATOM      7  O   LIG A   1       2.146  -1.768   1.054  0.00  0.00    -0.250 OA
ATOM      8  C   LIG A   1       0.307   0.075  -2.259  0.00  0.00    +0.050 C 
ATOM      9  C   LIG A   1      -0.750  -0.423  -1.236  0.00  0.00    +0.013 C 
ATOM     10  C   LIG A   1      -1.164  -1.945  -1.412  0.00  0.00    +0.068 C 
ATOM     11  C   LIG A   1       0.004  -2.931  -1.600  0.00  0.00    +0.023 C 
ATOM     12  C   LIG A   1      -2.014  -2.413  -0.209  0.00  0.00    +0.018 C 
ATOM     13  C   LIG A   1      -1.382  -2.091   1.133  0.00  0.00    +0.001 C 
ATOM     14  C   LIG A   1      -1.263  -0.592   1.306  0.00  0.00    +0.005 C 
ATOM     15  C   LIG A   1      -0.452   0.114   0.208  0.00  0.00    +0.011 C 
ATOM     16  C   LIG A   1       1.066   0.348   0.528  0.00  0.00    +0.091 C 
ATOM     17  C   LIG A   1       1.376   1.026   1.853  0.00  0.00    +0.069 C 
ATOM     18  C   LIG A   1       0.813   2.459   1.867  0.00  0.00    +0.211 C 
ATOM     19  O   LIG A   1       0.850   3.157   0.588  0.00  0.00    -0.456 OA
ENDROOT
BRANCH  18  20
ATOM     20  C   LIG A   1       1.474   3.290   2.920  0.00  0.00    +0.030 A 
ATOM     21  C   LIG A   1       1.073   3.441   4.233  0.00  0.00    +0.202 A 
ATOM     22  O   LIG A   1       1.915   4.265   4.905  0.00  0.00    -0.471 OA
ATOM     23  C   LIG A   1       2.868   4.660   4.024  0.00  0.00    +0.195 A 
ATOM     24  C   LIG A   1       2.646   4.092   2.792  0.00  0.00    +0.048 A 
ENDBRANCH  18  20
BRANCH  10  25
ATOM     25  C   LIG A   1      -2.029  -2.068  -2.695  0.00  0.00    +0.313 C 
ATOM     26  O   LIG A   1      -1.916  -1.346  -3.678  0.00  0.00    -0.250 OA
BRANCH  25  27
ATOM     27  O   LIG A   1      -2.907  -3.107  -2.615  0.00  0.00    -0.468 OA
ATOM     28  C   LIG A   1      -3.763  -3.258  -3.749  0.00  0.00    +0.280 C 
ENDBRANCH  25  27
ENDBRANCH  10  25
TORSDOF 3
