@<TRIPOS>MOLECULE
NuBBE_143
 61 63 0 0 0
SMALL
GASTEIGER

@<TRIPOS>ATOM
      1 C          -1.8179   -3.3448    0.6869 C.3     1  LIG1       -0.0594
      2 C          -1.2079   -2.6692   -0.5666 C.3     1  LIG1       -0.0282
      3 C          -2.3266   -2.6732   -1.6313 C.3     1  LIG1       -0.0594
      4 C          -0.0612   -3.6227   -1.0173 C.3     1  LIG1       -0.0475
      5 C           0.8433   -3.0776   -2.1120 C.3     1  LIG1       -0.0520
      6 C           1.3869   -1.7001   -1.7471 C.3     1  LIG1       -0.0469
      7 C           0.2944   -0.6399   -1.4109 C.3     1  LIG1       -0.0200
      8 C          -0.4947   -0.3764   -2.7261 C.3     1  LIG1       -0.0588
      9 C          -0.6110   -1.2244   -0.2432 C.3     1  LIG1        0.0071
     10 H           0.0716   -1.4055    0.6028 H       1  LIG1        0.0347
     11 C          -1.6067   -0.1370    0.2599 C.3     1  LIG1        0.1095
     12 H          -2.2859    0.1105   -0.5603 H       1  LIG1        0.0738
     13 O          -2.5189   -0.5517    1.3129 O.3     1  LIG1       -0.4611
     14 C          -2.1024   -0.7078    2.6012 C.2     1  LIG1        0.3042
     15 C          -3.2860   -0.9117    3.4952 C.3     1  LIG1        0.0332
     16 O          -0.9486   -0.6526    3.0015 O.2     1  LIG1       -0.2512
     17 C          -0.9079    1.1703    0.6772 C.3     1  LIG1        0.0139
     18 C           0.0012    1.8031   -0.3719 C.3     1  LIG1        0.0745
     19 C          -0.8575    2.5006   -1.4447 C.3     1  LIG1       -0.0354
     20 C           0.9735    0.7457   -0.9900 C.3     1  LIG1       -0.0061
     21 C           2.2075    0.5890   -0.0858 C.3     1  LIG1       -0.0442
     22 C           2.8738    1.9456    0.0667 C.3     1  LIG1       -0.0200
     23 C           1.9589    2.9497    0.7604 C.3     1  LIG1        0.0853
     24 C           2.4599    4.3750    0.4513 C.3     1  LIG1       -0.0322
     25 C           1.9354    2.6926    2.2588 C.2     1  LIG1       -0.0599
     26 C           2.7353    3.2528    3.1824 C.2     1  LIG1       -0.1000
     27 O           0.6297    2.9500    0.2416 O.3     1  LIG1       -0.3631
     28 H          -2.0349   -4.4036    0.4925 H       1  LIG1        0.0235
     29 H          -2.7710   -2.8971    0.9771 H       1  LIG1        0.0235
     30 H          -1.1297   -3.3098    1.5374 H       1  LIG1        0.0235
     31 H          -2.8773   -3.6225   -1.6166 H       1  LIG1        0.0235
     32 H          -1.9514   -2.5777   -2.6499 H       1  LIG1        0.0235
     33 H          -3.0579   -1.8791   -1.4555 H       1  LIG1        0.0235
     34 H          -0.4747   -4.5833   -1.3522 H       1  LIG1        0.0271
     35 H           0.5711   -3.8543   -0.1486 H       1  LIG1        0.0271
     36 H           0.3225   -3.0682   -3.0730 H       1  LIG1        0.0266
     37 H           1.6883   -3.7646   -2.2477 H       1  LIG1        0.0266
     38 H           2.0287   -1.3362   -2.5586 H       1  LIG1        0.0271
     39 H           2.0336   -1.8602   -0.8764 H       1  LIG1        0.0271
     40 H          -0.5504   -1.2417   -3.3869 H       1  LIG1        0.0235
     41 H          -0.0159    0.3971   -3.3374 H       1  LIG1        0.0235
     42 H          -1.5290   -0.0699   -2.5509 H       1  LIG1        0.0235
     43 H          -4.0131   -1.5756    3.0190 H       1  LIG1        0.0342
     44 H          -3.7491    0.0531    3.7211 H       1  LIG1        0.0342
     45 H          -2.9597   -1.3849    4.4261 H       1  LIG1        0.0342
     46 H          -0.3066    0.9850    1.5680 H       1  LIG1        0.0329
     47 H          -1.6610    1.8926    1.0202 H       1  LIG1        0.0329
     48 H          -1.5978    1.8577   -1.9165 H       1  LIG1        0.0257
     49 H          -0.2207    2.9330   -2.2251 H       1  LIG1        0.0257
     50 H          -1.4111    3.3418   -1.0117 H       1  LIG1        0.0257
     51 H           1.3791    1.1873   -1.9144 H       1  LIG1        0.0334
     52 H           2.9549   -0.0662   -0.5404 H       1  LIG1        0.0270
     53 H           1.9413    0.1594    0.8861 H       1  LIG1        0.0270
     54 H           3.1341    2.3105   -0.9365 H       1  LIG1        0.0296
     55 H           3.8238    1.8386    0.6053 H       1  LIG1        0.0296
     56 H           2.3430    4.6002   -0.6160 H       1  LIG1        0.0260
     57 H           3.5131    4.5192    0.7110 H       1  LIG1        0.0260
     58 H           1.8598    5.1249    0.9829 H       1  LIG1        0.0260
     59 H           1.2277    1.9509    2.6168 H       1  LIG1        0.0594
     60 H           3.4997    3.9793    2.9306 H       1  LIG1        0.0533
     61 H           2.6524    2.9742    4.2287 H       1  LIG1        0.0533
@<TRIPOS>BOND
     1     1     2    1
     2     2     3    1
     3     2     4    1
     4     4     5    1
     5     5     6    1
     6     6     7    1
     7     7     8    1
     8     7     9    1
     9     9    10    1
    10     2     9    1
    11     9    11    1
    12    11    12    1
    13    11    13    1
    14    13    14    1
    15    14    15    1
    16    14    16    2
    17    11    17    1
    18    17    18    1
    19    18    19    1
    20    18    20    1
    21     7    20    1
    22    20    21    1
    23    21    22    1
    24    22    23    1
    25    25    26    2
    26    23    27    1
    27    18    27    1
    28    23    25    1
    29    23    24    1
    30     1    28    1
    31     1    29    1
    32     1    30    1
    33     3    31    1
    34     3    32    1
    35     3    33    1
    36     4    34    1
    37     4    35    1
    38     5    36    1
    39     5    37    1
    40     6    38    1
    41     6    39    1
    42     8    40    1
    43     8    41    1
    44     8    42    1
    45    15    43    1
    46    15    44    1
    47    15    45    1
    48    17    46    1
    49    17    47    1
    50    19    48    1
    51    19    49    1
    52    19    50    1
    53    20    51    1
    54    21    52    1
    55    21    53    1
    56    22    54    1
    57    22    55    1
    58    24    56    1
    59    24    57    1
    60    24    58    1
    61    25    59    1
    62    26    60    1
    63    26    61    1
