REMARK  Name = NuBBE_1590
REMARK  10 active torsions:
REMARK  status: ('A' for Active; 'I' for Inactive)
REMARK    1  A    between atoms: C_1  and  O_2
REMARK    2  A    between atoms: O_2  and  C_3
REMARK    3  A    between atoms: C_6  and  C_7
REMARK    4  A    between atoms: C_6  and  C_8
REMARK    5  A    between atoms: C_12  and  O_13
REMARK    6  A    between atoms: C_17  and  C_18
REMARK    7  A    between atoms: C_21  and  O_22
REMARK    8  A    between atoms: O_22  and  C_23
REMARK    9  A    between atoms: C_24  and  O_25
REMARK   10  A    between atoms: O_25  and  C_26
REMARK                            x       y       z     vdW  Elec       q    Type
REMARK                         _______ _______ _______ _____ _____    ______ ____
ROOT
ATOM      1  C   LIG A   1       0.817  -1.559  -0.722  0.00  0.00    +0.206 A 
ATOM      2  C   LIG A   1       1.631  -2.198  -1.682  0.00  0.00    +0.177 A 
ATOM      3  O   LIG A   1       1.862  -3.538  -1.545  0.00  0.00    -0.478 OA
ATOM      4  C   LIG A   1       2.566  -4.277  -2.557  0.00  0.00    +0.124 C 
ATOM      5  C   LIG A   1       1.538  -5.193  -3.231  0.00  0.00    +0.060 C 
ATOM      6  C   LIG A   1       3.601  -5.120  -1.804  0.00  0.00    +0.060 C 
ATOM      7  C   LIG A   1       3.259  -3.441  -3.596  0.00  0.00    +0.020 C 
ATOM      8  C   LIG A   1       3.096  -2.120  -3.683  0.00  0.00    +0.015 C 
ATOM      9  C   LIG A   1       2.211  -1.459  -2.731  0.00  0.00    +0.062 A 
ATOM     10  C   LIG A   1       1.954  -0.085  -2.839  0.00  0.00    +0.142 A 
ATOM     11  C   LIG A   1       1.143   0.544  -1.895  0.00  0.00    +0.110 A 
ATOM     12  C   LIG A   1       0.588  -0.170  -0.844  0.00  0.00    +0.188 A 
ATOM     13  O   LIG A   1      -0.200   0.436   0.114  0.00  0.00    -0.451 OA
ATOM     14  C   LIG A   1      -0.451   1.808   0.036  0.00  0.00    +0.140 A 
ATOM     15  C   LIG A   1       0.042   2.580  -0.936  0.00  0.00    +0.098 A 
ATOM     16  C   LIG A   1       0.863   1.980  -1.990  0.00  0.00    +0.197 A 
ATOM     17  O   LIG A   1       1.295   2.651  -2.912  0.00  0.00    -0.287 OA
ENDROOT
BRANCH  14  18
ATOM     18  C   LIG A   1      -1.290   2.342   1.137  0.00  0.00    +0.021 A 
ATOM     19  C   LIG A   1      -1.713   1.490   2.162  0.00  0.00    +0.015 A 
ATOM     20  C   LIG A   1      -2.512   1.956   3.207  0.00  0.00    +0.050 A 
ATOM     21  C   LIG A   1      -2.902   3.296   3.279  0.00  0.00    +0.162 A 
ATOM     22  C   LIG A   1      -2.476   4.178   2.277  0.00  0.00    +0.162 A 
ATOM     23  C   LIG A   1      -1.703   3.687   1.208  0.00  0.00    +0.061 A 
BRANCH  21  24
ATOM     24  O   LIG A   1      -3.689   3.787   4.282  0.00  0.00    -0.491 OA
ATOM     25  C   LIG A   1      -4.207   2.864   5.224  0.00  0.00    +0.277 C 
ENDBRANCH  21  24
BRANCH  22  26
ATOM     26  O   LIG A   1      -2.753   5.523   2.188  0.00  0.00    -0.491 OA
ATOM     27  C   LIG A   1      -3.078   6.192   3.404  0.00  0.00    +0.277 C 
ENDBRANCH  22  26
ENDBRANCH  14  18
BRANCH   1  29
ATOM     28  C   LIG A   1       0.261  -3.543   0.543  0.00  0.00    +0.277 C 
ATOM     29  O   LIG A   1       0.208  -2.134   0.368  0.00  0.00    -0.488 OA
ENDBRANCH   1  29
BRANCH  10  30
ATOM     30  O   LIG A   1       2.517   0.608  -3.885  0.00  0.00    -0.505 OA
ATOM     31  H   LIG A   1       2.221   1.546  -3.837  0.00  0.00    +0.292 HD
ENDBRANCH  10  30
TORSDOF 5
