REMARK  Name = NuBBE_1740
REMARK  3 active torsions:
REMARK  status: ('A' for Active; 'I' for Inactive)
REMARK    1  A    between atoms: C_1  and  C_9
REMARK    2  A    between atoms: C_1  and  C_10
REMARK    3  A    between atoms: C_5  and  C_8
REMARK                            x       y       z     vdW  Elec       q    Type
REMARK                         _______ _______ _______ _____ _____    ______ ____
ROOT
ATOM      1  C   LIG A   1       1.129   1.297  -1.105  0.00  0.00    -0.076 C 
ATOM      2  C   LIG A   1       0.407   0.449  -0.323  0.00  0.00    -0.067 C 
ATOM      3  C   LIG A   1      -1.109   0.504  -0.313  0.00  0.00    +0.035 C 
ATOM      4  C   LIG A   1      -1.908  -0.527   0.495  0.00  0.00    +0.034 C 
ATOM      5  C   LIG A   1      -1.125  -1.538   1.271  0.00  0.00    -0.076 C 
ATOM      6  C   LIG A   1       0.213  -1.533   1.290  0.00  0.00    -0.024 C 
ATOM      7  C   LIG A   1       1.095  -0.563   0.570  0.00  0.00    +0.057 C 
ATOM      8  C   LIG A   1      -1.912  -2.560   2.039  0.00  0.00    +0.038 C 
ATOM      9  C   LIG A   1       0.517   2.329  -2.026  0.00  0.00    +0.038 C 
ATOM     10  C   LIG A   1       2.640   1.331  -1.148  0.00  0.00    +0.038 C 
ENDROOT
TORSDOF 0
