REMARK  Name = NuBBE_1587
REMARK  7 active torsions:
REMARK  status: ('A' for Active; 'I' for Inactive)
REMARK    1  A    between atoms: C_1  and  C_2
REMARK    2  A    between atoms: C_7  and  O_18
REMARK    3  A    between atoms: C_12  and  C_13
REMARK    4  A    between atoms: C_12  and  C_14
REMARK    5  A    between atoms: O_18  and  C_19
REMARK    6  A    between atoms: C_19  and  C_21
REMARK    7  A    between atoms: C_22  and  C_24
REMARK                            x       y       z     vdW  Elec       q    Type
REMARK                         _______ _______ _______ _____ _____    ______ ____
ROOT
ATOM      1  C   LIG A   1      -2.249  -0.658   1.533  0.00  0.00    +0.012 C 
ATOM      2  C   LIG A   1      -0.913   0.144   1.500  0.00  0.00    -0.025 C 
ATOM      3  C   LIG A   1      -0.695   0.802   0.102  0.00  0.00    +0.010 C 
ATOM      4  C   LIG A   1      -0.733  -0.230  -1.105  0.00  0.00    +0.041 C 
ATOM      5  C   LIG A   1      -0.167  -1.622  -0.686  0.00  0.00    +0.181 C 
ATOM      6  C   LIG A   1       0.793  -1.580   0.510  0.00  0.00    +0.049 C 
ATOM      7  C   LIG A   1       0.325  -0.801   1.779  0.00  0.00    +0.004 C 
ATOM      8  C   LIG A   1       1.572  -0.157   2.553  0.00  0.00    -0.031 C 
ATOM      9  C   LIG A   1       2.334  -1.283   3.297  0.00  0.00    +0.011 C 
ATOM     10  C   LIG A   1       2.617   0.549   1.650  0.00  0.00    +0.011 C 
ATOM     11  C   LIG A   1       1.127   0.866   3.622  0.00  0.00    +0.007 C 
ATOM     12  C   LIG A   1       0.160   1.894   3.066  0.00  0.00    +0.001 C 
ATOM     13  C   LIG A   1      -1.104   1.175   2.649  0.00  0.00    +0.007 C 
ATOM     14  C   LIG A   1      -0.154   0.424  -2.438  0.00  0.00    +0.026 C 
ATOM     15  C   LIG A   1      -0.657  -0.259  -3.721  0.00  0.00    +0.013 C 
ATOM     16  C   LIG A   1      -0.542   1.882  -2.520  0.00  0.00    -0.003 A 
ATOM     17  C   LIG A   1      -1.222   2.538  -1.524  0.00  0.00    +0.109 A 
ATOM     18  C   LIG A   1      -1.621   2.010  -0.205  0.00  0.00    +0.079 C 
ATOM     19  O   LIG A   1      -1.473   3.827  -1.844  0.00  0.00    -0.468 OA
ATOM     20  C   LIG A   1      -0.931   4.015  -3.078  0.00  0.00    +0.195 A 
ATOM     21  C   LIG A   1      -0.330   2.859  -3.527  0.00  0.00    +0.045 A 
ENDROOT
BRANCH   5  22
ATOM     22  O   LIG A   1       0.512  -2.320  -1.751  0.00  0.00    -0.461 OA
BRANCH  22  23
ATOM     23  C   LIG A   1      -0.245  -3.191  -2.477  0.00  0.00    +0.304 C 
ATOM     24  O   LIG A   1      -1.457  -3.347  -2.362  0.00  0.00    -0.251 OA
ATOM     25  C   LIG A   1       0.603  -3.944  -3.455  0.00  0.00    +0.136 C 
ENDBRANCH  22  23
ENDBRANCH   5  22
TORSDOF 2
