REMARK  Name = NuBBE_1684
REMARK  16 active torsions:
REMARK  status: ('A' for Active; 'I' for Inactive)
REMARK    1  A    between atoms: C_1  and  C_2
REMARK    2  A    between atoms: C_2  and  C_3
REMARK    3  A    between atoms: C_3  and  C_4
REMARK    4  A    between atoms: C_5  and  C_6
REMARK    5  A    between atoms: C_6  and  C_7
REMARK    6  A    between atoms: C_8  and  C_9
REMARK    7  A    between atoms: C_9  and  C_10
REMARK    8  A    between atoms: C_10  and  C_11
REMARK    9  A    between atoms: C_11  and  C_12
REMARK   10  A    between atoms: C_12  and  C_13
REMARK   11  A    between atoms: C_13  and  C_14
REMARK   12  A    between atoms: C_14  and  C_15
REMARK   13  A    between atoms: C_15  and  C_16
REMARK   14  A    between atoms: C_18  and  O_19
REMARK   15  A    between atoms: C_20  and  C_21
REMARK   16  A    between atoms: C_22  and  O_23
REMARK                            x       y       z     vdW  Elec       q    Type
REMARK                         _______ _______ _______ _____ _____    ______ ____
ROOT
ATOM      1  C   LIG A   1       0.137  -1.411  -2.739  0.00  0.00    +0.000 C 
ENDROOT
BRANCH   1   2
ATOM      2  C   LIG A   1       1.285  -0.749  -3.592  0.00  0.00    +0.000 C 
BRANCH   2   3
ATOM      3  C   LIG A   1       1.097   0.534  -4.464  0.00  0.00    +0.000 C 
BRANCH   3   4
ATOM      4  C   LIG A   1       0.870   1.980  -3.945  0.00  0.00    +0.004 C 
BRANCH   4   5
ATOM      5  C   LIG A   1      -0.129   2.192  -2.811  0.00  0.00    +0.027 C 
BRANCH   5   7
ATOM      6  C   LIG A   1       0.187   1.817  -0.272  0.00  0.00    -0.027 C 
ATOM      7  C   LIG A   1       0.581   1.821  -1.518  0.00  0.00    -0.031 C 
BRANCH   6   8
ATOM      8  C   LIG A   1      -1.036   2.388   0.411  0.00  0.00    +0.054 C 
BRANCH   8  10
ATOM      9  C   LIG A   1      -0.745   2.682   2.955  0.00  0.00    -0.031 C 
ATOM     10  C   LIG A   1      -1.076   1.993   1.883  0.00  0.00    -0.027 C 
BRANCH   9  11
ATOM     11  C   LIG A   1      -0.195   4.080   3.073  0.00  0.00    +0.026 C 
BRANCH  11  13
ATOM     12  C   LIG A   1       1.996   3.755   1.804  0.00  0.00    +0.004 C 
ATOM     13  C   LIG A   1       0.736   4.590   1.979  0.00  0.00    +0.001 C 
ENDBRANCH  11  13
ENDBRANCH   9  11
ENDBRANCH   8  10
ENDBRANCH   6   8
ENDBRANCH   5   7
ENDBRANCH   4   5
ENDBRANCH   3   4
ENDBRANCH   2   3
ENDBRANCH   1   2
BRANCH   1  14
ATOM     14  C   LIG A   1      -0.167  -0.792  -1.381  0.00  0.00    +0.005 C 
BRANCH  14  15
ATOM     15  C   LIG A   1      -1.188  -1.138  -0.298  0.00  0.00    +0.035 C 
BRANCH  15  16
ATOM     16  C   LIG A   1      -0.834  -2.269   0.596  0.00  0.00    -0.041 A 
ATOM     17  C   LIG A   1      -0.724  -3.498  -0.037  0.00  0.00    +0.049 A 
ATOM     18  C   LIG A   1      -0.708  -4.654   0.708  0.00  0.00    +0.123 A 
ATOM     19  C   LIG A   1      -0.645  -4.615   2.098  0.00  0.00    +0.032 A 
ATOM     20  C   LIG A   1      -0.558  -5.896   2.868  0.00  0.00    +0.051 C 
ATOM     21  C   LIG A   1      -0.612  -3.364   2.731  0.00  0.00    +0.123 A 
ATOM     22  C   LIG A   1      -0.743  -2.188   1.991  0.00  0.00    +0.049 A 
BRANCH  18  23
ATOM     23  O   LIG A   1      -0.781  -5.847   0.052  0.00  0.00    -0.506 OA
ATOM     24  H   LIG A   1      -0.713  -5.676  -0.900  0.00  0.00    +0.292 HD
ENDBRANCH  18  23
BRANCH  21  25
ATOM     25  O   LIG A   1      -0.447  -3.309   4.086  0.00  0.00    -0.506 OA
ATOM     26  H   LIG A   1      -0.166  -2.409   4.324  0.00  0.00    +0.292 HD
ENDBRANCH  21  25
ENDBRANCH  15  16
ENDBRANCH  14  15
ENDBRANCH   1  14
TORSDOF 14
