@<TRIPOS>MOLECULE
NuBBE_651
 29 31 0 0 0
SMALL
GASTEIGER

@<TRIPOS>ATOM
      1 O          -5.5837    1.8436   -0.0267 O.2     1  LIG1       -0.2452
      2 C          -4.3589    1.8472   -0.0190 C.ar    1  LIG1        0.3372
      3 C          -3.6121    3.1182   -0.0172 C.ar    1  LIG1        0.0236
      4 C          -2.2768    3.1669   -0.0070 C.ar    1  LIG1       -0.0443
      5 O          -3.6105    0.6782   -0.0124 O.2     1  LIG1       -0.4220
      6 C          -2.2027    0.7157    0.0033 C.ar    1  LIG1        0.1426
      7 C          -1.5170    1.9283    0.0060 C.ar    1  LIG1        0.0184
      8 C          -0.1204    1.9171    0.0270 C.ar    1  LIG1       -0.0404
      9 C          -1.5306   -0.5023    0.0199 C.ar    1  LIG1        0.0237
     10 C          -0.1369   -0.5071    0.0402 C.ar    1  LIG1        0.1324
     11 C           0.5734    0.6985    0.0465 C.ar    1  LIG1        0.0173
     12 C           2.0261    0.6806    0.0845 C.2     1  LIG1       -0.0513
     13 C           2.6349   -0.5078    0.0691 C.2     1  LIG1       -0.0409
     14 C           1.8920   -1.8236    0.0093 C.3     1  LIG1        0.1235
     15 C           2.2338   -2.5320   -1.3064 C.3     1  LIG1       -0.0215
     16 C           2.3112   -2.6930    1.2004 C.3     1  LIG1       -0.0215
     17 O           0.4533   -1.7379    0.0660 O.3     1  LIG1       -0.4815
     18 H          -4.2161    4.0171   -0.0243 H       1  LIG1        0.0689
     19 H          -1.7488    4.1143   -0.0056 H       1  LIG1        0.0627
     20 H           0.4315    2.8538    0.0316 H       1  LIG1        0.0632
     21 H          -2.0825   -1.4372    0.0195 H       1  LIG1        0.0691
     22 H           2.5824    1.6099    0.1195 H       1  LIG1        0.0623
     23 H           3.7212   -0.5463    0.0890 H       1  LIG1        0.0611
     24 H           3.3120   -2.6842   -1.4247 H       1  LIG1        0.0271
     25 H           1.8721   -1.9521   -2.1645 H       1  LIG1        0.0271
     26 H           1.7382   -3.5080   -1.3659 H       1  LIG1        0.0271
     27 H           3.3960   -2.8380    1.2450 H       1  LIG1        0.0271
     28 H           1.8343   -3.6790    1.1521 H       1  LIG1        0.0271
     29 H           1.9846   -2.2407    2.1450 H       1  LIG1        0.0271
@<TRIPOS>BOND
     1     1     2    2
     2     2     3   ar
     3     3     4   ar
     4     2     5   ar
     5     5     6   ar
     6     6     7   ar
     7     4     7   ar
     8     7     8   ar
     9     6     9   ar
    10     9    10   ar
    11    10    11   ar
    12     8    11   ar
    13    11    12    1
    14    12    13    2
    15    13    14    1
    16    14    15    1
    17    14    16    1
    18    14    17    1
    19    10    17    1
    20     3    18    1
    21     4    19    1
    22     8    20    1
    23     9    21    1
    24    12    22    1
    25    13    23    1
    26    15    24    1
    27    15    25    1
    28    15    26    1
    29    16    27    1
    30    16    28    1
    31    16    29    1
