REMARK  Name = NuBBE_82
REMARK  11 active torsions:
REMARK  status: ('A' for Active; 'I' for Inactive)
REMARK    1  A    between atoms: C_1  and  C_2
REMARK    2  A    between atoms: C_4  and  C_6
REMARK    3  A    between atoms: C_7  and  C_9
REMARK    4  A    between atoms: C_11  and  O_12
REMARK    5  A    between atoms: O_12  and  C_13
REMARK    6  A    between atoms: C_21  and  C_23
REMARK    7  A    between atoms: C_25  and  O_26
REMARK    8  A    between atoms: O_26  and  C_27
REMARK    9  A    between atoms: C_28  and  O_29
REMARK   10  A    between atoms: C_30  and  O_31
REMARK   11  A    between atoms: O_31  and  C_32
REMARK                            x       y       z     vdW  Elec       q    Type
REMARK                         _______ _______ _______ _____ _____    ______ ____
ROOT
ATOM      1  C   LIG A   1      -0.691  -0.243  -3.970  0.00  0.00    +0.011 C 
ATOM      2  C   LIG A   1       0.539  -0.451  -3.104  0.00  0.00    +0.025 C 
ATOM      3  C   LIG A   1       0.957   0.785  -2.318  0.00  0.00    +0.025 C 
ATOM      4  C   LIG A   1       1.531   1.901  -3.183  0.00  0.00    +0.011 C 
ATOM      5  C   LIG A   1       1.968   0.195  -1.323  0.00  0.00    +0.152 C 
ATOM      6  O   LIG A   1       1.522  -1.160  -1.070  0.00  0.00    -0.364 OA
ATOM      7  C   LIG A   1       0.479  -1.528  -2.016  0.00  0.00    +0.152 C 
ENDROOT
BRANCH   5   8
ATOM      8  C   LIG A   1       2.158   0.922   0.010  0.00  0.00    -0.011 A 
ATOM      9  C   LIG A   1       1.442   2.098   0.341  0.00  0.00    +0.056 A 
ATOM     10  C   LIG A   1       1.592   2.750   1.571  0.00  0.00    +0.166 A 
ATOM     11  C   LIG A   1       2.509   2.218   2.461  0.00  0.00    +0.207 A 
ATOM     12  O   LIG A   1       2.837   2.700   3.686  0.00  0.00    -0.449 OA
ATOM     13  C   LIG A   1       3.838   1.744   4.111  0.00  0.00    +0.467 C 
ATOM     14  O   LIG A   1       4.096   0.729   3.140  0.00  0.00    -0.453 OA
ATOM     15  C   LIG A   1       3.232   1.088   2.145  0.00  0.00    +0.170 A 
ATOM     16  C   LIG A   1       3.082   0.425   0.944  0.00  0.00    +0.056 A 
BRANCH  10  17
ATOM     17  O   LIG A   1       0.832   3.867   1.739  0.00  0.00    -0.491 OA
ATOM     18  C   LIG A   1       0.507   4.209   3.082  0.00  0.00    +0.277 C 
ENDBRANCH  10  17
ENDBRANCH   5   8
BRANCH   7  19
ATOM     19  C   LIG A   1      -0.823  -1.764  -1.261  0.00  0.00    -0.011 A 
ATOM     20  C   LIG A   1      -1.799  -2.660  -1.743  0.00  0.00    +0.056 A 
ATOM     21  C   LIG A   1      -2.946  -2.985  -0.992  0.00  0.00    +0.165 A 
ATOM     22  C   LIG A   1      -3.096  -2.415   0.275  0.00  0.00    +0.201 A 
ATOM     23  C   LIG A   1      -2.154  -1.499   0.762  0.00  0.00    +0.165 A 
ATOM     24  C   LIG A   1      -1.044  -1.169  -0.013  0.00  0.00    +0.056 A 
BRANCH  21  25
ATOM     25  O   LIG A   1      -3.781  -3.881  -1.609  0.00  0.00    -0.491 OA
ATOM     26  C   LIG A   1      -5.022  -4.171  -0.971  0.00  0.00    +0.277 C 
ENDBRANCH  21  25
BRANCH  22  27
ATOM     27  O   LIG A   1      -4.122  -2.763   1.119  0.00  0.00    -0.501 OA
ATOM     28  H   LIG A   1      -3.914  -2.325   1.967  0.00  0.00    +0.292 HD
ENDBRANCH  22  27
BRANCH  23  29
ATOM     29  O   LIG A   1      -2.424  -0.978   2.005  0.00  0.00    -0.491 OA
ATOM     30  C   LIG A   1      -1.285  -0.564   2.754  0.00  0.00    +0.277 C 
ENDBRANCH  23  29
ENDBRANCH   7  19
TORSDOF 6
