REMARK  Name = NuBBE_1175
REMARK  13 active torsions:
REMARK  status: ('A' for Active; 'I' for Inactive)
REMARK    1  A    between atoms: C_1  and  C_2
REMARK    2  A    between atoms: C_2  and  C_3
REMARK    3  A    between atoms: C_6  and  C_7
REMARK    4  A    between atoms: C_7  and  O_8
REMARK    5  A    between atoms: C_12  and  C_13
REMARK    6  A    between atoms: C_14  and  C_15
REMARK    7  A    between atoms: C_17  and  O_19
REMARK    8  A    between atoms: C_21  and  C_22
REMARK    9  A    between atoms: C_21  and  C_23
REMARK   10  A    between atoms: C_23  and  O_24
REMARK   11  A    between atoms: C_25  and  O_27
REMARK   12  A    between atoms: C_28  and  O_30
REMARK   13  A    between atoms: C_32  and  C_33
REMARK                            x       y       z     vdW  Elec       q    Type
REMARK                         _______ _______ _______ _____ _____    ______ ____
ROOT
ATOM      1  C   LIG A   1      -4.521   1.016   3.235  0.00  0.00    +0.011 C 
ATOM      2  C   LIG A   1      -3.137   0.343   3.333  0.00  0.00    -0.034 C 
ATOM      3  C   LIG A   1      -2.560   0.653   4.729  0.00  0.00    +0.011 C 
ATOM      4  C   LIG A   1      -3.280  -1.184   3.183  0.00  0.00    +0.007 C 
ATOM      5  C   LIG A   1      -3.567  -1.633   1.748  0.00  0.00    +0.019 C 
ATOM      6  C   LIG A   1      -2.521  -1.112   0.737  0.00  0.00    +0.074 C 
ATOM      7  C   LIG A   1      -2.978  -1.475  -0.694  0.00  0.00    +0.019 C 
ATOM      8  C   LIG A   1      -1.957  -1.015  -1.738  0.00  0.00    +0.012 C 
ATOM      9  C   LIG A   1      -1.587   0.500  -1.704  0.00  0.00    -0.005 C 
ATOM     10  C   LIG A   1      -2.840   1.220  -2.318  0.00  0.00    +0.016 C 
ATOM     11  C   LIG A   1      -0.205   0.816  -2.569  0.00  0.00    -0.017 C 
ATOM     12  C   LIG A   1      -0.591   1.531  -3.917  0.00  0.00    +0.012 C 
ATOM     13  C   LIG A   1       0.566  -0.422  -3.053  0.00  0.00    +0.039 C 
ATOM     14  C   LIG A   1       1.436  -1.129  -2.026  0.00  0.00    +0.119 C 
ATOM     15  C   LIG A   1       2.630  -0.257  -1.564  0.00  0.00    +0.034 C 
ATOM     16  C   LIG A   1       3.657  -1.054  -0.584  0.00  0.00    +0.025 C 
ATOM     17  C   LIG A   1       5.079  -0.431  -0.663  0.00  0.00    +0.016 C 
ATOM     18  C   LIG A   1       3.120  -1.031   0.872  0.00  0.00    +0.151 C 
ATOM     19  C   LIG A   1       2.854   0.384   1.370  0.00  0.00    +0.144 C 
ATOM     20  C   LIG A   1       1.779   1.027   0.509  0.00  0.00    +0.041 C 
ATOM     21  C   LIG A   1       2.090   1.141  -1.008  0.00  0.00    -0.020 C 
ATOM     22  C   LIG A   1       3.210   2.219  -1.171  0.00  0.00    +0.012 C 
ATOM     23  C   LIG A   1       0.829   1.763  -1.842  0.00  0.00    +0.006 C 
ATOM     24  C   LIG A   1       0.043   2.842  -1.067  0.00  0.00    +0.031 C 
ATOM     25  C   LIG A   1      -0.866   2.218  -0.058  0.00  0.00    -0.026 C 
ATOM     26  C   LIG A   1      -1.542   1.071  -0.271  0.00  0.00    -0.063 C 
ATOM     27  C   LIG A   1      -2.440   0.440   0.815  0.00  0.00    +0.033 C 
ATOM     28  C   LIG A   1      -2.184   0.932   2.264  0.00  0.00    +0.015 C 
ENDROOT
BRANCH   6  29
ATOM     29  C   LIG A   1      -1.198  -1.821   1.073  0.00  0.00    +0.311 C 
ATOM     30  O   LIG A   1      -0.319  -1.446   1.822  0.00  0.00    -0.250 OA
BRANCH  29  31
ATOM     31  O   LIG A   1      -1.088  -3.051   0.523  0.00  0.00    -0.480 OA
ATOM     32  H   LIG A   1      -0.243  -3.391   0.887  0.00  0.00    +0.295 HD
ENDBRANCH  29  31
ENDBRANCH   6  29
BRANCH  14  33
ATOM     33  O   LIG A   1       1.910  -2.283  -2.723  0.00  0.00    -0.392 OA
ATOM     34  H   LIG A   1       1.142  -2.809  -3.008  0.00  0.00    +0.210 HD
ENDBRANCH  14  33
BRANCH  18  35
ATOM     35  O   LIG A   1       4.020  -1.678   1.787  0.00  0.00    -0.389 OA
ATOM     36  H   LIG A   1       3.526  -1.728   2.630  0.00  0.00    +0.210 HD
ENDBRANCH  18  35
BRANCH  19  37
ATOM     37  O   LIG A   1       2.389   0.329   2.725  0.00  0.00    -0.389 OA
ATOM     38  H   LIG A   1       3.179   0.304   3.292  0.00  0.00    +0.210 HD
ENDBRANCH  19  37
BRANCH  16  39
ATOM     39  C   LIG A   1       3.857  -2.558  -0.978  0.00  0.00    +0.165 C 
BRANCH  39  40
ATOM     40  O   LIG A   1       4.813  -3.245  -0.165  0.00  0.00    -0.394 OA
ATOM     41  H   LIG A   1       4.666  -2.937   0.754  0.00  0.00    +0.209 HD
ENDBRANCH  39  40
ENDBRANCH  16  39
TORSDOF 7
