@<TRIPOS>MOLECULE
NuBBE_1981
 16 15 0 0 0
SMALL
GASTEIGER

@<TRIPOS>ATOM
      1 S          -0.8539   -0.7354    1.0468 S.3     1  LIG1       -0.0770
      2 S           0.5385    0.7136    0.6327 S.3     1  LIG1       -0.0126
      3 S          -0.1395    1.6844   -1.0460 S.3     1  LIG1       -0.0132
      4 S          -1.4700    3.0966   -0.3818 S.3     1  LIG1       -0.0845
      5 C          -0.3483    4.2568    0.4320 C.3     1  LIG1       -0.0070
      6 C          -0.6583   -1.8867   -0.3396 C.3     1  LIG1        0.0226
      7 C           0.7167   -2.5143   -0.3909 C.2     1  LIG1       -0.0805
      8 C           1.0336   -3.7126    0.0878 C.2     1  LIG1       -0.1018
      9 H           0.4595    4.5697   -0.2360 H       1  LIG1        0.0349
     10 H           0.0717    3.7846    1.3241 H       1  LIG1        0.0349
     11 H          -0.9043    5.1431    0.7463 H       1  LIG1        0.0349
     12 H          -0.8619   -1.3630   -1.2723 H       1  LIG1        0.0427
     13 H          -1.4213   -2.6667   -0.2424 H       1  LIG1        0.0427
     14 H           1.4788   -1.9310   -0.9343 H       1  LIG1        0.0575
     15 H           0.3127   -4.3285    0.6220 H       1  LIG1        0.0532
     16 H           2.0460   -4.1106   -0.0483 H       1  LIG1        0.0532
@<TRIPOS>BOND
     1     1     2    1
     2     2     3    1
     3     3     4    1
     4     4     5    1
     5     1     6    1
     6     6     7    1
     7     7     8    2
     8     5     9    1
     9     5    10    1
    10     5    11    1
    11     6    12    1
    12     6    13    1
    13     7    14    1
    14     8    15    1
    15     8    16    1
