@<TRIPOS>MOLECULE
NuBBE_1670
 56 59 0 0 0
SMALL
GASTEIGER

@<TRIPOS>ATOM
      1 C          -1.7151    4.2968    1.8255 C.3     1  LIG1        0.0790
      2 O          -2.7839    3.3958    2.1044 O.3     1  LIG1       -0.4913
      3 C          -2.4340    2.0845    2.3234 C.ar    1  LIG1        0.1653
      4 C          -3.5026    1.2055    2.5531 C.ar    1  LIG1        0.2010
      5 O          -4.7689    1.7333    2.5736 O.3     1  LIG1       -0.5009
      6 C          -3.2751   -0.1565    2.7683 C.ar    1  LIG1        0.1653
      7 O          -4.2214   -1.1262    2.9759 O.3     1  LIG1       -0.4913
      8 C          -5.4118   -0.7029    3.6336 C.3     1  LIG1        0.0790
      9 C          -1.9547   -0.6318    2.7702 C.ar    1  LIG1       -0.0104
     10 C          -0.8644    0.2385    2.6025 C.ar    1  LIG1       -0.0114
     11 C           0.5616   -0.2858    2.6993 C.3     1  LIG1        0.0892
     12 C           1.0999   -0.7870    1.3722 C.3     1  LIG1        0.0205
     13 C           1.7186    0.4398    0.7550 C.3     1  LIG1        0.0205
     14 C           2.7784   -0.1147   -0.1792 C.3     1  LIG1        0.0892
     15 C           2.2717   -0.4077   -1.5892 C.ar    1  LIG1       -0.0114
     16 C           1.7166    0.6163   -2.3909 C.ar    1  LIG1       -0.0104
     17 C           1.2632    0.3633   -3.7029 C.ar    1  LIG1        0.1653
     18 O           0.7182    1.4576   -4.3309 O.3     1  LIG1       -0.4913
     19 C           0.2124    1.2543   -5.6474 C.3     1  LIG1        0.0790
     20 C           1.4058   -0.9175   -4.2170 C.ar    1  LIG1        0.2010
     21 O           1.0191   -1.2555   -5.4955 O.3     1  LIG1       -0.5009
     22 C           1.9585   -1.9515   -3.4479 C.ar    1  LIG1        0.1653
     23 O           2.0604   -3.1535   -4.0986 O.3     1  LIG1       -0.4913
     24 C           1.9993   -4.3064   -3.2649 C.3     1  LIG1        0.0790
     25 C           2.3936   -1.6912   -2.1461 C.ar    1  LIG1       -0.0104
     26 O           3.2335   -1.3324    0.4567 O.3     1  LIG1       -0.3712
     27 C           2.3084   -1.7059    1.4946 C.3     1  LIG1        0.0544
     28 C           2.2792    1.1510    1.9832 C.3     1  LIG1        0.0544
     29 O           1.4493    0.7824    3.1009 O.3     1  LIG1       -0.3712
     30 C          -1.1289    1.5956    2.3539 C.ar    1  LIG1       -0.0104
     31 H          -2.1428    5.2920    1.6742 H       1  LIG1        0.0660
     32 H          -1.1892    4.0161    0.9059 H       1  LIG1        0.0660
     33 H          -1.0236    4.3597    2.6725 H       1  LIG1        0.0660
     34 H          -4.6426    2.7019    2.5760 H       1  LIG1        0.2924
     35 H          -5.9339   -1.5988    3.9837 H       1  LIG1        0.0660
     36 H          -6.0894   -0.1923    2.9432 H       1  LIG1        0.0660
     37 H          -5.1899   -0.0878    4.5131 H       1  LIG1        0.0660
     38 H          -1.7858   -1.6927    2.9457 H       1  LIG1        0.0659
     39 H           0.5999   -1.0532    3.4817 H       1  LIG1        0.0650
     40 H           0.3439   -1.2520    0.7307 H       1  LIG1        0.0356
     41 H           0.9769    1.0809    0.2690 H       1  LIG1        0.0356
     42 H           3.6407    0.5557   -0.2663 H       1  LIG1        0.0650
     43 H           1.6345    1.6252   -2.0052 H       1  LIG1        0.0659
     44 H          -0.2208    2.1962   -5.9977 H       1  LIG1        0.0660
     45 H          -0.5938    0.5122   -5.6572 H       1  LIG1        0.0660
     46 H           1.0193    0.9961   -6.3418 H       1  LIG1        0.0660
     47 H           1.2659   -2.1917   -5.6005 H       1  LIG1        0.2924
     48 H           1.8921   -5.1758   -3.9201 H       1  LIG1        0.0660
     49 H           1.1246   -4.2711   -2.6071 H       1  LIG1        0.0660
     50 H           2.9240   -4.4267   -2.6961 H       1  LIG1        0.0660
     51 H           2.8581   -2.4836   -1.5660 H       1  LIG1        0.0659
     52 H           2.8323   -1.6105    2.4528 H       1  LIG1        0.0564
     53 H           2.0379   -2.7588    1.3703 H       1  LIG1        0.0564
     54 H           2.2558    2.2392    1.8695 H       1  LIG1        0.0564
     55 H           3.3089    0.8651    2.2248 H       1  LIG1        0.0564
     56 H          -0.2902    2.2661    2.2088 H       1  LIG1        0.0659
@<TRIPOS>BOND
     1     1     2    1
     2     2     3    1
     3     3     4   ar
     4     4     5    1
     5     4     6   ar
     6     6     7    1
     7     7     8    1
     8     6     9   ar
     9     9    10   ar
    10    10    11    1
    11    11    12    1
    12    12    13    1
    13    13    14    1
    14    14    15    1
    15    15    16   ar
    16    16    17   ar
    17    17    18    1
    18    18    19    1
    19    17    20   ar
    20    20    21    1
    21    20    22   ar
    22    22    23    1
    23    23    24    1
    24    22    25   ar
    25    15    25   ar
    26    14    26    1
    27    26    27    1
    28    12    27    1
    29    13    28    1
    30    28    29    1
    31    11    29    1
    32    10    30   ar
    33     3    30   ar
    34     1    31    1
    35     1    32    1
    36     1    33    1
    37     5    34    1
    38     8    35    1
    39     8    36    1
    40     8    37    1
    41     9    38    1
    42    11    39    1
    43    12    40    1
    44    13    41    1
    45    14    42    1
    46    16    43    1
    47    19    44    1
    48    19    45    1
    49    19    46    1
    50    21    47    1
    51    24    48    1
    52    24    49    1
    53    24    50    1
    54    25    51    1
    55    27    52    1
    56    27    53    1
    57    28    54    1
    58    28    55    1
    59    30    56    1
