REMARK  Name = NuBBE_162
REMARK  12 active torsions:
REMARK  status: ('A' for Active; 'I' for Inactive)
REMARK    1  A    between atoms: O_1  and  C_2
REMARK    2  A    between atoms: C_4  and  O_5
REMARK    3  A    between atoms: C_8  and  O_9
REMARK    4  A    between atoms: O_9  and  C_10
REMARK    5  A    between atoms: C_12  and  O_24
REMARK    6  A    between atoms: C_14  and  O_23
REMARK    7  A    between atoms: C_16  and  O_22
REMARK    8  A    between atoms: C_18  and  C_21
REMARK    9  A    between atoms: C_25  and  C_29
REMARK   10  A    between atoms: C_31  and  O_32
REMARK   11  A    between atoms: C_33  and  O_37
REMARK   12  A    between atoms: C_34  and  O_35
REMARK                            x       y       z     vdW  Elec       q    Type
REMARK                         _______ _______ _______ _____ _____    ______ ____
ROOT
ATOM      1  C   LIG A   1       1.869  -3.167   3.574  0.00  0.00    +0.124 A 
ATOM      2  C   LIG A   1       2.097  -3.742   2.324  0.00  0.00    +0.091 A 
ATOM      3  C   LIG A   1       1.692  -3.049   1.209  0.00  0.00    +0.135 A 
ATOM      4  C   LIG A   1       1.033  -1.810   1.319  0.00  0.00    +0.109 A 
ATOM      5  C   LIG A   1       0.355  -1.175   0.237  0.00  0.00    +0.238 A 
ATOM      6  C   LIG A   1      -0.020   0.297   0.341  0.00  0.00    +0.214 A 
ATOM      7  C   LIG A   1      -0.125   0.772   1.630  0.00  0.00    +0.181 A 
ATOM      8  O   LIG A   1       0.231  -0.027   2.728  0.00  0.00    -0.451 OA
ATOM      9  C   LIG A   1       0.858  -1.228   2.572  0.00  0.00    +0.146 A 
ATOM     10  C   LIG A   1       1.276  -1.910   3.697  0.00  0.00    +0.092 A 
ATOM     11  O   LIG A   1       0.064  -1.917  -0.725  0.00  0.00    -0.283 OA
ENDROOT
BRANCH   7  12
ATOM     12  C   LIG A   1      -0.661   2.104   2.165  0.00  0.00    +0.028 A 
ATOM     13  C   LIG A   1      -1.190   2.151   3.507  0.00  0.00    +0.061 A 
ATOM     14  C   LIG A   1      -1.720   3.324   4.063  0.00  0.00    +0.163 A 
ATOM     15  C   LIG A   1      -1.769   4.470   3.300  0.00  0.00    +0.201 A 
ATOM     16  C   LIG A   1      -1.210   4.480   2.030  0.00  0.00    +0.163 A 
ATOM     17  C   LIG A   1      -0.646   3.322   1.461  0.00  0.00    +0.061 A 
BRANCH  14  18
ATOM     18  O   LIG A   1      -2.223   3.442   5.333  0.00  0.00    -0.503 OA
ATOM     19  H   LIG A   1      -2.416   2.566   5.706  0.00  0.00    +0.292 HD
ENDBRANCH  14  18
BRANCH  16  20
ATOM     20  O   LIG A   1      -1.233   5.660   1.338  0.00  0.00    -0.503 OA
ATOM     21  H   LIG A   1      -1.676   6.287   1.951  0.00  0.00    +0.292 HD
ENDBRANCH  16  20
BRANCH  15  22
ATOM     22  O   LIG A   1      -2.403   5.588   3.777  0.00  0.00    -0.501 OA
ATOM     23  H   LIG A   1      -2.787   5.296   4.632  0.00  0.00    +0.292 HD
ENDBRANCH  15  22
ENDBRANCH   7  12
BRANCH   1  24
ATOM     24  O   LIG A   1       2.213  -3.819   4.718  0.00  0.00    -0.506 OA
ATOM     25  H   LIG A   1       2.543  -4.704   4.489  0.00  0.00    +0.292 HD
ENDBRANCH   1  24
BRANCH   3  26
ATOM     26  O   LIG A   1       1.951  -3.583  -0.037  0.00  0.00    -0.506 OA
ATOM     27  H   LIG A   1       2.025  -4.550   0.024  0.00  0.00    +0.292 HD
ENDBRANCH   3  26
BRANCH   6  28
ATOM     28  O   LIG A   1      -0.290   1.048  -0.828  0.00  0.00    -0.453 OA
BRANCH  28  29
ATOM     29  C   LIG A   1      -0.128   0.296  -2.077  0.00  0.00    +0.340 C 
ATOM     30  C   LIG A   1      -1.489  -0.279  -2.583  0.00  0.00    +0.214 C 
ATOM     31  C   LIG A   1      -1.305  -0.982  -3.952  0.00  0.00    +0.180 C 
ATOM     32  C   LIG A   1       0.183  -1.256  -4.248  0.00  0.00    +0.174 C 
ATOM     33  C   LIG A   1       0.953   0.104  -4.200  0.00  0.00    +0.150 C 
ATOM     34  O   LIG A   1       0.451   1.029  -3.186  0.00  0.00    -0.334 OA
ATOM     35  C   LIG A   1       2.462  -0.101  -4.029  0.00  0.00    +0.040 C 
BRANCH  32  36
ATOM     36  O   LIG A   1       0.351  -1.921  -5.506  0.00  0.00    -0.387 OA
ATOM     37  H   LIG A   1      -0.054  -1.378  -6.205  0.00  0.00    +0.210 HD
ENDBRANCH  32  36
BRANCH  31  38
ATOM     38  O   LIG A   1      -2.142  -2.152  -4.014  0.00  0.00    -0.386 OA
ATOM     39  H   LIG A   1      -1.585  -2.924  -4.229  0.00  0.00    +0.210 HD
ENDBRANCH  31  38
BRANCH  30  40
ATOM     40  O   LIG A   1      -2.180  -1.128  -1.653  0.00  0.00    -0.383 OA
ATOM     41  H   LIG A   1      -2.429  -1.931  -2.154  0.00  0.00    +0.210 HD
ENDBRANCH  30  40
ENDBRANCH  28  29
ENDBRANCH   6  28
TORSDOF 11
