@<TRIPOS>MOLECULE
NuBBE_631
 33 33 0 0 0
SMALL
GASTEIGER

@<TRIPOS>ATOM
      1 O          -3.7003   -2.6474   -1.2588 O.2     1  LIG1       -0.2451
      2 C          -2.4917   -2.8262   -1.2939 C.2     1  LIG1        0.3370
      3 O          -1.9438   -3.9114   -1.8859 O.3     1  LIG1       -0.4771
      4 C          -1.5187   -1.8385   -0.7655 C.ar    1  LIG1        0.0660
      5 C          -1.9243   -0.5091   -0.6913 C.ar    1  LIG1       -0.0013
      6 C          -1.0512    0.4951   -0.2343 C.ar    1  LIG1        0.1782
      7 O          -1.4717    1.8463   -0.1574 O.3     1  LIG1       -0.4221
      8 C          -2.6559    2.3253   -0.7263 C.2     1  LIG1        0.3093
      9 C          -2.9670    3.6994   -0.2332 C.3     1  LIG1        0.0336
     10 O          -3.3834    1.7419   -1.5187 O.2     1  LIG1       -0.2507
     11 C           0.2331    0.1399    0.1961 C.ar    1  LIG1        0.2158
     12 O           1.2232    1.0871    0.5720 O.3     1  LIG1       -0.4185
     13 C           0.9667    2.1585    1.4353 C.2     1  LIG1        0.3094
     14 C           2.1561    3.0832    1.4328 C.3     1  LIG1        0.0336
     15 O          -0.0374    2.3297    2.1078 O.2     1  LIG1       -0.2507
     16 C           0.6341   -1.2100    0.1302 C.ar    1  LIG1        0.1782
     17 O           1.9526   -1.5339    0.5406 O.3     1  LIG1       -0.4221
     18 C           2.6289   -2.6526    0.0436 C.2     1  LIG1        0.3093
     19 C           4.0260   -2.6798    0.5791 C.3     1  LIG1        0.0336
     20 O           2.1977   -3.4737   -0.7592 O.2     1  LIG1       -0.2507
     21 C          -0.2564   -2.2001   -0.3020 C.ar    1  LIG1       -0.0013
     22 H          -0.9755   -3.9010   -1.9888 H       1  LIG1        0.2954
     23 H          -2.9316   -0.2822   -1.0124 H       1  LIG1        0.0664
     24 H          -2.1063    4.1491    0.2637 H       1  LIG1        0.0342
     25 H          -3.8097    3.6448    0.4610 H       1  LIG1        0.0342
     26 H          -3.2329    4.3144   -1.0975 H       1  LIG1        0.0342
     27 H           1.8787    4.0349    1.8971 H       1  LIG1        0.0342
     28 H           2.4580    3.2949    0.4032 H       1  LIG1        0.0342
     29 H           2.9872    2.6453    1.9908 H       1  LIG1        0.0342
     30 H           4.3177   -3.7147    0.7784 H       1  LIG1        0.0342
     31 H           4.0944   -2.1229    1.5169 H       1  LIG1        0.0342
     32 H           4.6932   -2.2373   -0.1642 H       1  LIG1        0.0342
     33 H           0.0103   -3.2489   -0.2590 H       1  LIG1        0.0664
@<TRIPOS>BOND
     1     1     2    2
     2     2     3    1
     3     2     4    1
     4     4     5   ar
     5     5     6   ar
     6     6     7    1
     7     7     8    1
     8     8     9    1
     9     8    10    2
    10     6    11   ar
    11    11    12    1
    12    12    13    1
    13    13    14    1
    14    13    15    2
    15    11    16   ar
    16    16    17    1
    17    17    18    1
    18    18    19    1
    19    18    20    2
    20    16    21   ar
    21     4    21   ar
    22     3    22    1
    23     5    23    1
    24     9    24    1
    25     9    25    1
    26     9    26    1
    27    14    27    1
    28    14    28    1
    29    14    29    1
    30    19    30    1
    31    19    31    1
    32    19    32    1
    33    21    33    1
