REMARK  Name = NuBBE_2349
REMARK  11 active torsions:
REMARK  status: ('A' for Active; 'I' for Inactive)
REMARK    1  A    between atoms: C_1  and  O_2
REMARK    2  A    between atoms: O_2  and  C_3
REMARK    3  A    between atoms: C_4  and  O_5
REMARK    4  A    between atoms: O_5  and  C_6
REMARK    5  A    between atoms: C_7  and  O_8
REMARK    6  A    between atoms: O_8  and  C_9
REMARK    7  A    between atoms: C_11  and  C_12
REMARK    8  A    between atoms: C_17  and  O_18
REMARK    9  A    between atoms: C_19  and  O_20
REMARK   10  A    between atoms: O_20  and  C_21
REMARK   11  A    between atoms: C_24  and  C_26
REMARK                            x       y       z     vdW  Elec       q    Type
REMARK                         _______ _______ _______ _____ _____    ______ ____
ROOT
ATOM      1  C   LIG A   1      -0.881   0.254   0.519  0.00  0.00    +0.211 C 
ATOM      2  O   LIG A   1      -0.292  -0.152   1.786  0.00  0.00    -0.483 OA
ATOM      3  C   LIG A   1      -0.781  -1.409   1.987  0.00  0.00    +0.129 A 
ATOM      4  C   LIG A   1      -0.651  -2.105   3.174  0.00  0.00    +0.095 A 
ATOM      5  C   LIG A   1      -1.186  -3.386   3.205  0.00  0.00    +0.162 A 
ATOM      6  C   LIG A   1      -1.831  -3.962   2.093  0.00  0.00    +0.162 A 
ATOM      7  C   LIG A   1      -1.945  -3.229   0.906  0.00  0.00    +0.057 A 
ATOM      8  C   LIG A   1      -1.398  -1.958   0.877  0.00  0.00    +0.005 A 
ATOM      9  C   LIG A   1      -1.264  -1.024  -0.278  0.00  0.00    +0.065 C 
ATOM     10  C   LIG A   1      -0.219  -1.561  -1.258  0.00  0.00    +0.016 C 
ENDROOT
BRANCH   1  15
ATOM     11  C   LIG A   1       2.092   2.502  -0.367  0.00  0.00    +0.166 A 
ATOM     12  C   LIG A   1       1.683   3.037  -1.604  0.00  0.00    +0.203 A 
ATOM     13  C   LIG A   1       0.432   2.650  -2.145  0.00  0.00    +0.166 A 
ATOM     14  C   LIG A   1      -0.400   1.786  -1.423  0.00  0.00    +0.057 A 
ATOM     15  C   LIG A   1       0.010   1.239  -0.204  0.00  0.00    +0.000 A 
ATOM     16  C   LIG A   1       1.257   1.607   0.310  0.00  0.00    +0.057 A 
BRANCH  11  18
ATOM     17  C   LIG A   1       3.427   2.947   1.533  0.00  0.00    +0.277 C 
ATOM     18  O   LIG A   1       3.349   2.769   0.119  0.00  0.00    -0.491 OA
ENDBRANCH  11  18
BRANCH  12  19
ATOM     19  O   LIG A   1       2.405   3.922  -2.373  0.00  0.00    -0.488 OA
ATOM     20  C   LIG A   1       3.432   4.673  -1.736  0.00  0.00    +0.277 C 
ENDBRANCH  12  19
BRANCH  13  21
ATOM     21  O   LIG A   1       0.096   3.146  -3.386  0.00  0.00    -0.491 OA
ATOM     22  C   LIG A   1      -1.153   2.736  -3.937  0.00  0.00    +0.277 C 
ENDBRANCH  13  21
ENDBRANCH   1  15
BRANCH   5  23
ATOM     23  O   LIG A   1      -1.060  -4.102   4.369  0.00  0.00    -0.503 OA
ATOM     24  H   LIG A   1      -1.476  -4.963   4.179  0.00  0.00    +0.292 HD
ENDBRANCH   5  23
BRANCH   6  25
ATOM     25  O   LIG A   1      -2.281  -5.243   2.281  0.00  0.00    -0.491 OA
ATOM     26  C   LIG A   1      -2.932  -5.850   1.170  0.00  0.00    +0.277 C 
ENDBRANCH   6  25
TORSDOF 6
