REMARK  Name = NuBBE_674
REMARK  15 active torsions:
REMARK  status: ('A' for Active; 'I' for Inactive)
REMARK    1  A    between atoms: C_3  and  C_4
REMARK    2  A    between atoms: C_4  and  C_5
REMARK    3  A    between atoms: C_6  and  O_16
REMARK    4  A    between atoms: C_7  and  C_8
REMARK    5  A    between atoms: C_10  and  C_11
REMARK    6  A    between atoms: C_11  and  C_12
REMARK    7  A    between atoms: C_14  and  O_15
REMARK    8  A    between atoms: C_19  and  C_43
REMARK    9  A    between atoms: C_21  and  O_36
REMARK   10  A    between atoms: C_28  and  C_29
REMARK   11  A    between atoms: C_29  and  O_30
REMARK   12  A    between atoms: O_36  and  C_37
REMARK   13  A    between atoms: C_37  and  C_38
REMARK   14  A    between atoms: C_38  and  C_39
REMARK   15  A    between atoms: C_40  and  C_41
REMARK                            x       y       z     vdW  Elec       q    Type
REMARK                         _______ _______ _______ _____ _____    ______ ____
ROOT
ATOM      1  O   LIG A   1       2.412  -0.850   0.004  0.00  0.00    -0.288 OA
ATOM      2  C   LIG A   1       1.398  -0.183  -0.164  0.00  0.00    +0.206 C 
ATOM      3  C   LIG A   1       0.833   0.673   0.891  0.00  0.00    +0.045 C 
ATOM      4  C   LIG A   1      -0.199   1.193   0.224  0.00  0.00    +0.134 C 
ATOM      5  O   LIG A   1      -0.224   0.994  -1.153  0.00  0.00    -0.477 OA
ATOM      6  C   LIG A   1       0.445  -0.248  -1.348  0.00  0.00    +0.173 C 
ATOM      7  C   LIG A   1      -0.551  -1.430  -1.188  0.00  0.00    +0.101 C 
ATOM      8  C   LIG A   1      -2.067  -1.238  -1.593  0.00  0.00    +0.192 C 
ATOM      9  C   LIG A   1      -3.058  -1.383  -0.384  0.00  0.00    +0.111 C 
ATOM     10  C   LIG A   1      -3.363  -0.153   0.485  0.00  0.00    +0.211 C 
ATOM     11  C   LIG A   1      -2.150   0.374   1.181  0.00  0.00    +0.027 C 
ATOM     12  C   LIG A   1      -1.531   1.482   0.714  0.00  0.00    +0.019 C 
ATOM     13  O   LIG A   1      -4.305  -0.642   1.459  0.00  0.00    -0.453 OA
ATOM     14  C   LIG A   1      -5.099  -1.557   0.826  0.00  0.00    +0.336 C 
ATOM     15  O   LIG A   1      -6.072  -2.132   1.308  0.00  0.00    -0.245 OA
ATOM     16  C   LIG A   1      -4.505  -1.756  -0.524  0.00  0.00    +0.040 C 
ATOM     17  C   LIG A   1      -5.289  -2.061  -1.571  0.00  0.00    +0.020 C 
ATOM     18  C   LIG A   1       1.168  -0.204  -2.682  0.00  0.00    +0.064 C 
ENDROOT
BRANCH   3  19
ATOM     19  C   LIG A   1       1.158   0.488   2.328  0.00  0.00    +0.085 C 
BRANCH  19  20
ATOM     20  C   LIG A   1       2.370   1.294   2.735  0.00  0.00    +0.041 A 
ATOM     21  C   LIG A   1       3.671   0.771   2.654  0.00  0.00    +0.127 A 
ATOM     22  C   LIG A   1       4.791   1.551   2.965  0.00  0.00    -0.008 A 
ATOM     23  C   LIG A   1       6.195   1.022   2.855  0.00  0.00    +0.048 C 
ATOM     24  C   LIG A   1       4.604   2.881   3.378  0.00  0.00    +0.021 A 
ATOM     25  C   LIG A   1       3.320   3.425   3.495  0.00  0.00    +0.059 A 
ATOM     26  C   LIG A   1       2.212   2.625   3.163  0.00  0.00    +0.134 A 
BRANCH  25  27
ATOM     27  C   LIG A   1       3.113   4.834   3.950  0.00  0.00    +0.164 C 
ATOM     28  C   LIG A   1       4.297   5.700   4.287  0.00  0.00    +0.091 C 
ATOM     29  O   LIG A   1       1.964   5.276   4.016  0.00  0.00    -0.292 OA
ENDBRANCH  25  27
BRANCH  26  30
ATOM     30  O   LIG A   1       0.924   3.104   3.234  0.00  0.00    -0.506 OA
ATOM     31  H   LIG A   1       0.958   4.029   3.572  0.00  0.00    +0.292 HD
ENDBRANCH  26  30
BRANCH  21  32
ATOM     32  O   LIG A   1       3.888  -0.527   2.279  0.00  0.00    -0.506 OA
ATOM     33  H   LIG A   1       3.335  -0.736   1.496  0.00  0.00    +0.292 HD
ENDBRANCH  21  32
ENDBRANCH  19  20
ENDBRANCH   3  19
BRANCH  12  34
ATOM     34  C   LIG A   1      -2.246   2.661   0.084  0.00  0.00    +0.194 C 
BRANCH  34  35
ATOM     35  O   LIG A   1      -2.425   2.467  -1.315  0.00  0.00    -0.390 OA
ATOM     36  H   LIG A   1      -2.410   3.347  -1.730  0.00  0.00    +0.210 HD
ENDBRANCH  34  35
ENDBRANCH  12  34
BRANCH   8  37
ATOM     37  O   LIG A   1      -2.296  -2.403  -2.439  0.00  0.00    -0.457 OA
BRANCH  37  38
ATOM     38  C   LIG A   1      -2.016  -2.269  -3.756  0.00  0.00    +0.335 C 
ATOM     39  O   LIG A   1      -1.927  -1.206  -4.351  0.00  0.00    -0.245 OA
BRANCH  38  40
ATOM     40  C   LIG A   1      -1.600  -3.578  -4.353  0.00  0.00    +0.029 C 
ATOM     41  C   LIG A   1      -0.727  -3.419  -5.570  0.00  0.00    +0.051 C 
ATOM     42  C   LIG A   1      -1.878  -4.800  -3.853  0.00  0.00    -0.020 C 
ATOM     43  C   LIG A   1      -2.730  -5.142  -2.671  0.00  0.00    +0.035 C 
ENDBRANCH  38  40
ENDBRANCH  37  38
ENDBRANCH   8  37
TORSDOF 10
