REMARK  Name = NuBBE_2504
REMARK  7 active torsions:
REMARK  status: ('A' for Active; 'I' for Inactive)
REMARK    1  A    between atoms: C_1  and  C_2
REMARK    2  A    between atoms: C_2  and  C_3
REMARK    3  A    between atoms: C_2  and  C_4
REMARK    4  A    between atoms: C_8  and  O_9
REMARK    5  A    between atoms: C_10  and  O_11
REMARK    6  A    between atoms: C_16  and  C_17
REMARK    7  A    between atoms: C_16  and  C_18
REMARK                            x       y       z     vdW  Elec       q    Type
REMARK                         _______ _______ _______ _____ _____    ______ ____
ROOT
ATOM      1  C   LIG A   1      -2.495  -1.963  -0.382  0.00  0.00    +0.001 A 
ATOM      2  C   LIG A   1      -1.534  -1.935   0.638  0.00  0.00    +0.014 A 
ATOM      3  C   LIG A   1      -0.377  -1.164   0.492  0.00  0.00    -0.011 A 
ATOM      4  C   LIG A   1      -0.126  -0.391  -0.674  0.00  0.00    +0.012 A 
ATOM      5  C   LIG A   1      -1.092  -0.403  -1.669  0.00  0.00    +0.163 A 
ATOM      6  C   LIG A   1      -2.248  -1.192  -1.524  0.00  0.00    +0.162 A 
ATOM      7  C   LIG A   1       1.257   0.297  -0.591  0.00  0.00    +0.026 C 
ATOM      8  C   LIG A   1       1.771   1.075  -1.817  0.00  0.00    +0.014 C 
ATOM      9  C   LIG A   1       1.434   2.561  -1.742  0.00  0.00    +0.001 C 
ATOM     10  C   LIG A   1       2.086   3.255  -0.540  0.00  0.00    +0.007 C 
ATOM     11  C   LIG A   1       2.174   2.388   0.753  0.00  0.00    -0.031 C 
ATOM     12  C   LIG A   1       1.847   3.292   1.964  0.00  0.00    +0.011 C 
ATOM     13  C   LIG A   1       3.631   1.911   0.930  0.00  0.00    +0.011 C 
ATOM     14  C   LIG A   1       1.139   1.224   0.674  0.00  0.00    +0.010 C 
ATOM     15  C   LIG A   1       0.998   0.342   1.944  0.00  0.00    +0.041 C 
ATOM     16  C   LIG A   1       0.725  -1.111   1.529  0.00  0.00    +0.149 C 
ATOM     17  O   LIG A   1       1.924  -1.604   0.910  0.00  0.00    -0.371 OA
ATOM     18  C   LIG A   1       2.228  -0.898  -0.308  0.00  0.00    +0.172 C 
ENDROOT
BRANCH   1  20
ATOM     19  C   LIG A   1      -4.609  -2.351   0.938  0.00  0.00    +0.012 C 
ATOM     20  C   LIG A   1      -3.753  -2.804  -0.249  0.00  0.00    +0.017 C 
ATOM     21  C   LIG A   1      -3.421  -4.296  -0.143  0.00  0.00    +0.012 C 
ENDBRANCH   1  20
BRANCH   5  22
ATOM     22  O   LIG A   1      -1.030   0.321  -2.826  0.00  0.00    -0.503 OA
ATOM     23  H   LIG A   1      -0.610   1.168  -2.612  0.00  0.00    +0.292 HD
ENDBRANCH   5  22
BRANCH   6  24
ATOM     24  O   LIG A   1      -3.158  -1.183  -2.552  0.00  0.00    -0.503 OA
ATOM     25  H   LIG A   1      -2.738  -0.631  -3.242  0.00  0.00    +0.292 HD
ENDBRANCH   6  24
TORSDOF 3
