@<TRIPOS>MOLECULE
NuBBE_653
 25 25 0 0 0
SMALL
GASTEIGER

@<TRIPOS>ATOM
      1 O          -1.3997    0.2886    2.4892 O.3     1  LIG1       -0.3918
      2 C           0.0089    0.1939    2.2889 C.3     1  LIG1        0.0553
      3 H           0.4871    0.3238    3.2660 H       1  LIG1        0.0593
      4 C           0.3609   -1.1771    1.7150 C.3     1  LIG1       -0.0266
      5 C          -0.1831   -1.3634    0.2985 C.3     1  LIG1       -0.0479
      6 C           0.2772   -0.2415   -0.6482 C.3     1  LIG1       -0.0411
      7 H           1.3712   -0.2989   -0.7332 H       1  LIG1        0.0301
      8 C          -0.3258   -0.4653   -2.0475 C.3     1  LIG1       -0.0531
      9 C           0.1913    0.5065   -3.0985 C.3     1  LIG1       -0.0650
     10 C          -0.0868    1.1349   -0.0683 C.3     1  LIG1       -0.0479
     11 C           0.4484    1.3175    1.3539 C.3     1  LIG1       -0.0266
     12 H          -1.6585   -0.4279    3.0935 H       1  LIG1        0.2098
     13 H          -0.0497   -1.9677    2.3539 H       1  LIG1        0.0290
     14 H           1.4509   -1.2987    1.7021 H       1  LIG1        0.0290
     15 H          -1.2796   -1.3981    0.3303 H       1  LIG1        0.0269
     16 H           0.1510   -2.3348   -0.0858 H       1  LIG1        0.0269
     17 H          -0.0890   -1.4837   -2.3801 H       1  LIG1        0.0265
     18 H          -1.4195   -0.3954   -2.0022 H       1  LIG1        0.0265
     19 H           1.2850    0.4966   -3.1396 H       1  LIG1        0.0230
     20 H          -0.1405    1.5294   -2.8986 H       1  LIG1        0.0230
     21 H          -0.1871    0.2255   -4.0867 H       1  LIG1        0.0230
     22 H          -1.1767    1.2625   -0.0687 H       1  LIG1        0.0269
     23 H           0.3254    1.9337   -0.6947 H       1  LIG1        0.0269
     24 H           0.0948    2.2816    1.7381 H       1  LIG1        0.0290
     25 H           1.5441    1.3581    1.3228 H       1  LIG1        0.0290
@<TRIPOS>BOND
     1     1     2    1
     2     2     3    1
     3     2     4    1
     4     4     5    1
     5     5     6    1
     6     8     9    1
     7     6    10    1
     8    10    11    1
     9     2    11    1
    10     6     8    1
    11     6     7    1
    12     1    12    1
    13     4    13    1
    14     4    14    1
    15     5    15    1
    16     5    16    1
    17     8    17    1
    18     8    18    1
    19     9    19    1
    20     9    20    1
    21     9    21    1
    22    10    22    1
    23    10    23    1
    24    11    24    1
    25    11    25    1
