@<TRIPOS>MOLECULE
NuBBE_1570
 30 32 0 0 0
SMALL
GASTEIGER

@<TRIPOS>ATOM
      1 O          -3.3263    1.4700    0.1218 O.2     1  LIG1       -0.2671
      2 C          -2.1039    1.3662    0.1087 C.ar    1  LIG1        0.2599
      3 C          -1.4292    0.0462    0.0468 C.ar    1  LIG1        0.0814
      4 C          -0.0943   -0.0088    0.0337 C.ar    1  LIG1        0.1431
      5 O           0.6160   -1.1730    0.0398 O.3     1  LIG1       -0.4808
      6 C          -0.1569   -2.3929    0.0266 C.3     1  LIG1        0.1235
      7 C           0.0528   -2.9035    1.4623 C.3     1  LIG1       -0.0215
      8 C           0.0521   -2.8553   -1.4105 C.3     1  LIG1       -0.0215
      9 C          -1.6586   -2.3375    0.0132 C.2     1  LIG1       -0.0407
     10 C          -2.2197   -1.1565    0.0449 C.2     1  LIG1       -0.0461
     11 C           0.7520    1.1944    0.0029 C.ar    1  LIG1        0.0408
     12 C           0.0917    2.4248    0.0617 C.ar    1  LIG1        0.0527
     13 C           0.8072    3.6142    0.0213 C.ar    1  LIG1       -0.0376
     14 C           2.1913    3.5859   -0.1375 C.ar    1  LIG1       -0.0598
     15 C           2.8665    2.3685   -0.2092 C.ar    1  LIG1       -0.0610
     16 C           2.1426    1.1796   -0.1198 C.ar    1  LIG1       -0.0491
     17 N          -1.3025    2.4673    0.1418 N.ar    1  LIG1       -0.3214
     18 H          -0.4227   -2.1539    2.1394 H       1  LIG1        0.0271
     19 H           1.0825   -2.8939    1.8271 H       1  LIG1        0.0271
     20 H          -0.4580   -3.8375    1.7149 H       1  LIG1        0.0271
     21 H          -0.4197   -2.0759   -2.0584 H       1  LIG1        0.0271
     22 H          -0.4672   -3.7734   -1.6970 H       1  LIG1        0.0271
     23 H           1.0800   -2.8346   -1.7722 H       1  LIG1        0.0271
     24 H          -2.2222   -3.2736    0.0217 H       1  LIG1        0.0611
     25 H          -3.3351   -1.0578    0.0575 H       1  LIG1        0.0624
     26 H           0.2866    4.5670    0.0828 H       1  LIG1        0.0638
     27 H           2.7435    4.5177   -0.2170 H       1  LIG1        0.0618
     28 H           3.9458    2.3500   -0.3532 H       1  LIG1        0.0618
     29 H           2.6966    0.2296   -0.1603 H       1  LIG1        0.0625
     30 H          -1.7908    3.3469    0.1661 H       1  LIG1        0.1689
@<TRIPOS>BOND
     1     1     2    2
     2     2     3   ar
     3     3     4   ar
     4     4     5    1
     5     5     6    1
     6     6     7    1
     7     6     8    1
     8     6     9    1
     9     9    10    2
    10     3    10    1
    11     4    11   ar
    12    11    12   ar
    13    12    13   ar
    14    13    14   ar
    15    14    15   ar
    16    15    16   ar
    17    11    16   ar
    18    12    17   ar
    19     2    17   ar
    20     7    18    1
    21     7    19    1
    22     7    20    1
    23     8    21    1
    24     8    22    1
    25     8    23    1
    26     9    24    1
    27    10    25    1
    28    13    26    1
    29    14    27    1
    30    15    28    1
    31    16    29    1
    32    17    30    1
