@<TRIPOS>MOLECULE
NuBBE_1589
 46 50 0 0 0
SMALL
GASTEIGER

@<TRIPOS>ATOM
      1 O          -1.5937   -0.0265    2.5334 O.2     1  LIG1       -0.2869
      2 C          -0.8752   -0.2836    1.5782 C.ar    1  LIG1        0.1966
      3 C          -0.4010    0.7070    0.5837 C.ar    1  LIG1        0.1063
      4 C           0.3747    0.2368   -0.4754 C.ar    1  LIG1        0.1463
      5 O           0.7269   -1.0833   -0.6314 O.2     1  LIG1       -0.4544
      6 C           0.3201   -1.9989    0.3251 C.ar    1  LIG1        0.1393
      7 C           0.7725   -3.3890    0.0793 C.ar    1  LIG1        0.0211
      8 C           1.0582   -4.2734    1.1504 C.ar    1  LIG1       -0.0474
      9 C           1.4892   -5.5862    0.9223 C.ar    1  LIG1       -0.0155
     10 C           1.6395   -5.9919   -0.3830 C.ar    1  LIG1        0.1663
     11 O           2.0506   -7.2211   -0.7914 O.3     1  LIG1       -0.4526
     12 C           2.0171   -7.0556   -2.2239 C.3     1  LIG1        0.2332
     13 O           1.5931   -5.7399   -2.6393 O.3     1  LIG1       -0.4526
     14 C           1.3788   -5.1467   -1.4337 C.ar    1  LIG1        0.1669
     15 C           0.9491   -3.8486   -1.2383 C.ar    1  LIG1       -0.0055
     16 C          -0.4412   -1.6769    1.3785 C.ar    1  LIG1        0.0288
     17 C           0.8484    1.1129   -1.4558 C.ar    1  LIG1        0.0239
     18 C           0.5545    2.4769   -1.3837 C.ar    1  LIG1        0.1342
     19 O           0.9794    3.4052   -2.3019 O.3     1  LIG1       -0.4943
     20 C           1.7702    2.9508   -3.3925 C.3     1  LIG1        0.0788
     21 C          -0.2255    2.9629   -0.3113 C.ar    1  LIG1        0.0591
     22 C          -0.7044    2.0751    0.6686 C.ar    1  LIG1        0.1467
     23 O          -1.4352    2.4975    1.7433 O.3     1  LIG1       -0.4807
     24 C          -1.9630    3.8325    1.7875 C.3     1  LIG1        0.1235
     25 C          -3.4738    3.7325    1.5489 C.3     1  LIG1       -0.0215
     26 C          -1.6982    4.3391    3.2102 C.3     1  LIG1       -0.0215
     27 C          -1.3513    4.7854    0.7945 C.2     1  LIG1       -0.0408
     28 C          -0.5355    4.3873   -0.1847 C.2     1  LIG1       -0.0478
     29 H           0.9578   -3.9448    2.1831 H       1  LIG1        0.0626
     30 H           1.7019   -6.2592    1.7453 H       1  LIG1        0.0655
     31 H           1.3280   -7.7963   -2.6459 H       1  LIG1        0.1166
     32 H           3.0212   -7.2428   -2.6218 H       1  LIG1        0.1166
     33 H           0.7493   -3.2145   -2.0959 H       1  LIG1        0.0662
     34 H          -0.7893   -2.3852    2.1189 H       1  LIG1        0.0693
     35 H           1.4476    0.6988   -2.2602 H       1  LIG1        0.0691
     36 H           1.9956    3.8156   -4.0241 H       1  LIG1        0.0660
     37 H           1.2223    2.2272   -4.0048 H       1  LIG1        0.0660
     38 H           2.7213    2.5367   -3.0425 H       1  LIG1        0.0660
     39 H          -3.9360    3.0386    2.2608 H       1  LIG1        0.0271
     40 H          -3.6879    3.3351    0.5495 H       1  LIG1        0.0271
     41 H          -3.9687    4.7053    1.6444 H       1  LIG1        0.0271
     42 H          -2.1288    3.6571    3.9532 H       1  LIG1        0.0271
     43 H          -2.1173    5.3375    3.3767 H       1  LIG1        0.0271
     44 H          -0.6217    4.3780    3.4170 H       1  LIG1        0.0271
     45 H          -1.6047    5.8386    0.8802 H       1  LIG1        0.0611
     46 H          -0.1147    5.0939   -0.8915 H       1  LIG1        0.0624
@<TRIPOS>BOND
     1     1     2    2
     2     2     3   ar
     3     3     4   ar
     4     4     5   ar
     5     5     6   ar
     6     6     7    1
     7     7     8   ar
     8     8     9   ar
     9     9    10   ar
    10    10    11    1
    11    11    12    1
    12    12    13    1
    13    10    14   ar
    14    13    14    1
    15    14    15   ar
    16     7    15   ar
    17     6    16   ar
    18     2    16   ar
    19     4    17   ar
    20    17    18   ar
    21    18    19    1
    22    19    20    1
    23    18    21   ar
    24    21    22   ar
    25     3    22   ar
    26    22    23    1
    27    23    24    1
    28    24    25    1
    29    24    26    1
    30    24    27    1
    31    27    28    2
    32    21    28    1
    33     8    29    1
    34     9    30    1
    35    12    31    1
    36    12    32    1
    37    15    33    1
    38    16    34    1
    39    17    35    1
    40    20    36    1
    41    20    37    1
    42    20    38    1
    43    25    39    1
    44    25    40    1
    45    25    41    1
    46    26    42    1
    47    26    43    1
    48    26    44    1
    49    27    45    1
    50    28    46    1
