@<TRIPOS>MOLECULE
NuBBE_2393
 59 60 0 0 0
SMALL
GASTEIGER

@<TRIPOS>ATOM
      1 C          -1.0866    0.6387   -1.0561 C.3     1  LIG1       -0.0589
      2 C          -0.5309    0.5912    0.3844 C.3     1  LIG1       -0.0233
      3 C          -1.6069    0.9858    1.4795 C.3     1  LIG1       -0.0300
      4 H          -1.0806    0.8450    2.4390 H       1  LIG1        0.0311
      5 C          -2.7661   -0.0171    1.5111 C.3     1  LIG1       -0.0466
      6 C          -2.2367   -1.3826    1.9214 C.3     1  LIG1       -0.0237
      7 C          -1.1561   -1.9309    0.9739 C.3     1  LIG1        0.0666
      8 C           0.0217   -0.8932    0.6880 C.3     1  LIG1       -0.0067
      9 H           0.5809   -0.8128    1.6322 H       1  LIG1        0.0334
     10 C           1.0300   -1.5132   -0.3725 C.3     1  LIG1       -0.0469
     11 C           2.2791   -0.7187   -0.8245 C.3     1  LIG1       -0.0496
     12 C           3.2249   -1.4537   -1.8228 C.3     1  LIG1       -0.0338
     13 H           3.5468   -2.4009   -1.3744 H       1  LIG1        0.0303
     14 C           2.5117   -1.7329   -3.1593 C.3     1  LIG1        0.0473
     15 C           3.3908   -2.4216   -4.1833 C.2     1  LIG1        0.3049
     16 O           4.0760   -1.8367   -4.9982 O.2     1  LIG1       -0.2510
     17 O           3.3595   -3.7706   -4.0949 O.3     1  LIG1       -0.4806
     18 C           4.4911   -0.6091   -2.0785 C.3     1  LIG1       -0.0619
     19 C          -0.6505   -3.2477    1.5969 C.3     1  LIG1       -0.0358
     20 O          -1.8315   -2.2658   -0.2447 O.3     1  LIG1       -0.3886
     21 C          -2.0686    2.4955    1.5345 C.3     1  LIG1       -0.0315
     22 C          -3.0182    2.9180    0.3962 C.3     1  LIG1       -0.0595
     23 C          -2.8168    2.7685    2.8676 C.3     1  LIG1       -0.0595
     24 C          -0.8302    3.4207    1.5483 C.3     1  LIG1       -0.0476
     25 C           0.1790    3.0901    0.4676 C.3     1  LIG1       -0.0521
     26 C           0.6138    1.6324    0.5456 C.3     1  LIG1       -0.0470
     27 H          -1.9254   -0.0436   -1.2105 H       1  LIG1        0.0235
     28 H          -0.3181    0.3723   -1.7872 H       1  LIG1        0.0235
     29 H          -1.4340    1.6269   -1.3491 H       1  LIG1        0.0235
     30 H          -3.2828   -0.0772    0.5481 H       1  LIG1        0.0269
     31 H          -3.5247    0.2728    2.2449 H       1  LIG1        0.0269
     32 H          -3.0918   -2.0722    1.9566 H       1  LIG1        0.0293
     33 H          -1.8419   -1.3189    2.9439 H       1  LIG1        0.0293
     34 H           0.4582   -1.7848   -1.2632 H       1  LIG1        0.0269
     35 H           1.4080   -2.4533    0.0477 H       1  LIG1        0.0269
     36 H           2.8511   -0.4211    0.0637 H       1  LIG1        0.0268
     37 H           1.9648    0.1810   -1.3525 H       1  LIG1        0.0268
     38 H           2.1584   -0.7979   -3.6132 H       1  LIG1        0.0380
     39 H           1.6180   -2.3465   -3.0112 H       1  LIG1        0.0380
     40 H           2.7664   -4.1149   -3.4028 H       1  LIG1        0.2951
     41 H           4.9824   -0.3187   -1.1448 H       1  LIG1        0.0233
     42 H           4.2627    0.3040   -2.6412 H       1  LIG1        0.0233
     43 H           5.2275   -1.1767   -2.6599 H       1  LIG1        0.0233
     44 H          -0.0132   -3.0617    2.4669 H       1  LIG1        0.0257
     45 H          -0.1044   -3.8646    0.8772 H       1  LIG1        0.0257
     46 H          -1.4952   -3.8668    1.9283 H       1  LIG1        0.0257
     47 H          -1.3327   -2.9617   -0.7017 H       1  LIG1        0.2102
     48 H          -3.7713    2.1551    0.1818 H       1  LIG1        0.0235
     49 H          -2.4922    3.1493   -0.5314 H       1  LIG1        0.0235
     50 H          -3.5579    3.8359    0.6607 H       1  LIG1        0.0235
     51 H          -3.8102    2.3107    2.8854 H       1  LIG1        0.0235
     52 H          -2.9589    3.8451    3.0241 H       1  LIG1        0.0235
     53 H          -2.2503    2.3898    3.7260 H       1  LIG1        0.0235
     54 H          -0.3226    3.3402    2.5194 H       1  LIG1        0.0271
     55 H          -1.1325    4.4711    1.4493 H       1  LIG1        0.0271
     56 H           1.0626    3.7263    0.5992 H       1  LIG1        0.0266
     57 H          -0.2152    3.3264   -0.5259 H       1  LIG1        0.0266
     58 H           1.1133    1.4675    1.5095 H       1  LIG1        0.0271
     59 H           1.3767    1.5278   -0.2151 H       1  LIG1        0.0271
@<TRIPOS>BOND
     1     1     2    1
     2     2     3    1
     3     3     4    1
     4     3     5    1
     5     5     6    1
     6     6     7    1
     7     7     8    1
     8     8     9    1
     9     2     8    1
    10     8    10    1
    11    10    11    1
    12    11    12    1
    13    12    13    1
    14    12    14    1
    15    14    15    1
    16    15    16    2
    17    15    17    1
    18    12    18    1
    19     7    19    1
    20     7    20    1
    21     3    21    1
    22    21    22    1
    23    21    23    1
    24    21    24    1
    25    24    25    1
    26    25    26    1
    27     2    26    1
    28     1    27    1
    29     1    28    1
    30     1    29    1
    31     5    30    1
    32     5    31    1
    33     6    32    1
    34     6    33    1
    35    10    34    1
    36    10    35    1
    37    11    36    1
    38    11    37    1
    39    14    38    1
    40    14    39    1
    41    17    40    1
    42    18    41    1
    43    18    42    1
    44    18    43    1
    45    19    44    1
    46    19    45    1
    47    19    46    1
    48    20    47    1
    49    22    48    1
    50    22    49    1
    51    22    50    1
    52    23    51    1
    53    23    52    1
    54    23    53    1
    55    24    54    1
    56    24    55    1
    57    25    56    1
    58    25    57    1
    59    26    58    1
    60    26    59    1
