@<TRIPOS>MOLECULE
NuBBE_2016
 53 56 0 0 0
SMALL
GASTEIGER

@<TRIPOS>ATOM
      1 O          -2.6276    0.5496    1.1232 O.2     1  LIG1       -0.2914
      2 C          -1.5283    0.0141    1.0628 C.2     1  LIG1        0.1964
      3 C          -1.3988   -1.5328    1.0787 C.3     1  LIG1        0.1197
      4 H          -1.6731   -1.8433    2.0953 H       1  LIG1        0.0676
      5 O          -2.2220   -2.2380    0.1541 O.3     1  LIG1       -0.3722
      6 C          -3.6215   -2.0736    0.3417 C.3     1  LIG1        0.0374
      7 C           0.0359   -2.0291    0.8263 C.3     1  LIG1       -0.0109
      8 C           1.1959   -1.0810    1.2746 C.3     1  LIG1        0.0092
      9 C           2.3144   -1.8916    1.9818 C.3     1  LIG1       -0.0265
     10 C           1.8671   -2.6075    3.2387 C.2     1  LIG1       -0.0905
     11 C           2.4149   -2.4391    4.4487 C.2     1  LIG1       -0.1026
     12 C           1.6689   -0.3023   -0.0126 C.3     1  LIG1       -0.0254
     13 H           1.6395   -0.9642   -0.8868 H       1  LIG1        0.0311
     14 C           3.1065    0.2420    0.0208 C.3     1  LIG1       -0.0612
     15 C           0.6479    0.8778   -0.1633 C.3     1  LIG1        0.0260
     16 H           1.2305    1.8091   -0.1012 H       1  LIG1        0.0385
     17 C          -0.0454    0.9281   -1.5316 C.ar    1  LIG1       -0.0371
     18 C          -0.8224   -0.1377   -2.0410 C.ar    1  LIG1       -0.0545
     19 C          -1.4448   -0.0889   -3.2945 C.ar    1  LIG1       -0.0159
     20 C          -1.2544    1.0328   -4.0571 C.ar    1  LIG1        0.1662
     21 O          -1.7584    1.2396   -5.3007 O.3     1  LIG1       -0.4526
     22 C          -1.1906    2.5278   -5.6061 C.3     1  LIG1        0.2332
     23 O          -0.4073    3.0808   -4.5240 O.3     1  LIG1       -0.4526
     24 C          -0.4872    2.0771   -3.6071 C.ar    1  LIG1        0.1665
     25 C           0.1212    2.0575   -2.3608 C.ar    1  LIG1       -0.0126
     26 C          -0.2297    0.8413    1.1337 C.3     1  LIG1        0.1622
     27 C           0.6387    0.0565    2.1476 C.3     1  LIG1        0.0979
     28 H           0.0612   -0.3137    3.0035 H       1  LIG1        0.0632
     29 O           1.6722    0.8784    2.6856 O.3     1  LIG1       -0.3879
     30 O          -0.4418    2.1363    1.7220 O.3     1  LIG1       -0.3657
     31 C          -1.0769    3.0925    0.8807 C.3     1  LIG1        0.0379
     32 H          -4.1337   -2.6978   -0.3959 H       1  LIG1        0.0524
     33 H          -3.9382   -1.0465    0.1539 H       1  LIG1        0.0524
     34 H          -3.9191   -2.3954    1.3431 H       1  LIG1        0.0524
     35 H           0.1655   -2.2993   -0.2296 H       1  LIG1        0.0301
     36 H           0.1150   -3.0141    1.2985 H       1  LIG1        0.0301
     37 H           2.7002   -2.6488    1.2869 H       1  LIG1        0.0314
     38 H           3.1626   -1.2420    2.2289 H       1  LIG1        0.0314
     39 H           1.0603   -3.3316    3.1571 H       1  LIG1        0.0566
     40 H           3.2426   -1.7573    4.6159 H       1  LIG1        0.0532
     41 H           2.0428   -2.9949    5.3052 H       1  LIG1        0.0532
     42 H           3.3222    0.7991   -0.8982 H       1  LIG1        0.0233
     43 H           3.8357   -0.5713    0.0830 H       1  LIG1        0.0233
     44 H           3.2831    0.9224    0.8583 H       1  LIG1        0.0233
     45 H          -0.9583   -1.0566   -1.4926 H       1  LIG1        0.0622
     46 H          -2.0446   -0.9176   -3.6550 H       1  LIG1        0.0655
     47 H          -2.0052    3.2210   -5.8452 H       1  LIG1        0.1166
     48 H          -0.5494    2.4231   -6.4896 H       1  LIG1        0.1166
     49 H           0.7250    2.9060   -2.0542 H       1  LIG1        0.0658
     50 H           1.2273    1.7030    2.9699 H       1  LIG1        0.2099
     51 H          -1.5173    3.8633    1.5192 H       1  LIG1        0.0524
     52 H          -1.8693    2.6622    0.2646 H       1  LIG1        0.0524
     53 H          -0.3320    3.5747    0.2428 H       1  LIG1        0.0524
@<TRIPOS>BOND
     1     2     3    1
     2     5     6    1
     3     3     7    1
     4     7     8    1
     5     9    10    1
     6    10    11    2
     7     8    12    1
     8    12    15    1
     9    17    18   ar
    10    18    19   ar
    11    19    20   ar
    12    20    21    1
    13    21    22    1
    14    22    23    1
    15    20    24   ar
    16    23    24    1
    17    24    25   ar
    18    17    25   ar
    19    15    26    1
    20    26    27    1
    21     8    27    1
    22     2    26    1
    23    30    31    1
    24     1     2    2
    25     3     4    1
    26     3     5    1
    27     8     9    1
    28    12    13    1
    29    12    14    1
    30    15    16    1
    31    15    17    1
    32    26    30    1
    33    27    28    1
    34    27    29    1
    35     6    32    1
    36     6    33    1
    37     6    34    1
    38     7    35    1
    39     7    36    1
    40     9    37    1
    41     9    38    1
    42    10    39    1
    43    11    40    1
    44    11    41    1
    45    14    42    1
    46    14    43    1
    47    14    44    1
    48    18    45    1
    49    19    46    1
    50    22    47    1
    51    22    48    1
    52    25    49    1
    53    29    50    1
    54    31    51    1
    55    31    52    1
    56    31    53    1
