REMARK  Name = NuBBE_174
REMARK  24 active torsions:
REMARK  status: ('A' for Active; 'I' for Inactive)
REMARK    1  A    between atoms: C_1  and  C_2
REMARK    2  A    between atoms: C_4  and  O_6
REMARK    3  A    between atoms: O_6  and  C_7
REMARK    4  A    between atoms: C_7  and  O_8
REMARK    5  A    between atoms: O_8  and  C_9
REMARK    6  A    between atoms: C_9  and  C_10
REMARK    7  A    between atoms: C_9  and  C_11
REMARK    8  A    between atoms: C_9  and  C_12
REMARK    9  A    between atoms: C_16  and  C_18
REMARK   10  A    between atoms: C_18  and  C_19
REMARK   11  A    between atoms: C_19  and  C_20
REMARK   12  A    between atoms: C_20  and  C_21
REMARK   13  A    between atoms: C_21  and  C_22
REMARK   14  A    between atoms: C_22  and  C_23
REMARK   15  A    between atoms: C_23  and  C_24
REMARK   16  A    between atoms: C_24  and  C_25
REMARK   17  A    between atoms: C_25  and  C_26
REMARK   18  A    between atoms: C_26  and  C_27
REMARK   19  A    between atoms: C_27  and  C_28
REMARK   20  A    between atoms: C_28  and  C_29
REMARK   21  A    between atoms: C_29  and  C_30
REMARK   22  A    between atoms: C_30  and  C_31
REMARK   23  A    between atoms: N_33  and  S_34
REMARK   24  A    between atoms: S_34  and  C_36
REMARK                            x       y       z     vdW  Elec       q    Type
REMARK                         _______ _______ _______ _____ _____    ______ ____
ROOT
ATOM      1  C   LIG A   1       0.256  -4.259   3.753  0.00  0.00    +0.029 C 
ATOM      2  C   LIG A   1       0.050  -3.240   2.638  0.00  0.00    +0.117 C 
ATOM      3  C   LIG A   1       1.407  -2.843   2.025  0.00  0.00    +0.198 C 
ATOM      4  C   LIG A   1       1.136  -2.099   0.702  0.00  0.00    +0.048 C 
ATOM      5  C   LIG A   1      -0.372  -1.954   0.367  0.00  0.00    +0.024 C 
ATOM      6  C   LIG A   1      -1.176  -1.288   1.514  0.00  0.00    +0.080 C 
ATOM      7  N   LIG A   1      -0.696  -1.932   2.860  0.00  0.00    -0.172 NA
ENDROOT
BRANCH   7   8
ATOM      8  S   LIG A   1      -1.516  -1.658   4.310  0.00  0.00    +0.030 S 
ATOM      9  O   LIG A   1      -0.945  -2.482   5.383  0.00  0.00    -0.158 OA
ATOM     10  C   LIG A   1      -1.020  -0.011   4.717  0.00  0.00    +0.214 C 
ATOM     11  O   LIG A   1      -2.933  -1.679   4.063  0.00  0.00    -0.158 OA
ENDBRANCH   7   8
BRANCH   6  12
ATOM     12  C   LIG A   1      -0.979   0.259   1.364  0.00  0.00    +0.020 C 
BRANCH  12  13
ATOM     13  C   LIG A   1      -1.574   0.949   0.097  0.00  0.00    +0.002 C 
BRANCH  13  14
ATOM     14  C   LIG A   1      -1.315   2.479   0.098  0.00  0.00    +0.000 C 
BRANCH  14  15
ATOM     15  C   LIG A   1      -1.679   3.181  -1.223  0.00  0.00    -0.000 C 
BRANCH  15  16
ATOM     16  C   LIG A   1      -3.169   3.029  -1.567  0.00  0.00    -0.000 C 
BRANCH  16  17
ATOM     17  C   LIG A   1      -3.614   3.710  -2.852  0.00  0.00    -0.000 C 
BRANCH  17  18
ATOM     18  C   LIG A   1      -2.865   3.229  -4.077  0.00  0.00    -0.000 C 
BRANCH  18  19
ATOM     19  C   LIG A   1      -2.950   1.722  -4.433  0.00  0.00    -0.000 C 
BRANCH  19  20
ATOM     20  C   LIG A   1      -2.198   1.147  -5.670  0.00  0.00    +0.000 C 
BRANCH  20  21
ATOM     21  C   LIG A   1      -2.445   1.841  -7.007  0.00  0.00    +0.000 C 
BRANCH  21  22
ATOM     22  C   LIG A   1      -2.137   3.336  -7.136  0.00  0.00    +0.007 C 
BRANCH  22  23
ATOM     23  C   LIG A   1      -0.690   3.802  -6.850  0.00  0.00    +0.074 C 
BRANCH  23  24
ATOM     24  C   LIG A   1       0.060   3.469  -5.550  0.00  0.00    +0.130 C 
ATOM     25  C   LIG A   1       1.336   4.061  -5.229  0.00  0.00    +0.086 C 
ATOM     26  O   LIG A   1      -0.293   2.593  -4.686  0.00  0.00    -0.298 OA
ENDBRANCH  23  24
ENDBRANCH  22  23
ENDBRANCH  21  22
ENDBRANCH  20  21
ENDBRANCH  19  20
ENDBRANCH  18  19
ENDBRANCH  17  18
ENDBRANCH  16  17
ENDBRANCH  15  16
ENDBRANCH  14  15
ENDBRANCH  13  14
ENDBRANCH  12  13
ENDBRANCH   6  12
BRANCH   3  27
ATOM     27  O   LIG A   1       2.142  -2.038   3.021  0.00  0.00    -0.429 OA
BRANCH  27  28
ATOM     28  C   LIG A   1       3.368  -2.511   3.301  0.00  0.00    +0.511 C 
ATOM     29  O   LIG A   1       4.006  -3.186   2.533  0.00  0.00    -0.203 OA
BRANCH  28  30
ATOM     30  O   LIG A   1       3.789  -2.243   4.598  0.00  0.00    -0.428 OA
BRANCH  30  31
ATOM     31  C   LIG A   1       4.646  -3.234   5.249  0.00  0.00    +0.109 C 
ATOM     32  C   LIG A   1       3.850  -4.526   5.440  0.00  0.00    +0.055 C 
ATOM     33  C   LIG A   1       5.989  -3.526   4.562  0.00  0.00    +0.055 C 
ATOM     34  C   LIG A   1       4.987  -2.675   6.658  0.00  0.00    +0.055 C 
ENDBRANCH  30  31
ENDBRANCH  28  30
ENDBRANCH  27  28
ENDBRANCH   3  27
TORSDOF 18
