REMARK  Name = NuBBE_2433
REMARK  8 active torsions:
REMARK  status: ('A' for Active; 'I' for Inactive)
REMARK    1  A    between atoms: C_1  and  C_3
REMARK    2  A    between atoms: C_1  and  C_11
REMARK    3  A    between atoms: C_4  and  C_5
REMARK    4  A    between atoms: C_12  and  O_13
REMARK    5  A    between atoms: O_13  and  C_14
REMARK    6  A    between atoms: C_16  and  O_20
REMARK    7  A    between atoms: C_18  and  O_19
REMARK    8  A    between atoms: O_20  and  C_21
REMARK                            x       y       z     vdW  Elec       q    Type
REMARK                         _______ _______ _______ _____ _____    ______ ____
ROOT
ATOM      1  C   LIG A   1       0.761  -1.331  -0.375  0.00  0.00    +0.105 A 
ATOM      2  C   LIG A   1       1.484  -0.172  -0.719  0.00  0.00    +0.138 A 
ATOM      3  C   LIG A   1       2.870  -0.257  -0.940  0.00  0.00    +0.092 A 
ATOM      4  C   LIG A   1       3.540  -1.481  -0.894  0.00  0.00    +0.127 A 
ATOM      5  C   LIG A   1       2.827  -2.634  -0.586  0.00  0.00    +0.092 A 
ATOM      6  C   LIG A   1       1.456  -2.554  -0.308  0.00  0.00    +0.135 A 
ENDROOT
BRANCH   1   7
ATOM      7  C   LIG A   1      -0.725  -1.318  -0.199  0.00  0.00    +0.193 C 
ATOM      8  O   LIG A   1      -1.421  -2.222  -0.672  0.00  0.00    -0.287 OA
BRANCH   7   9
ATOM      9  C   LIG A   1      -1.360  -0.184   0.537  0.00  0.00    +0.052 C 
ATOM     10  C   LIG A   1      -2.674   0.049   0.381  0.00  0.00    +0.012 C 
BRANCH  10  11
ATOM     11  C   LIG A   1      -3.373   1.172   1.012  0.00  0.00    -0.025 A 
ATOM     12  C   LIG A   1      -3.957   1.026   2.274  0.00  0.00    +0.008 A 
ATOM     13  C   LIG A   1      -4.661   2.087   2.854  0.00  0.00    +0.001 A 
ATOM     14  C   LIG A   1      -4.784   3.299   2.176  0.00  0.00    +0.000 A 
ATOM     15  C   LIG A   1      -4.200   3.454   0.920  0.00  0.00    +0.001 A 
ATOM     16  C   LIG A   1      -3.497   2.394   0.339  0.00  0.00    +0.008 A 
ENDBRANCH  10  11
ENDBRANCH   7   9
ENDBRANCH   1   7
BRANCH   2  17
ATOM     17  O   LIG A   1       0.807   1.019  -0.806  0.00  0.00    -0.494 OA
ATOM     18  C   LIG A   1       1.331   1.978  -1.721  0.00  0.00    +0.277 C 
ENDBRANCH   2  17
BRANCH   6  19
ATOM     19  O   LIG A   1       0.811  -3.700   0.074  0.00  0.00    -0.506 OA
ATOM     20  H   LIG A   1       1.416  -4.458   0.037  0.00  0.00    +0.292 HD
ENDBRANCH   6  19
BRANCH   4  21
ATOM     21  O   LIG A   1       4.881  -1.414  -1.159  0.00  0.00    -0.495 OA
ATOM     22  C   LIG A   1       5.607  -2.638  -1.137  0.00  0.00    +0.277 C 
ENDBRANCH   4  21
TORSDOF 6
