@<TRIPOS>MOLECULE
NuBBE_1762
 50 53 0 0 0
SMALL
GASTEIGER

@<TRIPOS>ATOM
      1 C          -2.5405    0.6206   -2.2478 C.3     1  LIG1        0.0374
      2 O          -2.3331   -0.3563   -1.2320 O.3     1  LIG1       -0.3704
      3 C          -0.9783   -0.8079   -1.0454 C.3     1  LIG1        0.1348
      4 C           0.0592    0.2878   -0.6124 C.3     1  LIG1        0.0219
      5 H           0.5996    0.6006   -1.5160 H       1  LIG1        0.0381
      6 C          -0.4313    1.5839    0.0465 C.ar    1  LIG1       -0.0374
      7 C          -1.1381    1.5900    1.2708 C.ar    1  LIG1       -0.0545
      8 C          -1.5860    2.7711    1.8690 C.ar    1  LIG1       -0.0159
      9 C          -1.2988    3.9535    1.2368 C.ar    1  LIG1        0.1662
     10 O          -1.6438    5.1900    1.6800 O.3     1  LIG1       -0.4526
     11 C          -1.0810    6.0120    0.6394 C.3     1  LIG1        0.2332
     12 O          -0.4109    5.2554   -0.3930 O.3     1  LIG1       -0.4526
     13 C          -0.5952    3.9844    0.0584 C.ar    1  LIG1        0.1665
     14 C          -0.1464    2.8279   -0.5561 C.ar    1  LIG1       -0.0126
     15 C           1.0469   -0.4704    0.3310 C.3     1  LIG1       -0.0255
     16 H           1.0170   -0.0106    1.3274 H       1  LIG1        0.0311
     17 C           2.4938   -0.3188   -0.1553 C.3     1  LIG1       -0.0612
     18 C           0.5092   -1.9416    0.4724 C.3     1  LIG1        0.0129
     19 C           0.7424   -2.4904    1.9087 C.3     1  LIG1       -0.0262
     20 C           2.1854   -2.5550    2.3382 C.2     1  LIG1       -0.0905
     21 C           2.8510   -3.6763    2.6375 C.2     1  LIG1       -0.1026
     22 C           1.0818   -2.9111   -0.5803 C.3     1  LIG1        0.0172
     23 C           0.7970   -2.4488   -1.9900 C.2     1  LIG1        0.1651
     24 C          -0.4696   -1.6357   -2.2725 C.3     1  LIG1        0.1447
     25 H          -1.2505   -2.3445   -2.5760 H       1  LIG1        0.0703
     26 O          -0.1895   -0.8143   -3.4118 O.3     1  LIG1       -0.3813
     27 O           1.5306   -2.7968   -2.9299 O.2     1  LIG1       -0.2945
     28 C          -0.9953   -1.8158    0.1361 C.3     1  LIG1        0.0941
     29 H          -1.4366   -2.7745   -0.1646 H       1  LIG1        0.0629
     30 O          -1.7839   -1.3833    1.2302 O.3     1  LIG1       -0.3882
     31 H          -3.6053    0.8702   -2.2597 H       1  LIG1        0.0524
     32 H          -2.2842    0.2464   -3.2395 H       1  LIG1        0.0524
     33 H          -1.9966    1.5429   -2.0491 H       1  LIG1        0.0524
     34 H          -1.3328    0.6714    1.8085 H       1  LIG1        0.0622
     35 H          -2.1299    2.7498    2.8061 H       1  LIG1        0.0655
     36 H          -0.3626    6.7047    1.0930 H       1  LIG1        0.1166
     37 H          -1.8894    6.5941    0.1822 H       1  LIG1        0.1166
     38 H           0.4057    2.8970   -1.4885 H       1  LIG1        0.0658
     39 H           2.6215   -0.6408   -1.1923 H       1  LIG1        0.0233
     40 H           3.1961   -0.8922    0.4522 H       1  LIG1        0.0233
     41 H           2.8008    0.7308   -0.1002 H       1  LIG1        0.0233
     42 H           0.2796   -3.4812    1.9997 H       1  LIG1        0.0314
     43 H           0.2314   -1.8493    2.6387 H       1  LIG1        0.0314
     44 H           2.7110   -1.6078    2.4459 H       1  LIG1        0.0566
     45 H           2.3809   -4.6525    2.5958 H       1  LIG1        0.0532
     46 H           3.8922   -3.6313    2.9460 H       1  LIG1        0.0532
     47 H           0.6260   -3.9039   -0.4704 H       1  LIG1        0.0349
     48 H           2.1635   -3.0329   -0.4675 H       1  LIG1        0.0349
     49 H           0.3072   -1.3839   -4.0370 H       1  LIG1        0.2105
     50 H          -2.6199   -1.0563    0.8369 H       1  LIG1        0.2099
@<TRIPOS>BOND
     1     1     2    1
     2     2     3    1
     3     3     4    1
     4     4     5    1
     5     4     6    1
     6     6     7   ar
     7     7     8   ar
     8     8     9   ar
     9     9    10    1
    10    10    11    1
    11    11    12    1
    12     9    13   ar
    13    12    13    1
    14    13    14   ar
    15     6    14   ar
    16     4    15    1
    17    15    18    1
    18    18    19    1
    19    19    20    1
    20    20    21    2
    21    18    22    1
    22    22    23    1
    23    23    24    1
    24    24    25    1
    25     3    24    1
    26    24    26    1
    27    23    27    2
    28    18    28    1
    29    28    29    1
    30     3    28    1
    31    28    30    1
    32    15    17    1
    33    15    16    1
    34     1    31    1
    35     1    32    1
    36     1    33    1
    37     7    34    1
    38     8    35    1
    39    11    36    1
    40    11    37    1
    41    14    38    1
    42    17    39    1
    43    17    40    1
    44    17    41    1
    45    19    42    1
    46    19    43    1
    47    20    44    1
    48    21    45    1
    49    21    46    1
    50    22    47    1
    51    22    48    1
    52    26    49    1
    53    30    50    1
