@<TRIPOS>MOLECULE
NuBBE_269
 41 43 0 0 0
SMALL
GASTEIGER

@<TRIPOS>ATOM
      1 CL         -3.4001   -1.7478   -0.3063 Cl      1  LIG1       -0.0759
      2 C          -1.6797   -1.8911   -0.3394 C.ar    1  LIG1        0.1250
      3 C          -0.8924   -0.7511   -0.4039 C.ar    1  LIG1        0.1585
      4 O          -1.3870    0.5302   -0.4328 O.3     1  LIG1       -0.4674
      5 C           0.4842   -0.8520   -0.4386 C.ar    1  LIG1        0.1068
      6 C           0.9813    0.5075   -0.4809 C.2     1  LIG1        0.2213
      7 C          -0.2380    1.4345   -0.4146 C.3     1  LIG1        0.2313
      8 C          -0.3033    2.1956    0.9081 C.2     1  LIG1        0.1521
      9 O           0.2185    1.4945    1.9831 O.2     1  LIG1       -0.4947
     10 C           0.2198    2.1240    3.2604 C.3     1  LIG1        0.0785
     11 C          -0.8451    3.4253    0.9894 C.2     1  LIG1        0.0228
     12 C          -0.3521    2.3559   -1.6548 C.3     1  LIG1        0.0177
     13 H          -0.5521    1.7384   -2.5413 H       1  LIG1        0.0350
     14 C           0.9099    3.1811   -1.9512 C.3     1  LIG1       -0.0575
     15 C          -1.5565    3.2934   -1.4820 C.3     1  LIG1        0.0170
     16 C          -1.4707    4.0712   -0.1893 C.2     1  LIG1        0.1598
     17 O          -1.9584    5.1921   -0.0665 O.2     1  LIG1       -0.2926
     18 O           2.1555    0.8217   -0.5285 O.2     1  LIG1       -0.2870
     19 C          -1.0480   -3.1462   -0.2878 C.ar    1  LIG1        0.1454
     20 C           0.3590   -3.2255   -0.3379 C.ar    1  LIG1        0.0242
     21 C           1.1461   -2.0690   -0.4006 C.ar    1  LIG1        0.1378
     22 O           2.5057   -2.0699   -0.4898 O.3     1  LIG1       -0.4942
     23 C           3.1810   -3.1457    0.1535 C.3     1  LIG1        0.0788
     24 O          -1.8524   -4.2588   -0.2571 O.3     1  LIG1       -0.4934
     25 C          -1.3352   -5.3857    0.4442 C.3     1  LIG1        0.0789
     26 H           0.6830    1.4375    3.9748 H       1  LIG1        0.0660
     27 H          -0.8029    2.3229    3.5968 H       1  LIG1        0.0660
     28 H           0.8135    3.0437    3.2419 H       1  LIG1        0.0660
     29 H          -0.9087    4.0037    1.9015 H       1  LIG1        0.0687
     30 H           1.2808    3.7080   -1.0665 H       1  LIG1        0.0234
     31 H           0.7129    3.9291   -2.7273 H       1  LIG1        0.0234
     32 H           1.7148    2.5432   -2.3282 H       1  LIG1        0.0234
     33 H          -2.4955    2.7282   -1.4708 H       1  LIG1        0.0349
     34 H          -1.6069    4.0046   -2.3143 H       1  LIG1        0.0349
     35 H           0.8357   -4.1976   -0.3748 H       1  LIG1        0.0692
     36 H           4.2558   -2.9506    0.0920 H       1  LIG1        0.0660
     37 H           2.9952   -4.0986   -0.3513 H       1  LIG1        0.0660
     38 H           2.9070   -3.2033    1.2125 H       1  LIG1        0.0660
     39 H          -2.1390   -6.1229    0.5321 H       1  LIG1        0.0660
     40 H          -1.0167   -5.1107    1.4556 H       1  LIG1        0.0660
     41 H          -0.5192   -5.8600   -0.1092 H       1  LIG1        0.0660
@<TRIPOS>BOND
     1     1     2    1
     2     2     3   ar
     3     3     4    1
     4     3     5   ar
     5     5     6    1
     6     6     7    1
     7     7     8    1
     8     8     9    1
     9     9    10    1
    10     8    11    2
    11     4     7    1
    12     7    12    1
    13    12    15    1
    14    15    16    1
    15    11    16    1
    16    16    17    2
    17     6    18    2
    18     2    19   ar
    19    19    20   ar
    20    20    21   ar
    21     5    21   ar
    22    21    22    1
    23    22    23    1
    24    19    24    1
    25    24    25    1
    26    12    14    1
    27    12    13    1
    28    10    26    1
    29    10    27    1
    30    10    28    1
    31    11    29    1
    32    14    30    1
    33    14    31    1
    34    14    32    1
    35    15    33    1
    36    15    34    1
    37    20    35    1
    38    23    36    1
    39    23    37    1
    40    23    38    1
    41    25    39    1
    42    25    40    1
    43    25    41    1
