REMARK  Name = NuBBE_1692
REMARK  12 active torsions:
REMARK  status: ('A' for Active; 'I' for Inactive)
REMARK    1  A    between atoms: C_1  and  O_2
REMARK    2  A    between atoms: O_2  and  C_3
REMARK    3  A    between atoms: C_4  and  C_5
REMARK    4  A    between atoms: C_6  and  C_7
REMARK    5  A    between atoms: C_7  and  C_8
REMARK    6  A    between atoms: C_7  and  O_9
REMARK    7  A    between atoms: C_7  and  C_10
REMARK    8  A    between atoms: C_11  and  O_12
REMARK    9  A    between atoms: O_12  and  C_13
REMARK   10  A    between atoms: C_17  and  C_18
REMARK   11  A    between atoms: C_20  and  O_21
REMARK   12  A    between atoms: O_21  and  C_22
REMARK                            x       y       z     vdW  Elec       q    Type
REMARK                         _______ _______ _______ _____ _____    ______ ____
ROOT
ATOM      1  C   LIG A   1       1.470  -1.020  -0.018  0.00  0.00    +0.145 A 
ATOM      2  C   LIG A   1       1.067  -1.920   1.012  0.00  0.00    +0.059 A 
ATOM      3  C   LIG A   1       0.117  -1.494   1.979  0.00  0.00    +0.134 A 
ATOM      4  C   LIG A   1      -0.544  -0.266   1.805  0.00  0.00    +0.093 A 
ATOM      5  C   LIG A   1      -0.207   0.571   0.744  0.00  0.00    +0.146 A 
ATOM      6  O   LIG A   1      -0.977   1.704   0.545  0.00  0.00    -0.454 OA
ATOM      7  C   LIG A   1      -0.871   2.309  -0.704  0.00  0.00    +0.140 A 
ATOM      8  C   LIG A   1       0.184   2.175  -1.514  0.00  0.00    +0.098 A 
ATOM      9  C   LIG A   1       0.868   0.252  -0.091  0.00  0.00    +0.106 A 
ATOM     10  C   LIG A   1       1.254   1.375  -0.956  0.00  0.00    +0.197 A 
ATOM     11  O   LIG A   1       2.427   1.765  -1.115  0.00  0.00    -0.287 OA
ENDROOT
BRANCH   7  12
ATOM     12  C   LIG A   1      -1.971   3.212  -1.067  0.00  0.00    +0.025 A 
ATOM     13  C   LIG A   1      -3.090   2.710  -1.768  0.00  0.00    +0.061 A 
ATOM     14  C   LIG A   1      -4.123   3.560  -2.189  0.00  0.00    +0.166 A 
ATOM     15  C   LIG A   1      -4.015   4.901  -1.867  0.00  0.00    +0.208 A 
ATOM     16  O   LIG A   1      -4.907   5.891  -2.148  0.00  0.00    -0.449 OA
ATOM     17  C   LIG A   1      -4.252   7.044  -1.601  0.00  0.00    +0.467 C 
ATOM     18  O   LIG A   1      -3.002   6.733  -0.961  0.00  0.00    -0.452 OA
ATOM     19  C   LIG A   1      -2.927   5.390  -1.178  0.00  0.00    +0.171 A 
ATOM     20  C   LIG A   1      -1.888   4.579  -0.770  0.00  0.00    +0.061 A 
BRANCH  14  21
ATOM     21  O   LIG A   1      -5.156   2.962  -2.855  0.00  0.00    -0.491 OA
ATOM     22  C   LIG A   1      -5.869   3.796  -3.767  0.00  0.00    +0.277 C 
ENDBRANCH  14  21
ENDBRANCH   7  12
BRANCH   1  24
ATOM     23  C   LIG A   1       3.247  -0.680  -1.596  0.00  0.00    +0.277 C 
ATOM     24  O   LIG A   1       2.359  -1.558  -0.924  0.00  0.00    -0.494 OA
ENDBRANCH   1  24
BRANCH   2  25
ATOM     25  C   LIG A   1       1.638  -3.292   1.010  0.00  0.00    +0.014 C 
ATOM     26  C   LIG A   1       2.728  -3.634   1.728  0.00  0.00    +0.007 C 
BRANCH  26  27
ATOM     27  C   LIG A   1       3.290  -5.027   1.925  0.00  0.00    +0.079 C 
ATOM     28  C   LIG A   1       4.797  -4.924   2.170  0.00  0.00    +0.045 C 
ATOM     29  C   LIG A   1       3.006  -5.973   0.759  0.00  0.00    +0.045 C 
BRANCH  27  30
ATOM     30  O   LIG A   1       2.684  -5.609   3.085  0.00  0.00    -0.385 OA
ATOM     31  H   LIG A   1       3.078  -5.215   3.880  0.00  0.00    +0.211 HD
ENDBRANCH  27  30
ENDBRANCH  26  27
ENDBRANCH   2  25
BRANCH   3  32
ATOM     32  O   LIG A   1      -0.306  -2.179   3.099  0.00  0.00    -0.494 OA
ATOM     33  C   LIG A   1       0.633  -3.067   3.696  0.00  0.00    +0.277 C 
ENDBRANCH   3  32
TORSDOF 7
