@<TRIPOS>MOLECULE
NuBBE_454
 64 64 0 0 0
SMALL
GASTEIGER

@<TRIPOS>ATOM
      1 C           3.1184   -1.5790   -3.1003 C.3     1  LIG1       -0.0462
      2 C           4.5486   -1.0318   -2.9875 C.3     1  LIG1        0.0422
      3 H           5.1635   -1.8496   -3.3913 H       1  LIG1        0.0494
      4 C           4.8773    0.1981   -3.8926 C.3     1  LIG1        0.1181
      5 H           5.9246    0.1233   -4.2183 H       1  LIG1        0.0749
      6 O           3.9919    0.2299   -5.0303 O.3     1  LIG1       -0.4600
      7 C           4.3238   -0.6023   -6.0602 C.2     1  LIG1        0.3043
      8 C           3.0824   -0.9387   -6.8419 C.3     1  LIG1        0.0332
      9 O           5.4191   -1.0767   -6.2623 O.2     1  LIG1       -0.2512
     10 C           4.7405    1.5439   -3.1794 C.3     1  LIG1       -0.0128
     11 C           5.3470    1.4972   -1.7845 C.3     1  LIG1       -0.0341
     12 C           4.7092    0.3945   -0.9411 C.3     1  LIG1        0.0081
     13 H           5.2287    0.3602    0.0251 H       1  LIG1        0.0460
     14 C           3.2279    0.6543   -0.6238 C.3     1  LIG1       -0.0375
     15 C           2.9783    1.9298    0.1914 C.3     1  LIG1       -0.0516
     16 C           1.4816    2.1476    0.4385 C.3     1  LIG1       -0.0530
     17 C           0.8358    1.0199    1.2554 C.3     1  LIG1       -0.0531
     18 C          -0.6554    1.2699    1.4800 C.3     1  LIG1       -0.0531
     19 C          -1.3374    0.1390    2.2707 C.3     1  LIG1       -0.0531
     20 C          -2.8407    0.4128    2.4023 C.3     1  LIG1       -0.0531
     21 C          -3.6222   -0.6497    3.1930 C.3     1  LIG1       -0.0530
     22 C          -5.1066   -0.2476    3.2641 C.3     1  LIG1       -0.0506
     23 C          -5.9950   -1.2374    4.0345 C.3     1  LIG1       -0.0247
     24 C          -7.4655   -0.7785    4.0601 C.3     1  LIG1        0.0782
     25 O          -7.9919   -0.7009    2.7267 O.3     1  LIG1       -0.3895
     26 C          -8.3767   -1.7127    4.8695 C.3     1  LIG1        0.0701
     27 O          -9.7194   -1.2235    4.8388 O.3     1  LIG1       -0.3925
     28 N           4.9317   -0.9208   -1.5668 N.3     1  LIG1       -0.3074
     29 H           5.9280   -1.1347   -1.4959 H       1  LIG1        0.1226
     30 H           2.8730   -1.8438   -4.1298 H       1  LIG1        0.0246
     31 H           2.3558   -0.8797   -2.7582 H       1  LIG1        0.0246
     32 H           3.0148   -2.5076   -2.5278 H       1  LIG1        0.0246
     33 H           2.3255   -1.3509   -6.1678 H       1  LIG1        0.0342
     34 H           3.3199   -1.7119   -7.5763 H       1  LIG1        0.0342
     35 H           2.6892   -0.0565   -7.3460 H       1  LIG1        0.0342
     36 H           3.6898    1.8542   -3.1427 H       1  LIG1        0.0302
     37 H           5.2459    2.3197   -3.7678 H       1  LIG1        0.0302
     38 H           5.2367    2.4722   -1.3000 H       1  LIG1        0.0281
     39 H           6.4277    1.3206   -1.8537 H       1  LIG1        0.0281
     40 H           2.6318    0.7341   -1.5364 H       1  LIG1        0.0280
     41 H           2.8497   -0.2108   -0.0698 H       1  LIG1        0.0280
     42 H           3.3531    2.8070   -0.3496 H       1  LIG1        0.0266
     43 H           3.5225    1.8873    1.1419 H       1  LIG1        0.0266
     44 H           0.9773    2.2377   -0.5323 H       1  LIG1        0.0265
     45 H           1.3455    3.1068    0.9529 H       1  LIG1        0.0265
     46 H           1.3539    0.9254    2.2166 H       1  LIG1        0.0265
     47 H           0.9443    0.0657    0.7305 H       1  LIG1        0.0265
     48 H          -1.1477    1.3800    0.5055 H       1  LIG1        0.0265
     49 H          -0.7818    2.2180    2.0151 H       1  LIG1        0.0265
     50 H          -0.8791    0.0586    3.2633 H       1  LIG1        0.0265
     51 H          -1.1828   -0.8194    1.7604 H       1  LIG1        0.0265
     52 H          -3.2714    0.4790    1.3955 H       1  LIG1        0.0265
     53 H          -2.9847    1.3919    2.8756 H       1  LIG1        0.0265
     54 H          -3.2094   -0.7538    4.2036 H       1  LIG1        0.0265
     55 H          -3.5250   -1.6230    2.6977 H       1  LIG1        0.0265
     56 H          -5.4859   -0.1413    2.2407 H       1  LIG1        0.0266
     57 H          -5.1852    0.7392    3.7372 H       1  LIG1        0.0266
     58 H          -5.6251   -1.3377    5.0615 H       1  LIG1        0.0291
     59 H          -5.9237   -2.2219    3.5567 H       1  LIG1        0.0291
     60 H          -7.5368    0.2323    4.4778 H       1  LIG1        0.0616
     61 H          -7.8179   -1.5507    2.2858 H       1  LIG1        0.2099
     62 H          -8.0621   -1.7773    5.9147 H       1  LIG1        0.0583
     63 H          -8.3981   -2.7187    4.4392 H       1  LIG1        0.0583
     64 H          -9.8875   -0.9614    3.9121 H       1  LIG1        0.2095
@<TRIPOS>BOND
     1     1     2    1
     2     2     3    1
     3     2     4    1
     4     4     5    1
     5     4     6    1
     6     6     7    1
     7     7     8    1
     8     7     9    2
     9     4    10    1
    10    10    11    1
    11    11    12    1
    12    14    15    1
    13    15    16    1
    14    16    17    1
    15    17    18    1
    16    18    19    1
    17    19    20    1
    18    20    21    1
    19    21    22    1
    20    22    23    1
    21    23    24    1
    22    24    25    1
    23    24    26    1
    24    26    27    1
    25    12    28    1
    26     2    28    1
    27    28    29    1
    28    12    14    1
    29    12    13    1
    30     1    30    1
    31     1    31    1
    32     1    32    1
    33     8    33    1
    34     8    34    1
    35     8    35    1
    36    10    36    1
    37    10    37    1
    38    11    38    1
    39    11    39    1
    40    14    40    1
    41    14    41    1
    42    15    42    1
    43    15    43    1
    44    16    44    1
    45    16    45    1
    46    17    46    1
    47    17    47    1
    48    18    48    1
    49    18    49    1
    50    19    50    1
    51    19    51    1
    52    20    52    1
    53    20    53    1
    54    21    54    1
    55    21    55    1
    56    22    56    1
    57    22    57    1
    58    23    58    1
    59    23    59    1
    60    24    60    1
    61    25    61    1
    62    26    62    1
    63    26    63    1
    64    27    64    1
