REMARK  Name = NuBBE_2500
REMARK  7 active torsions:
REMARK  status: ('A' for Active; 'I' for Inactive)
REMARK    1  A    between atoms: C_1  and  C_2
REMARK    2  A    between atoms: C_2  and  C_3
REMARK    3  A    between atoms: C_4  and  C_5
REMARK    4  A    between atoms: C_10  and  O_12
REMARK    5  A    between atoms: C_16  and  C_17
REMARK    6  A    between atoms: C_16  and  C_18
REMARK    7  A    between atoms: C_23  and  C_24
REMARK                            x       y       z     vdW  Elec       q    Type
REMARK                         _______ _______ _______ _____ _____    ______ ____
ROOT
ATOM      1  C   LIG A   1      -2.554   0.741  -0.830  0.00  0.00    -0.039 A 
ATOM      2  C   LIG A   1      -3.431  -0.364  -0.952  0.00  0.00    -0.047 A 
ATOM      3  C   LIG A   1      -4.848  -0.229  -1.446  0.00  0.00    +0.044 C 
ATOM      4  C   LIG A   1      -2.973  -1.641  -0.626  0.00  0.00    +0.004 A 
ATOM      5  C   LIG A   1      -1.673  -1.838  -0.172  0.00  0.00    +0.005 A 
ATOM      6  C   LIG A   1      -0.765  -0.771  -0.035  0.00  0.00    -0.035 A 
ATOM      7  C   LIG A   1      -1.215   0.532  -0.365  0.00  0.00    -0.012 A 
ATOM      8  C   LIG A   1      -0.272   1.698  -0.160  0.00  0.00    +0.145 C 
ATOM      9  C   LIG A   1       1.174   1.290  -0.398  0.00  0.00    +0.041 C 
ATOM     10  C   LIG A   1       1.614   0.188   0.580  0.00  0.00    +0.015 C 
ATOM     11  C   LIG A   1       3.162  -0.104   0.458  0.00  0.00    +0.027 C 
ATOM     12  C   LIG A   1       3.914   0.819   1.444  0.00  0.00    +0.019 C 
ATOM     13  C   LIG A   1       3.767   0.139  -0.942  0.00  0.00    +0.019 C 
ATOM     14  C   LIG A   1       3.471  -1.561   0.805  0.00  0.00    +0.139 C 
ATOM     15  O   LIG A   1       4.392  -1.881   1.559  0.00  0.00    -0.297 OA
ATOM     16  C   LIG A   1       2.673  -2.633   0.104  0.00  0.00    +0.076 C 
ATOM     17  C   LIG A   1       1.333  -2.132  -0.416  0.00  0.00    +0.019 C 
ATOM     18  C   LIG A   1       0.664  -1.070   0.496  0.00  0.00    -0.003 C 
ATOM     19  C   LIG A   1       0.491  -1.630   1.938  0.00  0.00    +0.016 C 
ENDROOT
BRANCH   1  21
ATOM     20  C   LIG A   1      -3.637   2.868   0.026  0.00  0.00    +0.009 C 
ATOM     21  C   LIG A   1      -3.071   2.131  -1.179  0.00  0.00    +0.032 C 
ENDBRANCH   1  21
BRANCH   8  22
ATOM     22  O   LIG A   1      -0.406   2.214   1.162  0.00  0.00    -0.387 OA
ATOM     23  H   LIG A   1      -1.118   1.717   1.602  0.00  0.00    +0.210 HD
ENDBRANCH   8  22
TORSDOF 2
