@<TRIPOS>MOLECULE
NuBBE_1704
 110 115 0 0 0
SMALL
GASTEIGER

@<TRIPOS>ATOM
      1 C          -2.7215   -1.7926    0.7077 C.3     1  LIG1        0.1079
      2 O          -3.6640   -2.6148   -0.0373 O.3     1  LIG1       -0.4639
      3 C          -4.9064   -2.2173   -0.3627 C.2     1  LIG1        0.3040
      4 O          -5.5520   -1.2742    0.1597 O.2     1  LIG1       -0.2512
      5 C          -5.4197   -3.0301   -1.4873 C.3     1  LIG1        0.0332
      6 C          -1.8881   -0.8698   -0.3328 C.3     1  LIG1        0.1183
      7 C          -0.5961    0.0507    0.4567 C.3     1  LIG1        0.1293
      8 C          -1.5941    1.0320    0.4011 C.3     1  LIG1        0.1421
      9 O          -1.4290    1.1048   -1.3752 O.3     1  LIG1       -0.4581
     10 C          -0.6612    1.6219   -2.3672 C.2     1  LIG1        0.3043
     11 O           0.5058    2.0003   -2.3069 O.2     1  LIG1       -0.2512
     12 C          -1.4821    1.8338   -3.6116 C.3     1  LIG1        0.0332
     13 C          -1.8545    2.4204    0.5800 C.3     1  LIG1        0.0714
     14 C          -3.1068    2.1122   -0.4920 C.3     1  LIG1        0.1496
     15 C          -3.3402    0.2856   -0.8374 C.3     1  LIG1        0.1552
     16 O          -3.9577    0.0388   -2.1232 O.3     1  LIG1       -0.4569
     17 C          -5.2294    0.5380   -2.2832 C.2     1  LIG1        0.3043
     18 O          -5.9280    1.0242   -1.3992 O.2     1  LIG1       -0.2512
     19 C          -5.7330    0.4408   -3.6951 C.3     1  LIG1        0.0332
     20 O          -4.2981    2.7417    0.0424 O.3     1  LIG1       -0.4573
     21 C          -4.9707    3.5399   -0.8505 C.2     1  LIG1        0.3043
     22 O          -4.7909    3.5627   -2.0638 O.2     1  LIG1       -0.2512
     23 C          -5.8370    4.5355   -0.1427 C.3     1  LIG1        0.0332
     24 C          -0.2986    2.5119    0.6340 C.3     1  LIG1        0.1113
     25 O           0.2967    1.1840    0.1176 O.3     1  LIG1       -0.3583
     26 C           0.2066    3.7452   -0.1131 C.3     1  LIG1       -0.0321
     27 C           0.1770    2.6740    2.1283 C.3     1  LIG1        0.1219
     28 O           1.6056    2.4841    2.2393 O.3     1  LIG1       -0.4582
     29 C           2.0397    1.7930    3.3293 C.2     1  LIG1        0.3410
     30 O           1.3609    1.3913    4.2450 O.2     1  LIG1       -0.2449
     31 C           3.5052    1.5668    3.2100 C.ar    1  LIG1        0.0802
     32 C           4.1045    0.3431    3.5626 C.ar    1  LIG1        0.0552
     33 C           3.2870   -0.8037    4.1292 C.3     1  LIG1       -0.0089
     34 C           3.8635   -2.2293    4.2069 C.3     1  LIG1       -0.0349
     35 C           3.7223   -3.1335    2.9573 C.3     1  LIG1        0.0540
     36 C           2.3129   -3.2597    2.3227 C.2     1  LIG1        0.3103
     37 O           1.5217   -4.1364    2.6544 O.2     1  LIG1       -0.2505
     38 O           2.0062   -2.2759    1.4237 O.3     1  LIG1       -0.4569
     39 C           0.6120   -2.1157    0.9343 C.3     1  LIG1        0.1486
     40 C           0.1769   -0.7245    1.4847 C.3     1  LIG1        0.0305
     41 C          -0.4663   -0.8343    2.8602 C.3     1  LIG1       -0.0561
     42 C           0.4242   -2.2824   -0.6520 C.3     1  LIG1        0.1778
     43 C          -1.1091   -1.9777   -1.1678 C.3     1  LIG1        0.1583
     44 O          -1.2818   -1.8069   -2.5902 O.3     1  LIG1       -0.4567
     45 C          -1.5146   -2.9478   -3.3167 C.2     1  LIG1        0.3043
     46 O          -1.4580   -4.0929   -2.8858 O.2     1  LIG1       -0.2512
     47 C          -1.9044   -2.6189   -4.7302 C.3     1  LIG1        0.0332
     48 O           1.4045   -1.4795   -1.3559 O.3     1  LIG1       -0.4503
     49 C           2.6848   -1.9729   -1.3189 C.2     1  LIG1        0.3397
     50 O           3.0211   -3.0813   -0.9368 O.2     1  LIG1       -0.2449
     51 C           3.6767   -0.9351   -1.6968 C.ar    1  LIG1        0.0590
     52 C           4.9174   -0.8945   -1.0427 C.ar    1  LIG1       -0.0478
     53 C           5.8819    0.0562   -1.3749 C.ar    1  LIG1       -0.0610
     54 C           5.6390    0.9269   -2.4288 C.ar    1  LIG1       -0.0617
     55 C           4.4179    0.8765   -3.1061 C.ar    1  LIG1       -0.0610
     56 C           3.4272   -0.0353   -2.7274 C.ar    1  LIG1       -0.0478
     57 C           4.7935   -2.7821    1.9515 C.3     1  LIG1       -0.0523
     58 N           5.4583    0.1815    3.5084 N.ar    1  LIG1       -0.2591
     59 C           6.2088    1.2338    3.0970 C.ar    1  LIG1        0.0279
     60 C           5.6902    2.4664    2.7401 C.ar    1  LIG1       -0.0428
     61 C           4.3137    2.6326    2.7977 C.ar    1  LIG1       -0.0446
     62 H          -2.0736   -2.5170    1.2023 H       1  LIG1        0.0706
     63 H          -3.2260   -1.2355    1.5055 H       1  LIG1        0.0706
     64 H          -4.6099   -3.3062   -2.1734 H       1  LIG1        0.0342
     65 H          -6.1631   -2.4712   -2.0670 H       1  LIG1        0.0342
     66 H          -5.8749   -3.9130   -1.0339 H       1  LIG1        0.0342
     67 H          -2.4599    0.6104    0.9399 H       1  LIG1        0.0768
     68 H          -2.5395    1.6209   -3.4441 H       1  LIG1        0.0342
     69 H          -1.1199    1.1997   -4.4199 H       1  LIG1        0.0342
     70 H          -1.4229    2.8918   -3.8932 H       1  LIG1        0.0342
     71 H          -2.2928    2.6614    1.5563 H       1  LIG1        0.0404
     72 H          -2.9037    2.6038   -1.4462 H       1  LIG1        0.0777
     73 H          -4.0749    0.1235   -0.0531 H       1  LIG1        0.0781
     74 H          -6.0000    1.4446   -4.0444 H       1  LIG1        0.0342
     75 H          -6.6254   -0.1935   -3.7237 H       1  LIG1        0.0342
     76 H          -4.9797    0.0289   -4.3674 H       1  LIG1        0.0342
     77 H          -5.1962    5.2645    0.3616 H       1  LIG1        0.0342
     78 H          -6.5080    4.0483    0.5656 H       1  LIG1        0.0342
     79 H          -6.4421    5.0693   -0.8836 H       1  LIG1        0.0342
     80 H          -0.3995    3.9628   -0.9973 H       1  LIG1        0.0259
     81 H           1.2485    3.6252   -0.4177 H       1  LIG1        0.0259
     82 H           0.1329    4.6426    0.5144 H       1  LIG1        0.0259
     83 H          -0.3650    1.9874    2.7743 H       1  LIG1        0.0727
     84 H          -0.0561    3.6789    2.5001 H       1  LIG1        0.0727
     85 H           2.3498   -0.8623    3.5835 H       1  LIG1        0.0329
     86 H           3.0479   -0.5090    5.1595 H       1  LIG1        0.0329
     87 H           3.3472   -2.7412    5.0304 H       1  LIG1        0.0277
     88 H           4.9191   -2.1896    4.5142 H       1  LIG1        0.0277
     89 H           3.9675   -4.1538    3.2943 H       1  LIG1        0.0411
     90 H           0.0001   -2.8928    1.3976 H       1  LIG1        0.0776
     91 H           1.1148   -0.1782    1.6568 H       1  LIG1        0.0364
     92 H          -1.3520   -1.4618    2.8733 H       1  LIG1        0.0234
     93 H          -0.7654    0.1370    3.2474 H       1  LIG1        0.0234
     94 H           0.2382   -1.2657    3.5754 H       1  LIG1        0.0234
     95 H           0.6185   -3.3366   -0.9058 H       1  LIG1        0.0810
     96 H          -1.5833   -2.9382   -0.9236 H       1  LIG1        0.0782
     97 H          -2.1147   -3.5435   -5.2819 H       1  LIG1        0.0342
     98 H          -1.0841   -2.1015   -5.2301 H       1  LIG1        0.0342
     99 H          -2.8141   -2.0123   -4.7412 H       1  LIG1        0.0342
    100 H           5.1585   -1.6154   -0.2768 H       1  LIG1        0.0626
    101 H           6.8214    0.0957   -0.8281 H       1  LIG1        0.0618
    102 H           6.4046    1.6358   -2.7320 H       1  LIG1        0.0618
    103 H           4.2347    1.5505   -3.9375 H       1  LIG1        0.0618
    104 H           2.4778   -0.0532   -3.2531 H       1  LIG1        0.0626
    105 H           4.6392   -1.7561    1.6235 H       1  LIG1        0.0238
    106 H           4.7624   -3.4566    1.0916 H       1  LIG1        0.0238
    107 H           5.7966   -2.8460    2.3890 H       1  LIG1        0.0238
    108 H           7.2818    1.0595    3.0710 H       1  LIG1        0.0829
    109 H           6.3381    3.2808    2.4339 H       1  LIG1        0.0633
    110 H           3.8767    3.5958    2.5437 H       1  LIG1        0.0627
@<TRIPOS>BOND
     1     1     2    1
     2     2     3    1
     3     3     4    2
     4     3     5    1
     5     1     6    1
     6     6     7    1
     7     7     8    1
     8     8     9    1
     9     9    10    1
    10    10    11    2
    11    10    12    1
    12     8    13    1
    13    13    14    1
    14    14    15    1
    15     6    15    1
    16    15    16    1
    17    16    17    1
    18    17    18    2
    19    17    19    1
    20    14    20    1
    21    20    21    1
    22    21    22    2
    23    21    23    1
    24    13    24    1
    25    24    25    1
    26     7    25    1
    27    24    26    1
    28    24    27    1
    29    27    28    1
    30    28    29    1
    31    29    30    2
    32    29    31    1
    33    31    32   ar
    34    32    33    1
    35    33    34    1
    36    34    35    1
    37    35    36    1
    38    36    37    2
    39    36    38    1
    40    38    39    1
    41    39    40    1
    42     7    40    1
    43    40    41    1
    44    39    42    1
    45    42    43    1
    46     6    43    1
    47    43    44    1
    48    44    45    1
    49    45    46    2
    50    45    47    1
    51    42    48    1
    52    48    49    1
    53    49    50    2
    54    49    51    1
    55    51    52   ar
    56    52    53   ar
    57    53    54   ar
    58    54    55   ar
    59    55    56   ar
    60    51    56   ar
    61    35    57    1
    62    32    58   ar
    63    58    59   ar
    64    59    60   ar
    65    60    61   ar
    66    31    61   ar
    67     1    62    1
    68     1    63    1
    69     5    64    1
    70     5    65    1
    71     5    66    1
    72     8    67    1
    73    12    68    1
    74    12    69    1
    75    12    70    1
    76    13    71    1
    77    14    72    1
    78    15    73    1
    79    19    74    1
    80    19    75    1
    81    19    76    1
    82    23    77    1
    83    23    78    1
    84    23    79    1
    85    26    80    1
    86    26    81    1
    87    26    82    1
    88    27    83    1
    89    27    84    1
    90    33    85    1
    91    33    86    1
    92    34    87    1
    93    34    88    1
    94    35    89    1
    95    39    90    1
    96    40    91    1
    97    41    92    1
    98    41    93    1
    99    41    94    1
   100    42    95    1
   101    43    96    1
   102    47    97    1
   103    47    98    1
   104    47    99    1
   105    52   100    1
   106    53   101    1
   107    54   102    1
   108    55   103    1
   109    56   104    1
   110    57   105    1
   111    57   106    1
   112    57   107    1
   113    59   108    1
   114    60   109    1
   115    61   110    1
