@<TRIPOS>MOLECULE
NuBBE_1647
 40 42 0 0 0
SMALL
GASTEIGER

@<TRIPOS>ATOM
      1 C          -0.9598   -0.8015   -2.9246 C.3     1  LIG1       -0.0613
      2 C          -0.9811   -0.9091   -1.3874 C.3     1  LIG1       -0.0302
      3 H          -2.0385   -1.0485   -1.1239 H       1  LIG1        0.0310
      4 C          -0.4494    0.4140   -0.7576 C.3     1  LIG1        0.0124
      5 H          -0.6787    1.2214   -1.4716 H       1  LIG1        0.0400
      6 C           1.0697    0.4552   -0.6225 C.ar    1  LIG1       -0.0331
      7 C           1.8718   -0.6909   -0.7758 C.ar    1  LIG1       -0.0431
      8 C           1.2964   -2.0293   -1.1672 C.3     1  LIG1       -0.0245
      9 C          -0.2114   -2.1673   -0.9263 C.3     1  LIG1       -0.0365
     10 H          -0.5635   -3.0181   -1.5266 H       1  LIG1        0.0304
     11 C          -0.5002   -2.5511    0.5284 C.3     1  LIG1       -0.0618
     12 C           3.2677   -0.5812   -0.6417 C.ar    1  LIG1       -0.0548
     13 C           3.8684    0.6436   -0.3503 C.ar    1  LIG1       -0.0199
     14 C           3.0733    1.7708   -0.2061 C.ar    1  LIG1        0.1172
     15 C           1.6931    1.6877   -0.3438 C.ar    1  LIG1       -0.0162
     16 O           3.6131    2.9916    0.0713 O.3     1  LIG1       -0.5068
     17 C          -1.2343    0.7916    0.5057 C.ar    1  LIG1       -0.0395
     18 C          -0.7004    0.7021    1.8017 C.ar    1  LIG1       -0.0545
     19 C          -1.4595    1.0590    2.9206 C.ar    1  LIG1       -0.0199
     20 C          -2.7623    1.5108    2.7499 C.ar    1  LIG1        0.1169
     21 C          -3.3158    1.6123    1.4819 C.ar    1  LIG1       -0.0199
     22 C          -2.5560    1.2566    0.3660 C.ar    1  LIG1       -0.0545
     23 O          -3.5360    1.8692    3.8137 O.3     1  LIG1       -0.5068
     24 H           0.0432   -0.5971   -3.3115 H       1  LIG1        0.0233
     25 H          -1.6175    0.0080   -3.2601 H       1  LIG1        0.0233
     26 H          -1.3204   -1.7277   -3.3846 H       1  LIG1        0.0233
     27 H           1.8261   -2.8295   -0.6345 H       1  LIG1        0.0316
     28 H           1.5031   -2.1749   -2.2355 H       1  LIG1        0.0316
     29 H           0.0067   -1.8980    1.2408 H       1  LIG1        0.0233
     30 H          -0.1446   -3.5691    0.7248 H       1  LIG1        0.0233
     31 H          -1.5747   -2.5333    0.7366 H       1  LIG1        0.0233
     32 H           3.8973   -1.4591   -0.7742 H       1  LIG1        0.0622
     33 H           4.9475    0.6965   -0.2509 H       1  LIG1        0.0654
     34 H           1.0959    2.5897   -0.2254 H       1  LIG1        0.0657
     35 H           4.5774    2.8964    0.1312 H       1  LIG1        0.2921
     36 H           0.3183    0.3543    1.9602 H       1  LIG1        0.0622
     37 H          -1.0150    0.9781    3.9073 H       1  LIG1        0.0654
     38 H          -4.3342    1.9692    1.3600 H       1  LIG1        0.0654
     39 H          -3.0041    1.3459   -0.6216 H       1  LIG1        0.0622
     40 H          -3.0113    1.7616    4.6236 H       1  LIG1        0.2921
@<TRIPOS>BOND
     1     2     4    1
     2     4     5    1
     3     4     6    1
     4     6     7   ar
     5     7     8    1
     6     8     9    1
     7     2     9    1
     8     7    12   ar
     9    12    13   ar
    10    13    14   ar
    11    14    15   ar
    12     6    15   ar
    13    14    16    1
    14     4    17    1
    15    17    18   ar
    16    18    19   ar
    17    19    20   ar
    18    20    21   ar
    19    21    22   ar
    20    17    22   ar
    21    20    23    1
    22     9    11    1
    23     9    10    1
    24     2     3    1
    25     2     1    1
    26     1    24    1
    27     1    25    1
    28     1    26    1
    29     8    27    1
    30     8    28    1
    31    11    29    1
    32    11    30    1
    33    11    31    1
    34    12    32    1
    35    13    33    1
    36    15    34    1
    37    16    35    1
    38    18    36    1
    39    19    37    1
    40    21    38    1
    41    22    39    1
    42    23    40    1
