REMARK  Name = NuBBE_2182
REMARK  10 active torsions:
REMARK  status: ('A' for Active; 'I' for Inactive)
REMARK    1  A    between atoms: C_1  and  C_3
REMARK    2  A    between atoms: C_1  and  C_13
REMARK    3  A    between atoms: C_1  and  C_14
REMARK    4  A    between atoms: C_3  and  C_4
REMARK    5  A    between atoms: C_14  and  O_15
REMARK    6  A    between atoms: O_15  and  C_16
REMARK    7  A    between atoms: C_17  and  O_26
REMARK    8  A    between atoms: C_21  and  C_23
REMARK    9  A    between atoms: C_23  and  C_24
REMARK   10  A    between atoms: O_26  and  C_27
REMARK                            x       y       z     vdW  Elec       q    Type
REMARK                         _______ _______ _______ _____ _____    ______ ____
ROOT
ATOM      1  C   LIG A   1       1.269   0.222  -0.323  0.00  0.00    +0.147 C 
ATOM      2  C   LIG A   1       1.236   1.725   0.104  0.00  0.00    +0.137 C 
ATOM      3  C   LIG A   1       1.800   2.168   1.279  0.00  0.00    +0.095 C 
ATOM      4  C   LIG A   1       2.489   1.256   2.178  0.00  0.00    +0.185 C 
ATOM      5  O   LIG A   1       2.781   1.627   3.335  0.00  0.00    -0.287 OA
ATOM      6  C   LIG A   1       2.870  -0.073   1.665  0.00  0.00    +0.002 C 
ATOM      7  C   LIG A   1       2.278  -0.520   0.535  0.00  0.00    +0.023 C 
ENDROOT
BRANCH   1   8
ATOM      8  C   LIG A   1      -0.201  -0.393  -0.181  0.00  0.00    +0.034 C 
ATOM      9  C   LIG A   1      -0.233  -1.934  -0.319  0.00  0.00    +0.011 C 
BRANCH   8  10
ATOM     10  C   LIG A   1      -1.252   0.289  -1.114  0.00  0.00    +0.042 C 
BRANCH  10  11
ATOM     11  C   LIG A   1      -2.735  -0.027  -0.966  0.00  0.00    -0.043 A 
ATOM     12  C   LIG A   1      -3.257  -0.912  -0.016  0.00  0.00    +0.053 A 
ATOM     13  C   LIG A   1      -4.609  -1.178  -0.024  0.00  0.00    +0.167 A 
ATOM     14  C   LIG A   1      -5.473  -0.535  -0.872  0.00  0.00    +0.166 A 
ATOM     15  C   LIG A   1      -5.025   0.407  -1.769  0.00  0.00    +0.050 A 
ATOM     16  C   LIG A   1      -3.645   0.649  -1.823  0.00  0.00    +0.007 A 
ATOM     17  O   LIG A   1      -6.761  -0.930  -0.692  0.00  0.00    -0.453 OA
ATOM     18  C   LIG A   1      -6.601  -1.905   0.362  0.00  0.00    +0.466 C 
ATOM     19  O   LIG A   1      -5.234  -2.074   0.785  0.00  0.00    -0.453 OA
ENDBRANCH  10  11
ENDBRANCH   8  10
ENDBRANCH   1   8
BRANCH   1  20
ATOM     20  O   LIG A   1       1.785   0.172  -1.685  0.00  0.00    -0.364 OA
ATOM     21  C   LIG A   1       1.957  -1.096  -2.320  0.00  0.00    +0.195 C 
ENDBRANCH   1  20
BRANCH   2  22
ATOM     22  O   LIG A   1       0.587   2.586  -0.783  0.00  0.00    -0.496 OA
ATOM     23  C   LIG A   1       0.794   3.997  -0.724  0.00  0.00    +0.277 C 
ENDBRANCH   2  22
BRANCH   6  24
ATOM     24  C   LIG A   1       3.898  -0.894   2.401  0.00  0.00    +0.065 C 
BRANCH  24  25
ATOM     25  C   LIG A   1       5.235  -0.208   2.490  0.00  0.00    -0.030 C 
ATOM     26  C   LIG A   1       6.220  -0.337   1.590  0.00  0.00    +0.004 C 
ENDBRANCH  24  25
ENDBRANCH   6  24
TORSDOF 7
