REMARK  Name = NuBBE_271
REMARK  21 active torsions:
REMARK  status: ('A' for Active; 'I' for Inactive)
REMARK    1  A    between atoms: O_1  and  C_2
REMARK    2  A    between atoms: C_2  and  C_3
REMARK    3  A    between atoms: C_6  and  O_8
REMARK    4  A    between atoms: O_8  and  C_9
REMARK    5  A    between atoms: C_11  and  C_12
REMARK    6  A    between atoms: C_13  and  C_14
REMARK    7  A    between atoms: C_14  and  O_15
REMARK    8  A    between atoms: O_15  and  C_16
REMARK    9  A    between atoms: C_19  and  C_43
REMARK   10  A    between atoms: C_21  and  O_42
REMARK   11  A    between atoms: C_23  and  O_41
REMARK   12  A    between atoms: C_25  and  O_27
REMARK   13  A    between atoms: O_27  and  C_28
REMARK   14  A    between atoms: C_30  and  O_40
REMARK   15  A    between atoms: C_32  and  O_39
REMARK   16  A    between atoms: C_34  and  O_38
REMARK   17  A    between atoms: C_43  and  O_44
REMARK   18  A    between atoms: C_48  and  O_49
REMARK   19  A    between atoms: C_50  and  O_58
REMARK   20  A    between atoms: C_52  and  O_57
REMARK   21  A    between atoms: C_54  and  O_56
REMARK                            x       y       z     vdW  Elec       q    Type
REMARK                         _______ _______ _______ _____ _____    ______ ____
ROOT
ATOM      1  C   LIG A   1      -0.689  -3.675  -1.211  0.00  0.00    +0.334 C 
ATOM      2  O   LIG A   1      -0.691  -4.868  -1.527  0.00  0.00    -0.245 OA
ENDROOT
BRANCH   1   4
ATOM      3  C   LIG A   1      -1.798  -1.880  -0.014  0.00  0.00    +0.015 C 
ATOM      4  C   LIG A   1      -1.898  -3.003  -0.738  0.00  0.00    +0.092 C 
BRANCH   3   7
ATOM      5  C   LIG A   1      -3.780   1.043   1.213  0.00  0.00    +0.166 A 
ATOM      6  C   LIG A   1      -2.786   0.238   0.657  0.00  0.00    +0.057 A 
ATOM      7  C   LIG A   1      -2.927  -1.151   0.550  0.00  0.00    -0.021 A 
ATOM      8  C   LIG A   1      -4.062  -1.776   1.057  0.00  0.00    +0.012 A 
ATOM      9  C   LIG A   1      -5.066  -1.003   1.633  0.00  0.00    +0.050 A 
ATOM     10  C   LIG A   1      -4.929   0.393   1.698  0.00  0.00    +0.159 A 
BRANCH  10  11
ATOM     11  O   LIG A   1      -5.944   1.122   2.259  0.00  0.00    -0.503 OA
ATOM     12  H   LIG A   1      -6.609   0.504   2.605  0.00  0.00    +0.292 HD
ENDBRANCH  10  11
BRANCH   5  13
ATOM     13  O   LIG A   1      -3.696   2.416   1.318  0.00  0.00    -0.457 OA
BRANCH  13  16
ATOM     14  C   LIG A   1      -0.880   4.532   1.816  0.00  0.00    +0.179 C 
ATOM     15  O   LIG A   1      -1.538   3.253   1.835  0.00  0.00    -0.331 OA
ATOM     16  C   LIG A   1      -2.518   3.074   0.797  0.00  0.00    +0.339 C 
ATOM     17  C   LIG A   1      -2.936   4.338  -0.008  0.00  0.00    +0.214 C 
ATOM     18  C   LIG A   1      -2.810   5.668   0.748  0.00  0.00    +0.180 C 
ATOM     19  C   LIG A   1      -1.958   5.593   2.016  0.00  0.00    +0.177 C 
BRANCH  17  20
ATOM     20  O   LIG A   1      -2.053   4.411  -1.159  0.00  0.00    -0.383 OA
ATOM     21  H   LIG A   1      -2.437   5.050  -1.786  0.00  0.00    +0.210 HD
ENDBRANCH  17  20
BRANCH  18  22
ATOM     22  O   LIG A   1      -4.093   6.218   1.074  0.00  0.00    -0.386 OA
ATOM     23  H   LIG A   1      -4.538   5.602   1.686  0.00  0.00    +0.210 HD
ENDBRANCH  18  22
BRANCH  19  24
ATOM     24  O   LIG A   1      -1.431   6.889   2.300  0.00  0.00    -0.387 OA
ATOM     25  H   LIG A   1      -2.187   7.508   2.263  0.00  0.00    +0.210 HD
ENDBRANCH  19  24
BRANCH  14  26
ATOM     26  C   LIG A   1       0.184   4.570   2.920  0.00  0.00    +0.190 C 
BRANCH  26  27
ATOM     27  O   LIG A   1       1.182   3.570   2.693  0.00  0.00    -0.392 OA
ATOM     28  H   LIG A   1       0.708   2.757   2.439  0.00  0.00    +0.209 HD
ENDBRANCH  26  27
ENDBRANCH  14  26
ENDBRANCH  13  16
ENDBRANCH   5  13
ENDBRANCH   3   7
ENDBRANCH   1   4
BRANCH   1  29
ATOM     29  O   LIG A   1       0.344  -2.810  -1.300  0.00  0.00    -0.429 OA
BRANCH  29  30
ATOM     30  C   LIG A   1       1.543  -3.356  -1.839  0.00  0.00    +0.343 C 
ATOM     31  O   LIG A   1       1.332  -3.848  -3.162  0.00  0.00    -0.331 OA
ATOM     32  C   LIG A   1       0.889  -2.821  -4.048  0.00  0.00    +0.179 C 
ATOM     33  C   LIG A   1       2.055  -1.865  -4.290  0.00  0.00    +0.177 C 
ATOM     34  C   LIG A   1       2.523  -1.272  -2.952  0.00  0.00    +0.180 C 
ATOM     35  C   LIG A   1       2.675  -2.299  -1.807  0.00  0.00    +0.218 C 
BRANCH  33  36
ATOM     36  O   LIG A   1       1.710  -0.757  -5.133  0.00  0.00    -0.387 OA
ATOM     37  H   LIG A   1       1.090  -1.089  -5.818  0.00  0.00    +0.210 HD
ENDBRANCH  33  36
BRANCH  34  38
ATOM     38  O   LIG A   1       3.784  -0.611  -3.179  0.00  0.00    -0.386 OA
ATOM     39  H   LIG A   1       3.660  -0.092  -3.999  0.00  0.00    +0.210 HD
ENDBRANCH  34  38
BRANCH  35  40
ATOM     40  O   LIG A   1       2.728  -1.535  -0.579  0.00  0.00    -0.360 OA
BRANCH  40  41
ATOM     41  C   LIG A   1       2.884  -2.247   0.655  0.00  0.00    +0.176 C 
ATOM     42  C   LIG A   1       2.925  -1.185   1.768  0.00  0.00    +0.179 C 
ATOM     43  C   LIG A   1       3.228  -1.802   3.135  0.00  0.00    +0.201 C 
ATOM     44  C   LIG A   1       4.469  -2.705   3.047  0.00  0.00    +0.278 C 
ATOM     45  O   LIG A   1       4.309  -3.685   2.025  0.00  0.00    -0.346 OA
ATOM     46  C   LIG A   1       4.143  -3.113   0.729  0.00  0.00    +0.197 C 
BRANCH  44  47
ATOM     47  O   LIG A   1       5.637  -1.922   2.826  0.00  0.00    -0.365 OA
ATOM     48  H   LIG A   1       5.517  -1.134   3.392  0.00  0.00    +0.213 HD
ENDBRANCH  44  47
BRANCH  42  49
ATOM     49  O   LIG A   1       1.653  -0.507   1.843  0.00  0.00    -0.386 OA
ATOM     50  H   LIG A   1       1.475  -0.215   0.928  0.00  0.00    +0.210 HD
ENDBRANCH  42  49
BRANCH  43  51
ATOM     51  O   LIG A   1       3.452  -0.754   4.093  0.00  0.00    -0.384 OA
ATOM     52  H   LIG A   1       2.695  -0.142   3.988  0.00  0.00    +0.210 HD
ENDBRANCH  43  51
ENDBRANCH  40  41
ENDBRANCH  35  40
BRANCH  32  53
ATOM     53  C   LIG A   1       0.357  -3.481  -5.321  0.00  0.00    +0.190 C 
BRANCH  53  54
ATOM     54  O   LIG A   1      -0.096  -2.497  -6.248  0.00  0.00    -0.392 OA
ATOM     55  H   LIG A   1      -0.989  -2.223  -5.967  0.00  0.00    +0.209 HD
ENDBRANCH  53  54
ENDBRANCH  32  53
ENDBRANCH  29  30
ENDBRANCH   1  29
TORSDOF 21
