@<TRIPOS>MOLECULE
NuBBE_57
 83 86 0 0 0
SMALL
GASTEIGER

@<TRIPOS>ATOM
      1 C           1.0339    2.7582    5.4016 C.3     1  LIG1        0.0333
      2 C           1.4517    1.7820    4.3490 C.2     1  LIG1        0.3045
      3 O           0.6585    1.9197    3.2504 O.3     1  LIG1       -0.4573
      4 C           1.1719    1.3209    2.0536 C.3     1  LIG1        0.1220
      5 H           2.1261    1.7967    1.8609 H       1  LIG1        0.0779
      6 C           1.2210   -0.1692    2.1337 C.2     1  LIG1       -0.0380
      7 C           1.6029   -0.7221    0.9722 C.2     1  LIG1        0.0134
      8 C           2.9712   -0.5545    0.2785 C.3     1  LIG1        0.2315
      9 H           3.6402   -1.3427    0.6396 H       1  LIG1        0.1111
     10 O           3.4988    0.7513    0.4679 O.3     1  LIG1       -0.4311
     11 C           4.7281    0.7691    1.0460 C.2     1  LIG1        0.3063
     12 C           4.9455    2.0509    1.7967 C.3     1  LIG1        0.0333
     13 O           5.5456   -0.1360    1.0105 O.2     1  LIG1       -0.2511
     14 O           2.7051   -0.8055   -1.1054 O.3     1  LIG1       -0.2971
     15 C           1.5285   -1.6163   -1.0819 C.3     1  LIG1        0.2214
     16 H           1.1605   -1.8092   -2.0931 H       1  LIG1        0.1068
     17 O           1.8110   -2.8933   -0.4046 O.3     1  LIG1       -0.4341
     18 C           2.7677   -3.7141   -0.8890 C.2     1  LIG1        0.3061
     19 C           3.4307   -4.4976    0.2162 C.3     1  LIG1        0.0333
     20 O           3.0984   -3.7714   -2.0734 O.2     1  LIG1       -0.2511
     21 C           0.5496   -0.8146   -0.1570 C.3     1  LIG1        0.1002
     22 C          -0.7298   -1.6683    0.0779 C.3     1  LIG1        0.1191
     23 H          -0.5302   -2.3965    0.8703 H       1  LIG1        0.0745
     24 O          -1.1448   -2.3654   -1.1350 O.3     1  LIG1       -0.4567
     25 C          -1.2191   -3.7324   -1.0902 C.2     1  LIG1        0.3395
     26 C          -1.8604   -4.2804   -2.3338 C.ar    1  LIG1        0.0592
     27 C          -2.0441   -5.6696   -2.4365 C.ar    1  LIG1       -0.0443
     28 C          -2.7378   -6.2215   -3.5249 C.ar    1  LIG1       -0.0194
     29 C          -3.2436   -5.3766   -4.5060 C.ar    1  LIG1        0.1169
     30 O          -3.9671   -5.8532   -5.5588 O.3     1  LIG1       -0.5068
     31 C          -3.0376   -4.0034   -4.4362 C.ar    1  LIG1       -0.0194
     32 C          -2.3418   -3.4551   -3.3543 C.ar    1  LIG1       -0.0443
     33 O          -0.8698   -4.4294   -0.1729 O.2     1  LIG1       -0.2450
     34 C          -1.9355   -0.8418    0.5238 C.3     1  LIG1       -0.0115
     35 C          -2.3830    0.3103   -0.4091 C.3     1  LIG1       -0.0345
     36 H          -3.0008   -0.1428   -1.1961 H       1  LIG1        0.0305
     37 C          -3.3898    1.1417    0.4043 C.3     1  LIG1       -0.0618
     38 C          -1.1936    1.0853   -1.1316 C.3     1  LIG1       -0.0219
     39 C          -1.1070    0.5408   -2.5963 C.3     1  LIG1       -0.0587
     40 C          -1.4473    2.6857   -1.3275 C.3     1  LIG1       -0.0283
     41 C          -1.7083    3.6217   -0.1494 C.2     1  LIG1       -0.0806
     42 C          -1.0620    4.7172    0.3045 C.2     1  LIG1       -0.0549
     43 C           0.1369    5.3516   -0.3329 C.3     1  LIG1       -0.0400
     44 C          -1.5496    5.3182    1.5436 C.2     1  LIG1       -0.0662
     45 C          -0.8277    5.4373    2.6663 C.2     1  LIG1       -0.0985
     46 C           0.2042    0.7623   -0.4239 C.3     1  LIG1       -0.0127
     47 H           0.9946    1.1573   -1.0802 H       1  LIG1        0.0319
     48 C           0.2254    1.6405    0.8978 C.3     1  LIG1       -0.0075
     49 O           2.3968    1.0188    4.4635 O.2     1  LIG1       -0.2511
     50 H           0.9711    3.7573    4.9616 H       1  LIG1        0.0342
     51 H           1.8009    2.7839    6.1806 H       1  LIG1        0.0342
     52 H           0.0786    2.4629    5.8367 H       1  LIG1        0.0342
     53 H           0.2880   -0.5196    2.5761 H       1  LIG1        0.0610
     54 H           5.5032    2.7666    1.1936 H       1  LIG1        0.0342
     55 H           5.4814    1.8188    2.7217 H       1  LIG1        0.0342
     56 H           3.9979    2.4993    2.0990 H       1  LIG1        0.0342
     57 H           4.5124   -4.3214    0.1846 H       1  LIG1        0.0342
     58 H           3.2259   -5.5653    0.1126 H       1  LIG1        0.0342
     59 H           3.0860   -4.1706    1.2043 H       1  LIG1        0.0342
     60 H          -1.6639   -6.3362   -1.6630 H       1  LIG1        0.0627
     61 H          -2.8835   -7.2963   -3.5781 H       1  LIG1        0.0654
     62 H          -4.0943   -6.8102   -5.4503 H       1  LIG1        0.2921
     63 H          -3.4355   -3.3580   -5.2146 H       1  LIG1        0.0654
     64 H          -2.2076   -2.3773   -3.3153 H       1  LIG1        0.0627
     65 H          -1.7425   -0.4509    1.5284 H       1  LIG1        0.0304
     66 H          -2.7971   -1.5164    0.6290 H       1  LIG1        0.0304
     67 H          -4.2062    0.5190    0.7833 H       1  LIG1        0.0233
     68 H          -3.8632    1.9169   -0.2052 H       1  LIG1        0.0233
     69 H          -2.9271    1.5827    1.2941 H       1  LIG1        0.0233
     70 H          -0.6268   -0.4362   -2.6559 H       1  LIG1        0.0235
     71 H          -0.5320    1.2131   -3.2437 H       1  LIG1        0.0235
     72 H          -2.1011    0.4440   -3.0505 H       1  LIG1        0.0235
     73 H          -0.6059    3.0895   -1.9065 H       1  LIG1        0.0313
     74 H          -2.3260    2.7896   -1.9814 H       1  LIG1        0.0313
     75 H          -2.5798    3.3782    0.4418 H       1  LIG1        0.0575
     76 H          -0.1776    5.9279   -1.2088 H       1  LIG1        0.0277
     77 H           0.8758    4.6079   -0.6416 H       1  LIG1        0.0277
     78 H           0.6433    6.0471    0.3467 H       1  LIG1        0.0277
     79 H          -2.5963    5.6177    1.5586 H       1  LIG1        0.0614
     80 H           0.2026    5.1036    2.7325 H       1  LIG1        0.0535
     81 H          -1.2720    5.8578    3.5644 H       1  LIG1        0.0535
     82 H          -0.7766    1.6594    1.3301 H       1  LIG1        0.0307
     83 H           0.4745    2.6603    0.6063 H       1  LIG1        0.0307
@<TRIPOS>BOND
     1     1     2    1
     2     2     3    1
     3     4     6    1
     4     6     7    2
     5     7     8    1
     6    10    11    1
     7    11    12    1
     8    11    13    2
     9     8    14    1
    10    14    15    1
    11    17    18    1
    12    18    19    1
    13    18    20    2
    14     7    21    1
    15    15    21    1
    16    21    22    1
    17    24    25    1
    18    25    26    1
    19    26    27   ar
    20    27    28   ar
    21    28    29   ar
    22    29    30    1
    23    29    31   ar
    24    31    32   ar
    25    26    32   ar
    26    25    33    2
    27    22    34    1
    28    34    35    1
    29    35    38    1
    30    40    41    1
    31    41    42    2
    32    42    43    1
    33    42    44    1
    34    44    45    2
    35    21    46    1
    36    38    46    1
    37    46    48    1
    38     4    48    1
    39     2    49    2
    40     8     9    1
    41     8    10    1
    42    22    23    1
    43    22    24    1
    44    38    39    1
    45    38    40    1
    46    46    47    1
    47     4     5    1
    48     4     3    1
    49    15    17    1
    50    15    16    1
    51    35    37    1
    52    35    36    1
    53     1    50    1
    54     1    51    1
    55     1    52    1
    56     6    53    1
    57    12    54    1
    58    12    55    1
    59    12    56    1
    60    19    57    1
    61    19    58    1
    62    19    59    1
    63    27    60    1
    64    28    61    1
    65    30    62    1
    66    31    63    1
    67    32    64    1
    68    34    65    1
    69    34    66    1
    70    37    67    1
    71    37    68    1
    72    37    69    1
    73    39    70    1
    74    39    71    1
    75    39    72    1
    76    40    73    1
    77    40    74    1
    78    41    75    1
    79    43    76    1
    80    43    77    1
    81    43    78    1
    82    44    79    1
    83    45    80    1
    84    45    81    1
    85    48    82    1
    86    48    83    1
