REMARK  Name = NuBBE_2399
REMARK  7 active torsions:
REMARK  status: ('A' for Active; 'I' for Inactive)
REMARK    1  A    between atoms: O_1  and  C_2
REMARK    2  A    between atoms: C_6  and  C_11
REMARK    3  A    between atoms: C_18  and  O_25
REMARK    4  A    between atoms: C_19  and  C_20
REMARK    5  A    between atoms: C_20  and  C_21
REMARK    6  A    between atoms: C_22  and  C_23
REMARK    7  A    between atoms: C_22  and  C_24
REMARK                            x       y       z     vdW  Elec       q    Type
REMARK                         _______ _______ _______ _____ _____    ______ ____
ROOT
ATOM      1  C   LIG A   1      -1.592  -0.698   0.442  0.00  0.00    +0.138 A 
ATOM      2  C   LIG A   1      -0.869   0.504   0.528  0.00  0.00    +0.101 A 
ATOM      3  C   LIG A   1       0.524   0.489   0.531  0.00  0.00    +0.139 A 
ATOM      4  O   LIG A   1       1.306   1.612   0.632  0.00  0.00    -0.483 OA
ATOM      5  C   LIG A   1       0.636   2.829   0.262  0.00  0.00    +0.211 C 
ATOM      6  C   LIG A   1      -0.678   2.983   1.016  0.00  0.00    +0.129 C 
ATOM      7  C   LIG A   1      -1.549   1.804   0.694  0.00  0.00    +0.174 C 
ATOM      8  O   LIG A   1      -2.772   1.868   0.655  0.00  0.00    -0.292 OA
ATOM      9  C   LIG A   1       1.201  -0.727   0.480  0.00  0.00    +0.092 A 
ATOM     10  C   LIG A   1       0.480  -1.922   0.418  0.00  0.00    +0.127 A 
ATOM     11  C   LIG A   1      -0.924  -1.934   0.398  0.00  0.00    +0.040 A 
ENDROOT
BRANCH   5  12
ATOM     12  C   LIG A   1       1.580   3.986   0.553  0.00  0.00    -0.007 A 
ATOM     13  C   LIG A   1       2.002   4.840  -0.479  0.00  0.00    +0.007 A 
ATOM     14  C   LIG A   1       2.865   5.908  -0.213  0.00  0.00    +0.000 A 
ATOM     15  C   LIG A   1       3.318   6.136   1.084  0.00  0.00    +0.000 A 
ATOM     16  C   LIG A   1       2.910   5.298   2.118  0.00  0.00    +0.000 A 
ATOM     17  C   LIG A   1       2.049   4.230   1.855  0.00  0.00    +0.007 A 
ENDBRANCH   5  12
BRANCH   1  18
ATOM     18  O   LIG A   1      -2.965  -0.711   0.426  0.00  0.00    -0.505 OA
ATOM     19  H   LIG A   1      -3.290   0.215   0.494  0.00  0.00    +0.292 HD
ENDBRANCH   1  18
BRANCH  10  20
ATOM     20  O   LIG A   1       1.156  -3.111   0.399  0.00  0.00    -0.506 OA
ATOM     21  H   LIG A   1       2.111  -2.936   0.367  0.00  0.00    +0.292 HD
ENDBRANCH  10  20
BRANCH  11  22
ATOM     22  C   LIG A   1      -1.696  -3.238   0.333  0.00  0.00    +0.069 C 
BRANCH  22  23
ATOM     23  C   LIG A   1      -1.986  -3.677  -1.080  0.00  0.00    -0.023 C 
ATOM     24  C   LIG A   1      -1.602  -4.815  -1.694  0.00  0.00    -0.079 C 
ATOM     25  C   LIG A   1      -0.783  -5.906  -1.062  0.00  0.00    +0.038 C 
ATOM     26  C   LIG A   1      -1.976  -5.081  -3.128  0.00  0.00    +0.038 C 
ENDBRANCH  22  23
ENDBRANCH  11  22
TORSDOF 5
