REMARK  Name = NuBBE_1438
REMARK  14 active torsions:
REMARK  status: ('A' for Active; 'I' for Inactive)
REMARK    1  A    between atoms: C_1  and  C_2
REMARK    2  A    between atoms: C_2  and  C_3
REMARK    3  A    between atoms: C_4  and  O_6
REMARK    4  A    between atoms: C_18  and  C_19
REMARK    5  A    between atoms: C_20  and  C_21
REMARK    6  A    between atoms: C_24  and  C_25
REMARK    7  A    between atoms: C_25  and  C_26
REMARK    8  A    between atoms: C_25  and  C_33
REMARK    9  A    between atoms: C_26  and  C_27
REMARK   10  A    between atoms: C_27  and  C_28
REMARK   11  A    between atoms: C_28  and  C_29
REMARK   12  A    between atoms: C_28  and  C_30
REMARK   13  A    between atoms: C_30  and  C_31
REMARK   14  A    between atoms: C_30  and  C_32
REMARK                            x       y       z     vdW  Elec       q    Type
REMARK                         _______ _______ _______ _____ _____    ______ ____
ROOT
ATOM      1  C   LIG A   1       0.225   1.349  -6.062  0.00  0.00    +0.014 C 
ATOM      2  C   LIG A   1       1.725   1.295  -5.669  0.00  0.00    -0.006 C 
ATOM      3  C   LIG A   1       2.454   0.445  -6.739  0.00  0.00    +0.014 C 
ATOM      4  C   LIG A   1       2.322   2.728  -5.700  0.00  0.00    +0.120 C 
ATOM      5  C   LIG A   1       1.701   3.603  -4.625  0.00  0.00    +0.032 C 
ATOM      6  C   LIG A   1       2.060   3.049  -3.270  0.00  0.00    +0.010 C 
ATOM      7  C   LIG A   1       1.649   1.593  -3.059  0.00  0.00    -0.019 C 
ATOM      8  C   LIG A   1       2.103   1.170  -1.673  0.00  0.00    +0.015 C 
ATOM      9  C   LIG A   1       1.949   0.637  -4.240  0.00  0.00    +0.004 C 
ATOM     10  C   LIG A   1       1.241  -0.746  -4.159  0.00  0.00    +0.005 C 
ATOM     11  C   LIG A   1       0.825  -1.233  -2.781  0.00  0.00    +0.005 C 
ATOM     12  C   LIG A   1      -0.054  -0.192  -2.068  0.00  0.00    +0.002 C 
ATOM     13  C   LIG A   1       0.627   1.166  -1.981  0.00  0.00    -0.019 C 
ATOM     14  C   LIG A   1      -0.270   2.262  -1.425  0.00  0.00    +0.008 C 
ATOM     15  C   LIG A   1      -1.417   1.726  -0.566  0.00  0.00    +0.008 C 
ATOM     16  C   LIG A   1      -1.002   0.507   0.317  0.00  0.00    -0.023 C 
ATOM     17  C   LIG A   1       0.131   0.995   1.242  0.00  0.00    +0.012 C 
ATOM     18  C   LIG A   1      -0.617  -0.674  -0.666  0.00  0.00    -0.023 C 
ATOM     19  C   LIG A   1       0.312  -1.699   0.016  0.00  0.00    +0.012 C 
ATOM     20  C   LIG A   1      -1.995  -1.345  -0.920  0.00  0.00    +0.008 C 
ATOM     21  C   LIG A   1      -2.738  -1.291   0.403  0.00  0.00    +0.005 C 
ATOM     22  C   LIG A   1      -2.284   0.002   1.101  0.00  0.00    -0.002 C 
ENDROOT
BRANCH   4  23
ATOM     23  O   LIG A   1       2.107   3.380  -6.949  0.00  0.00    -0.391 OA
ATOM     24  H   LIG A   1       2.712   2.975  -7.603  0.00  0.00    +0.210 HD
ENDBRANCH   4  23
BRANCH  22  25
ATOM     25  C   LIG A   1      -2.291  -0.098   2.667  0.00  0.00    -0.010 C 
ATOM     26  C   LIG A   1      -3.751  -0.233   3.146  0.00  0.00    +0.008 C 
BRANCH  25  27
ATOM     27  C   LIG A   1      -1.436  -1.230   3.302  0.00  0.00    +0.004 C 
BRANCH  27  28
ATOM     28  C   LIG A   1      -1.375  -1.149   4.839  0.00  0.00    +0.004 C 
BRANCH  28  29
ATOM     29  C   LIG A   1      -0.519  -2.244   5.523  0.00  0.00    -0.011 C 
ATOM     30  C   LIG A   1       0.951  -2.180   5.093  0.00  0.00    +0.007 C 
BRANCH  29  31
ATOM     31  C   LIG A   1      -0.711  -2.197   7.073  0.00  0.00    -0.014 C 
ATOM     32  C   LIG A   1       0.109  -3.266   7.802  0.00  0.00    +0.007 C 
ATOM     33  C   LIG A   1      -0.428  -0.826   7.698  0.00  0.00    +0.007 C 
ENDBRANCH  29  31
ENDBRANCH  28  29
ENDBRANCH  27  28
ENDBRANCH  25  27
ENDBRANCH  22  25
TORSDOF 6
