@<TRIPOS>MOLECULE
NuBBE_205
 48 50 0 0 0
SMALL
GASTEIGER

@<TRIPOS>ATOM
      1 O           3.9155   -2.7805   -2.2592 O.3     1  LIG1       -0.4773
      2 C           3.6425   -1.4801   -2.4610 C.2     1  LIG1        0.3360
      3 C           2.2494   -1.1209   -2.1423 C.2     1  LIG1        0.0747
      4 C           1.6668    0.1525   -2.7132 C.3     1  LIG1        0.0095
      5 H           2.2767    1.0002   -2.3750 H       1  LIG1        0.0363
      6 C           0.1887    0.3520   -2.2798 C.3     1  LIG1        0.0522
      7 H          -0.0200    1.4301   -2.2191 H       1  LIG1        0.0413
      8 C          -0.5856   -0.2009   -3.4650 C.2     1  LIG1       -0.0388
      9 C          -2.0370   -0.5274   -3.4095 C.3     1  LIG1        0.0658
     10 O          -2.6935    0.3999   -2.5605 O.3     1  LIG1       -0.3907
     11 C           0.2014   -0.3069   -4.5453 C.2     1  LIG1       -0.0815
     12 C           1.6033    0.1277   -4.2578 C.3     1  LIG1       -0.0265
     13 C           1.5414   -1.9238   -1.3307 C.2     1  LIG1        0.0981
     14 O           0.2830   -1.6739   -0.8573 O.2     1  LIG1       -0.4699
     15 C          -0.1003   -0.2905   -0.9066 C.3     1  LIG1        0.2106
     16 H          -1.1771   -0.2580   -0.7218 H       1  LIG1        0.1062
     17 O           0.5569    0.4747    0.1198 O.3     1  LIG1       -0.3093
     18 C           0.1112    0.1321    1.4428 C.3     1  LIG1        0.1918
     19 H           0.2515   -0.9453    1.5974 H       1  LIG1        0.0939
     20 O          -1.2805    0.4584    1.5619 O.3     1  LIG1       -0.3404
     21 C          -1.7887    0.2761    2.8894 C.3     1  LIG1        0.1130
     22 H          -1.5559   -0.7459    3.2182 H       1  LIG1        0.0647
     23 C          -3.3119    0.4227    2.8595 C.3     1  LIG1        0.0730
     24 O          -3.8768   -0.5994    2.0373 O.3     1  LIG1       -0.3924
     25 C          -1.1433    1.3146    3.8042 C.3     1  LIG1        0.1119
     26 H          -1.3164    2.3284    3.4223 H       1  LIG1        0.0647
     27 O          -1.6572    1.2802    5.1392 O.3     1  LIG1       -0.3865
     28 C           0.3555    1.0373    3.8501 C.3     1  LIG1        0.1141
     29 H           0.5393    0.1195    4.4229 H       1  LIG1        0.0648
     30 O           1.0316    2.0707    4.5886 O.3     1  LIG1       -0.3864
     31 C           0.9855    0.9238    2.4576 C.3     1  LIG1        0.1342
     32 H           1.1950    1.9242    2.0606 H       1  LIG1        0.0671
     33 O           2.2714    0.2931    2.6327 O.3     1  LIG1       -0.3841
     34 O           4.4945   -0.7156   -2.8959 O.2     1  LIG1       -0.2454
     35 H           4.8580   -2.8769   -2.5019 H       1  LIG1        0.2954
     36 H          -2.1856   -1.5363   -3.0126 H       1  LIG1        0.0604
     37 H          -2.4967   -0.4645   -4.4017 H       1  LIG1        0.0604
     38 H          -3.6261    0.1273   -2.5243 H       1  LIG1        0.2098
     39 H          -0.1212   -0.6524   -5.5191 H       1  LIG1        0.0573
     40 H           1.7649    1.1263   -4.6800 H       1  LIG1        0.0313
     41 H           2.3237   -0.5590   -4.7123 H       1  LIG1        0.0313
     42 H           1.8954   -2.8740   -0.9539 H       1  LIG1        0.1029
     43 H          -3.6163    1.3889    2.4460 H       1  LIG1        0.0584
     44 H          -3.7381    0.3137    3.8613 H       1  LIG1        0.0584
     45 H          -3.4650   -0.4905    1.1593 H       1  LIG1        0.2095
     46 H          -1.5330    0.3838    5.5017 H       1  LIG1        0.2100
     47 H           0.4127    2.3688    5.2851 H       1  LIG1        0.2100
     48 H           2.7105    0.7961    3.3475 H       1  LIG1        0.2101
@<TRIPOS>BOND
     1     1     2    1
     2     2     3    1
     3     3     4    1
     4     4     5    1
     5     4     6    1
     6     6     7    1
     7     6     8    1
     8     8     9    1
     9     9    10    1
    10     8    11    2
    11    11    12    1
    12     4    12    1
    13     3    13    2
    14    13    14    1
    15    14    15    1
    16    15    16    1
    17     6    15    1
    18    15    17    1
    19    18    20    1
    20    20    21    1
    21    21    22    1
    22    21    23    1
    23    23    24    1
    24    21    25    1
    25    25    28    1
    26    28    29    1
    27    28    30    1
    28    28    31    1
    29    18    31    1
    30     2    34    2
    31    18    19    1
    32    18    17    1
    33    25    27    1
    34    25    26    1
    35    31    33    1
    36    31    32    1
    37     1    35    1
    38     9    36    1
    39     9    37    1
    40    10    38    1
    41    11    39    1
    42    12    40    1
    43    12    41    1
    44    13    42    1
    45    23    43    1
    46    23    44    1
    47    24    45    1
    48    27    46    1
    49    30    47    1
    50    33    48    1
