REMARK  Name = NuBBE_1206
REMARK  5 active torsions:
REMARK  status: ('A' for Active; 'I' for Inactive)
REMARK    1  A    between atoms: O_1  and  C_2
REMARK    2  A    between atoms: C_6  and  C_7
REMARK    3  A    between atoms: C_10  and  O_13
REMARK    4  A    between atoms: O_13  and  C_14
REMARK    5  A    between atoms: C_19  and  O_20
REMARK                            x       y       z     vdW  Elec       q    Type
REMARK                         _______ _______ _______ _____ _____    ______ ____
ROOT
ATOM      1  C   LIG A   1      -3.855  -2.629   0.034  0.00  0.00    +0.124 A 
ATOM      2  C   LIG A   1      -3.059  -1.485   0.035  0.00  0.00    +0.092 A 
ATOM      3  C   LIG A   1      -1.668  -1.623   0.065  0.00  0.00    +0.146 A 
ATOM      4  O   LIG A   1      -0.927  -0.466   0.063  0.00  0.00    -0.454 OA
ATOM      5  C   LIG A   1       0.460  -0.558   0.095  0.00  0.00    +0.139 A 
ATOM      6  C   LIG A   1       1.127  -1.723   0.119  0.00  0.00    +0.098 A 
ATOM      7  C   LIG A   1       0.371  -2.985   0.127  0.00  0.00    +0.197 A 
ATOM      8  O   LIG A   1       0.938  -4.072   0.157  0.00  0.00    -0.287 OA
ATOM      9  C   LIG A   1      -1.091  -2.889   0.095  0.00  0.00    +0.105 A 
ATOM     10  C   LIG A   1      -1.902  -4.030   0.092  0.00  0.00    +0.135 A 
ATOM     11  C   LIG A   1      -3.287  -3.900   0.062  0.00  0.00    +0.091 A 
ENDROOT
BRANCH   5  12
ATOM     12  C   LIG A   1       1.157   0.750   0.080  0.00  0.00    +0.018 A 
ATOM     13  C   LIG A   1       0.566   1.853  -0.558  0.00  0.00    +0.015 A 
ATOM     14  C   LIG A   1       1.186   3.110  -0.566  0.00  0.00    +0.046 A 
ATOM     15  C   LIG A   1       2.412   3.293   0.068  0.00  0.00    +0.120 A 
ATOM     16  C   LIG A   1       3.012   2.207   0.704  0.00  0.00    +0.046 A 
ATOM     17  C   LIG A   1       2.392   0.951   0.715  0.00  0.00    +0.015 A 
BRANCH  15  18
ATOM     18  O   LIG A   1       3.113   4.465   0.138  0.00  0.00    -0.495 OA
ATOM     19  C   LIG A   1       2.511   5.606  -0.462  0.00  0.00    +0.277 C 
ENDBRANCH  15  18
ENDBRANCH   5  12
BRANCH   1  20
ATOM     20  O   LIG A   1      -5.216  -2.547   0.007  0.00  0.00    -0.506 OA
ATOM     21  H   LIG A   1      -5.482  -1.612   0.003  0.00  0.00    +0.292 HD
ENDBRANCH   1  20
BRANCH  10  22
ATOM     22  O   LIG A   1      -1.399  -5.302   0.119  0.00  0.00    -0.506 OA
ATOM     23  H   LIG A   1      -0.416  -5.245   0.141  0.00  0.00    +0.292 HD
ENDBRANCH  10  22
TORSDOF 4
