@<TRIPOS>MOLECULE
NuBBE_601
 31 34 0 0 0
SMALL
GASTEIGER

@<TRIPOS>ATOM
      1 C          -0.9655    2.6904    2.8232 C.3     1  LIG1        0.0788
      2 O          -1.2880    1.5385    2.0549 O.3     1  LIG1       -0.4937
      3 C          -0.4906    1.2959    0.9433 C.ar    1  LIG1        0.1418
      4 C           0.1373    2.2823    0.1588 C.ar    1  LIG1        0.0820
      5 C           0.8675    1.8256   -0.9302 C.ar    1  LIG1        0.2312
      6 O           1.4268    2.8697   -1.6008 O.2     1  LIG1       -0.4449
      7 C           1.0523    4.0024   -0.9613 C.ar    1  LIG1        0.0952
      8 C           0.2567    3.7019    0.1184 C.ar    1  LIG1       -0.0109
      9 N           1.0333    0.5610   -1.3296 N.ar    1  LIG1       -0.2080
     10 C           0.4075   -0.3814   -0.6177 C.ar    1  LIG1        0.1237
     11 C           0.5272   -1.7348   -0.9987 C.ar    1  LIG1        0.1915
     12 O           1.2667   -2.2256   -2.0500 O.3     1  LIG1       -0.4894
     13 C           1.3143   -1.4250   -3.2253 C.3     1  LIG1        0.0791
     14 C          -0.0910   -2.7119   -0.2324 C.ar    1  LIG1        0.2097
     15 C          -0.8405   -2.3999    0.8672 C.ar    1  LIG1        0.1707
     16 O          -1.3697   -3.4931    1.4752 O.3     1  LIG1       -0.4524
     17 C          -0.8497   -4.5463    0.6381 C.3     1  LIG1        0.2334
     18 O          -0.0572   -4.0576   -0.4589 O.3     1  LIG1       -0.4488
     19 C          -1.0026   -1.0969    1.2718 C.ar    1  LIG1       -0.0032
     20 C          -0.3740   -0.0638    0.5391 C.ar    1  LIG1        0.0501
     21 H          -1.3822    2.5523    3.8257 H       1  LIG1        0.0660
     22 H          -1.4451    3.5742    2.3942 H       1  LIG1        0.0660
     23 H           0.1152    2.8317    2.9315 H       1  LIG1        0.0660
     24 H           1.4211    4.9248   -1.3895 H       1  LIG1        0.1030
     25 H          -0.1763    4.4335    0.7830 H       1  LIG1        0.0657
     26 H           1.6180   -2.0748   -4.0523 H       1  LIG1        0.0660
     27 H           2.0769   -0.6460   -3.1407 H       1  LIG1        0.0660
     28 H           0.3332   -1.0080   -3.4777 H       1  LIG1        0.0660
     29 H          -1.6898   -5.1242    0.2360 H       1  LIG1        0.1166
     30 H          -0.2293   -5.2094    1.2522 H       1  LIG1        0.1166
     31 H          -1.6022   -0.8854    2.1527 H       1  LIG1        0.0663
@<TRIPOS>BOND
     1     1     2    1
     2     2     3    1
     3     3     4   ar
     4     4     5   ar
     5     5     6   ar
     6     6     7   ar
     7     7     8   ar
     8     4     8   ar
     9     5     9   ar
    10     9    10   ar
    11    10    11   ar
    12    11    12    1
    13    12    13    1
    14    11    14   ar
    15    14    15   ar
    16    15    16    1
    17    16    17    1
    18    17    18    1
    19    14    18    1
    20    15    19   ar
    21    19    20   ar
    22    10    20   ar
    23     3    20   ar
    24     1    21    1
    25     1    22    1
    26     1    23    1
    27     7    24    1
    28     8    25    1
    29    13    26    1
    30    13    27    1
    31    13    28    1
    32    17    29    1
    33    17    30    1
    34    19    31    1
