@<TRIPOS>MOLECULE
NuBBE_1572
 54 58 0 0 0
SMALL
GASTEIGER

@<TRIPOS>ATOM
      1 C           0.7841   -1.3861   -3.6139 C.2     1  LIG1        0.3381
      2 O           0.6063   -2.5066   -3.1506 O.2     1  LIG1       -0.2452
      3 O           0.0966   -0.8536   -4.6550 O.3     1  LIG1       -0.4646
      4 C          -0.8735   -1.7199   -5.2446 C.3     1  LIG1        0.0820
      5 C           1.7668   -0.4120   -3.0675 C.2     1  LIG1        0.0742
      6 C           2.1823    0.5997   -3.8515 C.2     1  LIG1        0.0951
      7 O           3.1097    1.5533   -3.5221 O.2     1  LIG1       -0.4957
      8 C           3.8526    1.2890   -2.3228 C.3     1  LIG1        0.1011
      9 H           4.6083    0.5281   -2.5623 H       1  LIG1        0.0733
     10 C           2.9538    0.7605   -1.1924 C.3     1  LIG1        0.0157
     11 H           3.5841    0.5511   -0.3159 H       1  LIG1        0.0355
     12 C           2.3205   -0.5765   -1.6627 C.3     1  LIG1        0.0029
     13 H           3.1166   -1.3318   -1.7297 H       1  LIG1        0.0357
     14 C           1.3408   -1.0522   -0.5761 C.3     1  LIG1       -0.0243
     15 C           0.2891    0.0117   -0.2639 C.3     1  LIG1        0.0515
     16 H          -0.2741    0.2674   -1.1719 H       1  LIG1        0.0527
     17 C          -0.7023   -0.4522    0.7545 C.ar    1  LIG1        0.0376
     18 C          -1.1988    0.3154    1.7850 C.ar    1  LIG1       -0.0163
     19 C          -2.1359   -0.4688    2.4936 C.ar    1  LIG1        0.0066
     20 C          -2.2047   -1.7094    1.8589 C.ar    1  LIG1        0.0472
     21 N          -1.3291   -1.6699    0.7926 N.ar    1  LIG1       -0.3564
     22 H          -1.1795   -2.4319    0.1450 H       1  LIG1        0.1656
     23 C          -3.0512   -2.7297    2.3065 C.ar    1  LIG1       -0.0343
     24 C          -3.8395   -2.4637    3.4357 C.ar    1  LIG1       -0.0180
     25 C          -3.7749   -1.2370    4.0996 C.ar    1  LIG1        0.1208
     26 C          -2.9368   -0.2280    3.6214 C.ar    1  LIG1       -0.0105
     27 O          -4.5921   -1.0990    5.1920 O.3     1  LIG1       -0.4951
     28 C          -4.1497   -0.1444    6.1546 C.3     1  LIG1        0.0788
     29 C          -0.7260    1.7074    2.0144 C.3     1  LIG1       -0.0125
     30 C           0.0388    2.2235    0.7723 C.3     1  LIG1        0.0036
     31 N           0.9926    1.2149    0.2534 N.3     1  LIG1       -0.2933
     32 C           1.8744    1.7842   -0.7679 C.3     1  LIG1        0.0063
     33 C           4.5934    2.5695   -1.9542 C.3     1  LIG1       -0.0275
     34 H          -1.3563   -1.1765   -6.0619 H       1  LIG1        0.0661
     35 H          -1.6386   -1.9954   -4.5125 H       1  LIG1        0.0661
     36 H          -0.3903   -2.6097   -5.6594 H       1  LIG1        0.0661
     37 H           1.8163    0.7948   -4.8538 H       1  LIG1        0.1028
     38 H           1.9136   -1.2778    0.3369 H       1  LIG1        0.0290
     39 H           0.8751   -2.0022   -0.8524 H       1  LIG1        0.0290
     40 H          -3.0994   -3.6914    1.8066 H       1  LIG1        0.0639
     41 H          -4.5077   -3.2368    3.8085 H       1  LIG1        0.0655
     42 H          -2.8828    0.7500    4.0792 H       1  LIG1        0.0661
     43 H          -4.8570   -0.1504    6.9881 H       1  LIG1        0.0660
     44 H          -4.1438    0.8735    5.7516 H       1  LIG1        0.0660
     45 H          -3.1619   -0.4175    6.5426 H       1  LIG1        0.0660
     46 H          -0.0608    1.7165    2.8867 H       1  LIG1        0.0326
     47 H          -1.5700    2.3717    2.2306 H       1  LIG1        0.0326
     48 H           0.5709    3.1363    1.0673 H       1  LIG1        0.0430
     49 H          -0.6759    2.5060   -0.0127 H       1  LIG1        0.0430
     50 H           2.3768    2.6612   -0.3432 H       1  LIG1        0.0431
     51 H           1.2886    2.1374   -1.6253 H       1  LIG1        0.0431
     52 H           3.9116    3.4233   -1.8828 H       1  LIG1        0.0265
     53 H           5.3146    2.8225   -2.7391 H       1  LIG1        0.0265
     54 H           5.1343    2.4614   -1.0095 H       1  LIG1        0.0265
@<TRIPOS>BOND
     1     1     2    2
     2     1     3    1
     3     3     4    1
     4     1     5    1
     5     5     6    2
     6     6     7    1
     7     7     8    1
     8     8    10    1
     9    10    11    1
    10    10    12    1
    11    12    13    1
    12     5    12    1
    13    12    14    1
    14    14    15    1
    15    15    16    1
    16    15    17    1
    17    17    18   ar
    18    18    19   ar
    19    19    20   ar
    20    20    21   ar
    21    21    22    1
    22    17    21   ar
    23    20    23   ar
    24    23    24   ar
    25    24    25   ar
    26    25    26   ar
    27    19    26   ar
    28    25    27    1
    29    27    28    1
    30    18    29    1
    31    29    30    1
    32    30    31    1
    33    15    31    1
    34    31    32    1
    35    10    32    1
    36     8    33    1
    37     8     9    1
    38     4    34    1
    39     4    35    1
    40     4    36    1
    41     6    37    1
    42    14    38    1
    43    14    39    1
    44    23    40    1
    45    24    41    1
    46    26    42    1
    47    28    43    1
    48    28    44    1
    49    28    45    1
    50    29    46    1
    51    29    47    1
    52    30    48    1
    53    30    49    1
    54    32    50    1
    55    32    51    1
    56    33    52    1
    57    33    53    1
    58    33    54    1
