REMARK  Name = NuBBE_207
REMARK  21 active torsions:
REMARK  status: ('A' for Active; 'I' for Inactive)
REMARK    1  A    between atoms: C_1  and  O_2
REMARK    2  A    between atoms: O_2  and  C_3
REMARK    3  A    between atoms: C_4  and  O_49
REMARK    4  A    between atoms: C_5  and  O_6
REMARK    5  A    between atoms: O_6  and  C_7
REMARK    6  A    between atoms: C_9  and  C_38
REMARK    7  A    between atoms: C_11  and  C_20
REMARK    8  A    between atoms: C_13  and  C_18
REMARK    9  A    between atoms: C_18  and  O_19
REMARK   10  A    between atoms: C_20  and  O_21
REMARK   11  A    between atoms: O_21  and  C_22
REMARK   12  A    between atoms: C_24  and  O_37
REMARK   13  A    between atoms: C_26  and  O_36
REMARK   14  A    between atoms: C_28  and  O_35
REMARK   15  A    between atoms: C_30  and  C_33
REMARK   16  A    between atoms: C_33  and  O_34
REMARK   17  A    between atoms: C_40  and  O_41
REMARK   18  A    between atoms: O_41  and  C_42
REMARK   19  A    between atoms: C_43  and  O_48
REMARK   20  A    between atoms: C_44  and  O_45
REMARK   21  A    between atoms: O_45  and  C_46
REMARK                            x       y       z     vdW  Elec       q    Type
REMARK                         _______ _______ _______ _____ _____    ______ ____
ROOT
ATOM      1  C   LIG A   1      -0.164  -3.128   1.053  0.00  0.00    +0.165 A 
ATOM      2  C   LIG A   1       0.950  -2.876   0.245  0.00  0.00    +0.201 A 
ATOM      3  C   LIG A   1       1.492  -1.588   0.104  0.00  0.00    +0.169 A 
ATOM      4  C   LIG A   1       0.831  -0.517   0.717  0.00  0.00    +0.009 A 
ATOM      5  C   LIG A   1       1.230   0.951   0.458  0.00  0.00    +0.059 C 
ATOM      6  C   LIG A   1      -0.054   1.734   0.027  0.00  0.00    +0.032 C 
ATOM      7  C   LIG A   1      -1.290   1.500   0.960  0.00  0.00    +0.025 C 
ATOM      8  C   LIG A   1      -1.035   0.464   2.077  0.00  0.00    +0.041 C 
ATOM      9  C   LIG A   1      -0.316  -0.739   1.514  0.00  0.00    -0.036 A 
ATOM     10  C   LIG A   1      -0.791  -2.053   1.703  0.00  0.00    +0.053 A 
ENDROOT
BRANCH   5  11
ATOM     11  C   LIG A   1       2.025   1.589   1.605  0.00  0.00    -0.032 A 
ATOM     12  C   LIG A   1       2.099   2.978   1.777  0.00  0.00    +0.053 A 
ATOM     13  C   LIG A   1       2.813   3.560   2.830  0.00  0.00    +0.165 A 
ATOM     14  C   LIG A   1       3.534   2.721   3.691  0.00  0.00    +0.201 A 
ATOM     15  C   LIG A   1       3.526   1.334   3.520  0.00  0.00    +0.165 A 
ATOM     16  C   LIG A   1       2.775   0.789   2.475  0.00  0.00    +0.053 A 
BRANCH  14  17
ATOM     17  O   LIG A   1       4.305   3.251   4.695  0.00  0.00    -0.501 OA
ATOM     18  H   LIG A   1       4.723   4.038   4.307  0.00  0.00    +0.292 HD
ENDBRANCH  14  17
BRANCH  15  19
ATOM     19  O   LIG A   1       4.298   0.584   4.373  0.00  0.00    -0.491 OA
ATOM     20  C   LIG A   1       4.286  -0.823   4.150  0.00  0.00    +0.277 C 
ENDBRANCH  15  19
BRANCH  13  21
ATOM     21  O   LIG A   1       2.870   4.915   3.063  0.00  0.00    -0.491 OA
ATOM     22  C   LIG A   1       1.995   5.724   2.268  0.00  0.00    +0.277 C 
ENDBRANCH  13  21
ENDBRANCH   5  11
BRANCH   2  23
ATOM     23  O   LIG A   1       1.407  -3.848  -0.597  0.00  0.00    -0.501 OA
ATOM     24  H   LIG A   1       0.589  -4.171  -1.057  0.00  0.00    +0.292 HD
ENDBRANCH   2  23
BRANCH   1  26
ATOM     25  C   LIG A   1       0.051  -5.502   1.219  0.00  0.00    +0.277 C 
ATOM     26  O   LIG A   1      -0.785  -4.347   1.183  0.00  0.00    -0.491 OA
ENDBRANCH   1  26
BRANCH   3  27
ATOM     27  O   LIG A   1       2.569  -1.278  -0.686  0.00  0.00    -0.491 OA
ATOM     28  C   LIG A   1       3.561  -2.290  -0.846  0.00  0.00    +0.277 C 
ENDBRANCH   3  27
BRANCH   6  29
ATOM     29  C   LIG A   1      -0.413   1.414  -1.442  0.00  0.00    +0.168 C 
BRANCH  29  30
ATOM     30  O   LIG A   1      -0.792   0.054  -1.592  0.00  0.00    -0.348 OA
BRANCH  30  31
ATOM     31  C   LIG A   1      -1.177  -0.272  -2.922  0.00  0.00    +0.282 C 
ATOM     32  C   LIG A   1      -1.442  -1.800  -3.001  0.00  0.00    +0.201 C 
ATOM     33  C   LIG A   1      -2.896  -2.143  -2.646  0.00  0.00    +0.179 C 
ATOM     34  C   LIG A   1      -3.910  -1.264  -3.414  0.00  0.00    +0.177 C 
ATOM     35  C   LIG A   1      -3.229  -0.086  -4.135  0.00  0.00    +0.178 C 
ATOM     36  O   LIG A   1      -2.286   0.546  -3.283  0.00  0.00    -0.341 OA
BRANCH  32  37
ATOM     37  O   LIG A   1      -1.178  -2.298  -4.328  0.00  0.00    -0.384 OA
ATOM     38  H   LIG A   1      -0.225  -2.181  -4.496  0.00  0.00    +0.210 HD
ENDBRANCH  32  37
BRANCH  33  39
ATOM     39  O   LIG A   1      -3.094  -2.017  -1.233  0.00  0.00    -0.386 OA
ATOM     40  H   LIG A   1      -3.967  -2.377  -1.008  0.00  0.00    +0.210 HD
ENDBRANCH  33  39
BRANCH  34  41
ATOM     41  O   LIG A   1      -4.617  -2.047  -4.388  0.00  0.00    -0.387 OA
ATOM     42  H   LIG A   1      -5.091  -2.752  -3.912  0.00  0.00    +0.210 HD
ENDBRANCH  34  41
BRANCH  35  43
ATOM     43  C   LIG A   1      -4.241   0.991  -4.557  0.00  0.00    +0.190 C 
BRANCH  43  44
ATOM     44  O   LIG A   1      -5.208   0.540  -5.496  0.00  0.00    -0.392 OA
ATOM     45  H   LIG A   1      -4.901  -0.313  -5.857  0.00  0.00    +0.209 HD
ENDBRANCH  43  44
ENDBRANCH  35  43
ENDBRANCH  30  31
ENDBRANCH  29  30
ENDBRANCH   6  29
BRANCH   7  46
ATOM     46  C   LIG A   1      -1.817   2.825   1.538  0.00  0.00    +0.160 C 
BRANCH  46  47
ATOM     47  O   LIG A   1      -0.828   3.483   2.309  0.00  0.00    -0.395 OA
ATOM     48  H   LIG A   1      -1.228   4.285   2.685  0.00  0.00    +0.209 HD
ENDBRANCH  46  47
ENDBRANCH   7  46
TORSDOF 17
