@<TRIPOS>MOLECULE
NuBBE_186
 72 73 0 0 0
SMALL
GASTEIGER

@<TRIPOS>ATOM
      1 O           3.8377    6.6530   -1.7332 O.2     1  LIG1       -0.2510
      2 C           3.7820    7.1342   -2.8999 C.2     1  LIG1        0.3047
      3 O           4.5238    8.1802   -3.2317 O.3     1  LIG1       -0.4806
      4 C           2.9016    6.5765   -3.9576 C.3     1  LIG1        0.0448
      5 C           3.4832    5.3549   -4.6628 C.3     1  LIG1       -0.0430
      6 C           3.7038    4.0817   -3.8258 C.3     1  LIG1       -0.0526
      7 C           2.5035    3.2342   -3.3125 C.3     1  LIG1       -0.0530
      8 C           1.4755    3.8893   -2.3542 C.3     1  LIG1       -0.0531
      9 C           0.3808    2.9221   -1.7966 C.3     1  LIG1       -0.0531
     10 C          -0.5934    3.5631   -0.7549 C.3     1  LIG1       -0.0531
     11 C          -1.7025    2.5856   -0.2759 C.3     1  LIG1       -0.0531
     12 C          -2.6688    3.1481    0.7788 C.3     1  LIG1       -0.0531
     13 C          -3.8289    2.2006    1.1640 C.3     1  LIG1       -0.0531
     14 C          -3.6126    0.8467    1.8827 C.3     1  LIG1       -0.0531
     15 C          -2.8598   -0.3264    1.2333 C.3     1  LIG1       -0.0531
     16 C          -2.8858   -1.6188    2.1273 C.3     1  LIG1       -0.0531
     17 C          -2.1448   -1.5384    3.4841 C.3     1  LIG1       -0.0531
     18 C          -2.1184   -2.8213    4.3693 C.3     1  LIG1       -0.0530
     19 C          -1.3013   -4.0577    3.8825 C.3     1  LIG1       -0.0528
     20 C           0.1984   -3.7384    3.7095 C.3     1  LIG1       -0.0491
     21 C           1.2041   -4.8016    3.2006 C.3     1  LIG1       -0.0276
     22 C           1.1149   -5.4294    1.8230 C.ar    1  LIG1       -0.0437
     23 C           0.5678   -4.8060    0.6915 C.ar    1  LIG1       -0.0130
     24 C           0.3520   -5.5900   -0.4343 C.ar    1  LIG1        0.1665
     25 O          -0.3105   -5.2127   -1.5660 O.3     1  LIG1       -0.4526
     26 C          -0.4808   -6.4917   -2.2199 C.3     1  LIG1        0.2332
     27 O           0.2726   -7.5513   -1.6004 O.3     1  LIG1       -0.4526
     28 C           0.7202   -6.9159   -0.4843 C.ar    1  LIG1        0.1662
     29 C           1.4182   -7.5090    0.5367 C.ar    1  LIG1       -0.0159
     30 C           1.6301   -6.7489    1.6879 C.ar    1  LIG1       -0.0549
     31 H           4.4622    8.4159   -4.1938 H       1  LIG1        0.2951
     32 H           2.7318    7.3707   -4.7042 H       1  LIG1        0.0377
     33 H           1.9114    6.3795   -3.5426 H       1  LIG1        0.0377
     34 H           4.4655    5.6532   -5.0649 H       1  LIG1        0.0270
     35 H           2.8695    5.1155   -5.5383 H       1  LIG1        0.0270
     36 H           4.3873    4.3024   -2.9983 H       1  LIG1        0.0265
     37 H           4.2764    3.4102   -4.4871 H       1  LIG1        0.0265
     38 H           2.9498    2.3708   -2.7968 H       1  LIG1        0.0265
     39 H           1.9779    2.8209   -4.1815 H       1  LIG1        0.0265
     40 H           0.9547    4.6752   -2.9042 H       1  LIG1        0.0265
     41 H           2.0111    4.3513   -1.5184 H       1  LIG1        0.0265
     42 H           0.8619    2.0561   -1.3260 H       1  LIG1        0.0265
     43 H          -0.2069    2.5400   -2.6407 H       1  LIG1        0.0265
     44 H          -1.0515    4.4663   -1.1763 H       1  LIG1        0.0265
     45 H          -0.0156    3.8728    0.1244 H       1  LIG1        0.0265
     46 H          -1.2033    1.7246    0.1667 H       1  LIG1        0.0265
     47 H          -2.2896    2.2352   -1.1333 H       1  LIG1        0.0265
     48 H          -3.1358    4.0635    0.3792 H       1  LIG1        0.0265
     49 H          -2.1254    3.4649    1.6770 H       1  LIG1        0.0265
     50 H          -4.4612    2.0452    0.2821 H       1  LIG1        0.0265
     51 H          -4.4552    2.7811    1.8632 H       1  LIG1        0.0265
     52 H          -4.6328    0.4659    2.0433 H       1  LIG1        0.0265
     53 H          -3.1983    1.0392    2.8758 H       1  LIG1        0.0265
     54 H          -1.8256   -0.0769    0.9821 H       1  LIG1        0.0265
     55 H          -3.3606   -0.5668    0.2837 H       1  LIG1        0.0265
     56 H          -2.4737   -2.4461    1.5392 H       1  LIG1        0.0265
     57 H          -3.9381   -1.8590    2.3221 H       1  LIG1        0.0265
     58 H          -2.6383   -0.7673    4.0903 H       1  LIG1        0.0265
     59 H          -1.1204   -1.1881    3.3299 H       1  LIG1        0.0265
     60 H          -3.1495   -3.1312    4.5908 H       1  LIG1        0.0265
     61 H          -1.7021   -2.5258    5.3459 H       1  LIG1        0.0265
     62 H          -1.7507   -4.4601    2.9710 H       1  LIG1        0.0265
     63 H          -1.4078   -4.8378    4.6540 H       1  LIG1        0.0265
     64 H           0.5590   -3.4729    4.7146 H       1  LIG1        0.0268
     65 H           0.3050   -2.8470    3.0916 H       1  LIG1        0.0268
     66 H           1.2169   -5.6191    3.9349 H       1  LIG1        0.0313
     67 H           2.2007   -4.3396    3.2582 H       1  LIG1        0.0313
     68 H           0.2559   -3.7678    0.6980 H       1  LIG1        0.0658
     69 H          -0.1607   -6.4169   -3.2644 H       1  LIG1        0.1166
     70 H          -1.5486   -6.7517   -2.2028 H       1  LIG1        0.1166
     71 H           1.7336   -8.5443    0.4756 H       1  LIG1        0.0655
     72 H           2.1586   -7.2144    2.5188 H       1  LIG1        0.0621
@<TRIPOS>BOND
     1     1     2    2
     2     2     3    1
     3     2     4    1
     4     4     5    1
     5     5     6    1
     6     6     7    1
     7     7     8    1
     8     8     9    1
     9     9    10    1
    10    10    11    1
    11    11    12    1
    12    12    13    1
    13    13    14    1
    14    14    15    1
    15    15    16    1
    16    16    17    1
    17    17    18    1
    18    18    19    1
    19    19    20    1
    20    20    21    1
    21    21    22    1
    22    22    23   ar
    23    23    24   ar
    24    24    25    1
    25    25    26    1
    26    26    27    1
    27    24    28   ar
    28    27    28    1
    29    28    29   ar
    30    29    30   ar
    31    22    30   ar
    32     3    31    1
    33     4    32    1
    34     4    33    1
    35     5    34    1
    36     5    35    1
    37     6    36    1
    38     6    37    1
    39     7    38    1
    40     7    39    1
    41     8    40    1
    42     8    41    1
    43     9    42    1
    44     9    43    1
    45    10    44    1
    46    10    45    1
    47    11    46    1
    48    11    47    1
    49    12    48    1
    50    12    49    1
    51    13    50    1
    52    13    51    1
    53    14    52    1
    54    14    53    1
    55    15    54    1
    56    15    55    1
    57    16    56    1
    58    16    57    1
    59    17    58    1
    60    17    59    1
    61    18    60    1
    62    18    61    1
    63    19    62    1
    64    19    63    1
    65    20    64    1
    66    20    65    1
    67    21    66    1
    68    21    67    1
    69    23    68    1
    70    26    69    1
    71    26    70    1
    72    29    71    1
    73    30    72    1
