@<TRIPOS>MOLECULE
NuBBE_2212
 25 26 0 0 0
SMALL
GASTEIGER

@<TRIPOS>ATOM
      1 C          -2.5817   -1.4912   -0.3556 C.2     1  LIG1        0.1505
      2 O          -3.1785   -2.5448   -0.1680 O.2     1  LIG1       -0.2957
      3 C          -1.1005   -1.4078   -0.3191 C.ar    1  LIG1        0.0185
      4 C          -0.4139   -0.1782   -0.3684 C.ar    1  LIG1       -0.0162
      5 C           0.9957   -0.1912   -0.4145 C.ar    1  LIG1        0.1042
      6 C           1.7589    1.0776   -0.5452 C.2     1  LIG1        0.3433
      7 O           2.9599    1.0543   -0.7906 O.2     1  LIG1       -0.2448
      8 O           1.0765    2.2388   -0.4054 O.3     1  LIG1       -0.4577
      9 C          -0.2371    2.2506    0.1786 C.3     1  LIG1        0.1046
     10 H          -0.6814    3.2180   -0.0840 H       1  LIG1        0.0734
     11 C          -1.1110    1.1538   -0.4236 C.3     1  LIG1        0.0109
     12 C          -0.1297    2.1919    1.7013 C.3     1  LIG1       -0.0274
     13 C           1.6924   -1.4097   -0.3704 C.ar    1  LIG1        0.1311
     14 C           1.0046   -2.6139   -0.2756 C.ar    1  LIG1       -0.0187
     15 C          -0.3881   -2.6144   -0.2554 C.ar    1  LIG1       -0.0478
     16 O           3.0571   -1.5050   -0.4207 O.3     1  LIG1       -0.5059
     17 H          -3.1409   -0.5685   -0.5697 H       1  LIG1        0.1081
     18 H          -1.3112    1.3775   -1.4786 H       1  LIG1        0.0349
     19 H          -2.0640    1.1382    0.1136 H       1  LIG1        0.0349
     20 H           0.3556    1.2731    2.0456 H       1  LIG1        0.0265
     21 H          -1.1170    2.2589    2.1685 H       1  LIG1        0.0265
     22 H           0.4848    3.0220    2.0667 H       1  LIG1        0.0265
     23 H           1.5524   -3.5526   -0.2369 H       1  LIG1        0.0654
     24 H          -0.9171   -3.5657   -0.2053 H       1  LIG1        0.0626
     25 H           3.4341   -0.6115   -0.5875 H       1  LIG1        0.2922
@<TRIPOS>BOND
     1     1     2    2
     2     1     3    1
     3     3     4   ar
     4     4     5   ar
     5     5     6    1
     6     6     7    2
     7     6     8    1
     8     8     9    1
     9     9    11    1
    10     4    11    1
    11     5    13   ar
    12    13    14   ar
    13    14    15   ar
    14     3    15   ar
    15    13    16    1
    16     9    12    1
    17     9    10    1
    18     1    17    1
    19    11    18    1
    20    11    19    1
    21    12    20    1
    22    12    21    1
    23    12    22    1
    24    14    23    1
    25    15    24    1
    26    16    25    1
