@<TRIPOS>MOLECULE
NuBBE_545
 106 111 0 0 0
SMALL
GASTEIGER

@<TRIPOS>ATOM
      1 C          -3.8559   -2.1872    5.0755 C.3     1  LIG1       -0.0598
      2 C          -3.0367   -1.0471    4.4327 C.3     1  LIG1       -0.0146
      3 H          -2.5520   -0.4900    5.2471 H       1  LIG1        0.0326
      4 C          -4.0245   -0.0857    3.7677 C.3     1  LIG1       -0.0468
      5 C          -3.3221    1.0531    3.0466 C.3     1  LIG1       -0.0363
      6 C          -2.3363    0.5452    1.9733 C.3     1  LIG1        0.0769
      7 C          -1.6995    1.7888    1.3429 C.3     1  LIG1       -0.0358
      8 C          -0.6259    1.4462    0.3290 C.3     1  LIG1       -0.0424
      9 C           0.5348    0.5477    0.8484 C.3     1  LIG1       -0.0050
     10 C           1.2612   -0.1904   -0.4014 C.3     1  LIG1       -0.0194
     11 C           1.5025    0.7466   -1.6162 C.3     1  LIG1       -0.0463
     12 C           2.8854    1.3368   -1.7388 C.3     1  LIG1       -0.0484
     13 C           3.9265    0.2122   -1.7366 C.3     1  LIG1       -0.0230
     14 H           3.5072   -0.5923   -2.3653 H       1  LIG1        0.0314
     15 C           5.2692    0.5694   -2.4734 C.3     1  LIG1        0.0485
     16 C           4.9521    0.7468   -3.9967 C.3     1  LIG1        0.0546
     17 O           6.1397    1.0098   -4.7461 O.3     1  LIG1       -0.3943
     18 C           6.2383   -0.6413   -2.3645 C.3     1  LIG1        0.0911
     19 H           5.8871   -1.4535   -3.0170 H       1  LIG1        0.0626
     20 C           6.3786   -1.2180   -0.9510 C.3     1  LIG1        0.0823
     21 H           6.9251   -0.5217   -0.3089 H       1  LIG1        0.0619
     22 C           5.0232   -1.6037   -0.3545 C.3     1  LIG1       -0.0184
     23 C           4.0051   -0.4232   -0.3009 C.3     1  LIG1       -0.0225
     24 C           2.5483   -1.0090    0.0272 C.3     1  LIG1       -0.0257
     25 H           2.5258   -1.8774   -0.6528 H       1  LIG1        0.0315
     26 C           2.3670   -1.6680    1.4166 C.3     1  LIG1       -0.0306
     27 C           1.0164   -1.5076    2.0833 C.2     1  LIG1       -0.0835
     28 C           0.1011   -0.5325    1.8669 C.2     1  LIG1       -0.0602
     29 C          -1.2190   -0.3274    2.6956 C.3     1  LIG1        0.0252
     30 H          -0.8501    0.3235    3.5129 H       1  LIG1        0.0384
     31 C          -1.9003   -1.5565    3.4734 C.3     1  LIG1        0.0733
     32 O          -2.5059   -2.4640    2.5497 O.3     1  LIG1       -0.3880
     33 C          -0.9329   -2.3824    4.3430 C.3     1  LIG1       -0.0352
     34 C           4.5208    0.5532    0.7827 C.3     1  LIG1       -0.0589
     35 O           7.1922   -2.3971   -1.0191 O.3     1  LIG1       -0.3892
     36 O           7.5571   -0.3143   -2.8306 O.3     1  LIG1       -0.3885
     37 C           5.9424    1.8738   -1.9756 C.3     1  LIG1        0.0546
     38 O           5.0998    3.0068   -2.1671 O.3     1  LIG1       -0.3943
     39 C           0.2741   -1.2919   -0.9707 C.3     1  LIG1       -0.0585
     40 C           1.4763    1.5031    1.6340 C.3     1  LIG1       -0.0553
     41 C          -3.1168   -0.2361    0.9217 C.2     1  LIG1        0.3162
     42 O          -4.3966    0.2086    0.6467 O.3     1  LIG1       -0.4318
     43 C          -5.2310   -0.6473   -0.1768 C.3     1  LIG1        0.2337
     44 H          -5.3498   -1.6028    0.3510 H       1  LIG1        0.1085
     45 O          -4.6624   -0.9466   -1.4561 O.3     1  LIG1       -0.3312
     46 C          -4.9203   -0.0127   -2.5063 C.3     1  LIG1        0.1140
     47 H          -5.7579   -0.4045   -3.1008 H       1  LIG1        0.0647
     48 C          -5.3041    1.3713   -1.9672 C.3     1  LIG1        0.1120
     49 H          -4.5463    1.7456   -1.2712 H       1  LIG1        0.0647
     50 C          -6.6436    1.2100   -1.2442 C.3     1  LIG1        0.1152
     51 H          -7.4431    1.1197   -1.9938 H       1  LIG1        0.0648
     52 O          -6.9304    2.4153   -0.5234 O.3     1  LIG1       -0.3864
     53 O          -5.4667    2.3942   -2.9531 O.3     1  LIG1       -0.3865
     54 C          -3.6996    0.0189   -3.4294 C.3     1  LIG1        0.0731
     55 O          -3.9207    0.9060   -4.5253 O.3     1  LIG1       -0.3924
     56 C          -6.6535   -0.0078   -0.3029 C.3     1  LIG1        0.1455
     57 H          -7.0249    0.2761    0.6876 H       1  LIG1        0.0683
     58 O          -7.5832   -0.9824   -0.8266 O.3     1  LIG1       -0.3829
     59 O          -2.6285   -1.1750    0.3348 O.2     1  LIG1       -0.2501
     60 H          -4.0543   -3.0022    4.3716 H       1  LIG1        0.0233
     61 H          -4.8225   -1.8299    5.4448 H       1  LIG1        0.0233
     62 H          -3.3330   -2.6076    5.9399 H       1  LIG1        0.0233
     63 H          -4.6742    0.3506    4.5365 H       1  LIG1        0.0269
     64 H          -4.6841   -0.6312    3.0842 H       1  LIG1        0.0269
     65 H          -2.7829    1.6608    3.7835 H       1  LIG1        0.0276
     66 H          -4.0772    1.7204    2.6095 H       1  LIG1        0.0276
     67 H          -1.2667    2.4290    2.1239 H       1  LIG1        0.0276
     68 H          -2.4586    2.4036    0.8412 H       1  LIG1        0.0276
     69 H          -0.2112    2.4024   -0.0223 H       1  LIG1        0.0274
     70 H          -1.1178    1.0126   -0.5447 H       1  LIG1        0.0274
     71 H           0.7779    1.5599   -1.6761 H       1  LIG1        0.0271
     72 H           1.3365    0.1905   -2.5497 H       1  LIG1        0.0271
     73 H           3.0584    2.0749   -0.9546 H       1  LIG1        0.0268
     74 H           2.8957    1.8949   -2.6781 H       1  LIG1        0.0268
     75 H           4.5081   -0.1676   -4.4095 H       1  LIG1        0.0564
     76 H           4.2517    1.5636   -4.1897 H       1  LIG1        0.0564
     77 H           5.8393    1.3779   -5.5991 H       1  LIG1        0.2094
     78 H           5.1769   -2.0311    0.6453 H       1  LIG1        0.0296
     79 H           4.6138   -2.4299   -0.9528 H       1  LIG1        0.0296
     80 H           3.1224   -1.3489    2.1387 H       1  LIG1        0.0310
     81 H           2.5393   -2.7469    1.2962 H       1  LIG1        0.0310
     82 H           0.8840   -2.2665    2.8316 H       1  LIG1        0.0572
     83 H          -2.1063   -2.3386    1.6572 H       1  LIG1        0.2102
     84 H          -0.1766   -1.7473    4.8152 H       1  LIG1        0.0257
     85 H          -0.4737   -3.2008    3.7817 H       1  LIG1        0.0257
     86 H          -1.4352   -2.9121    5.1553 H       1  LIG1        0.0257
     87 H           5.5899    0.7530    0.6979 H       1  LIG1        0.0235
     88 H           4.4105    0.1497    1.7918 H       1  LIG1        0.0235
     89 H           4.0322    1.5248    0.7613 H       1  LIG1        0.0235
     90 H           7.9384   -2.1530   -1.6038 H       1  LIG1        0.2099
     91 H           7.4267    0.1705   -3.6810 H       1  LIG1        0.2099
     92 H           6.1977    1.8253   -0.9187 H       1  LIG1        0.0564
     93 H           6.8728    2.0799   -2.5141 H       1  LIG1        0.0564
     94 H           5.5576    3.7744   -1.7832 H       1  LIG1        0.2094
     95 H          -0.7293   -0.9047   -1.1371 H       1  LIG1        0.0235
     96 H           0.1969   -2.1716   -0.3220 H       1  LIG1        0.0235
     97 H           0.6210   -1.6761   -1.9383 H       1  LIG1        0.0235
     98 H           1.9135    2.2678    0.9870 H       1  LIG1        0.0238
     99 H           2.2866    0.9798    2.1464 H       1  LIG1        0.0238
    100 H           0.9383    2.0337    2.4292 H       1  LIG1        0.0238
    101 H          -6.6759    3.1371   -1.1385 H       1  LIG1        0.2100
    102 H          -4.7806    2.2341   -3.6407 H       1  LIG1        0.2100
    103 H          -2.8099    0.3541   -2.8873 H       1  LIG1        0.0584
    104 H          -3.4935   -0.9862   -3.8156 H       1  LIG1        0.0584
    105 H          -3.2722    0.6672   -5.2134 H       1  LIG1        0.2095
    106 H          -8.4677   -0.5715   -0.8254 H       1  LIG1        0.2102
@<TRIPOS>BOND
     1     2     4    1
     2     4     5    1
     3     5     6    1
     4     6     7    1
     5     7     8    1
     6     8     9    1
     7     9    10    1
     8    10    11    1
     9    11    12    1
    10    12    13    1
    11    13    15    1
    12    16    17    1
    13    15    18    1
    14    18    20    1
    15    20    22    1
    16    22    23    1
    17    23    24    1
    18    24    26    1
    19    26    27    1
    20    27    28    2
    21    28    29    1
    22    29    31    1
    23     2    31    1
    24    13    23    1
    25    37    38    1
    26    24    10    1
    27    28     9    1
    28    29     6    1
    29    41    42    1
    30    42    43    1
    31    43    44    1
    32    43    45    1
    33    45    46    1
    34    46    48    1
    35    48    49    1
    36    48    50    1
    37    48    53    1
    38    54    55    1
    39    43    56    1
    40    50    56    1
    41    41    59    2
    42     1     2    1
    43     2     3    1
    44     6    41    1
    45     9    40    1
    46    10    39    1
    47    13    14    1
    48    15    16    1
    49    15    37    1
    50    18    19    1
    51    18    36    1
    52    23    34    1
    53    24    25    1
    54    29    30    1
    55    31    32    1
    56    31    33    1
    57    20    35    1
    58    20    21    1
    59    46    54    1
    60    46    47    1
    61    50    52    1
    62    50    51    1
    63    56    58    1
    64    56    57    1
    65     1    60    1
    66     1    61    1
    67     1    62    1
    68     4    63    1
    69     4    64    1
    70     5    65    1
    71     5    66    1
    72     7    67    1
    73     7    68    1
    74     8    69    1
    75     8    70    1
    76    11    71    1
    77    11    72    1
    78    12    73    1
    79    12    74    1
    80    16    75    1
    81    16    76    1
    82    17    77    1
    83    22    78    1
    84    22    79    1
    85    26    80    1
    86    26    81    1
    87    27    82    1
    88    32    83    1
    89    33    84    1
    90    33    85    1
    91    33    86    1
    92    34    87    1
    93    34    88    1
    94    34    89    1
    95    35    90    1
    96    36    91    1
    97    37    92    1
    98    37    93    1
    99    38    94    1
   100    39    95    1
   101    39    96    1
   102    39    97    1
   103    40    98    1
   104    40    99    1
   105    40   100    1
   106    52   101    1
   107    53   102    1
   108    54   103    1
   109    54   104    1
   110    55   105    1
   111    58   106    1
