@<TRIPOS>MOLECULE
NuBBE_402
 32 33 0 0 0
SMALL
GASTEIGER

@<TRIPOS>ATOM
      1 C           0.9347   -0.9897   -2.7176 C.ar    1  LIG1       -0.0367
      2 C          -0.1083   -0.1692   -3.4387 C.3     1  LIG1        0.0298
      3 S          -1.6384    0.1326   -2.4985 S.3     1  LIG1       -0.0764
      4 S          -2.4322   -1.7233   -2.0973 S.3     1  LIG1       -0.0126
      5 S          -1.4145   -2.4635   -0.4697 S.3     1  LIG1       -0.0126
      6 S          -1.9684   -1.3222    1.1353 S.3     1  LIG1       -0.0764
      7 C          -0.7389    0.0204    1.0821 C.3     1  LIG1        0.0298
      8 C          -1.0056    1.1064    2.0980 C.ar    1  LIG1       -0.0367
      9 C          -2.2283    1.7930    2.1157 C.ar    1  LIG1       -0.0578
     10 C          -2.4197    2.8836    2.9617 C.ar    1  LIG1       -0.0615
     11 C          -1.3828    3.3007    3.8017 C.ar    1  LIG1       -0.0617
     12 C          -0.1757    2.6111    3.8047 C.ar    1  LIG1       -0.0615
     13 C           0.0168    1.5149    2.9668 C.ar    1  LIG1       -0.0578
     14 C           1.8735   -0.3931   -1.8695 C.ar    1  LIG1       -0.0578
     15 C           2.8168   -1.1799   -1.1904 C.ar    1  LIG1       -0.0615
     16 C           2.8091   -2.5613   -1.3482 C.ar    1  LIG1       -0.0617
     17 C           1.8814   -3.1676   -2.1849 C.ar    1  LIG1       -0.0615
     18 C           0.9533   -2.3796   -2.8798 C.ar    1  LIG1       -0.0578
     19 H          -0.3573   -0.6212   -4.4037 H       1  LIG1        0.0433
     20 H           0.3167    0.8146   -3.6705 H       1  LIG1        0.0433
     21 H          -0.7262    0.5127    0.1104 H       1  LIG1        0.0433
     22 H           0.2578   -0.4132    1.2376 H       1  LIG1        0.0433
     23 H          -3.0319    1.4960    1.4623 H       1  LIG1        0.0621
     24 H          -3.3647    3.4104    2.9712 H       1  LIG1        0.0618
     25 H          -1.5136    4.1767    4.4400 H       1  LIG1        0.0618
     26 H           0.6336    2.9374    4.4617 H       1  LIG1        0.0618
     27 H           0.9774    0.9936    2.9869 H       1  LIG1        0.0621
     28 H           1.8858    0.6854   -1.7191 H       1  LIG1        0.0621
     29 H           3.5489   -0.7110   -0.5407 H       1  LIG1        0.0618
     30 H           3.5330   -3.1763   -0.8114 H       1  LIG1        0.0618
     31 H           1.8480   -4.2471   -2.2851 H       1  LIG1        0.0618
     32 H           0.2197   -2.8712   -3.5112 H       1  LIG1        0.0621
@<TRIPOS>BOND
     1     1     2    1
     2     2     3    1
     3     3     4    1
     4     4     5    1
     5     5     6    1
     6     6     7    1
     7     7     8    1
     8     8     9   ar
     9     9    10   ar
    10    10    11   ar
    11    11    12   ar
    12    12    13   ar
    13     8    13   ar
    14     1    14   ar
    15    14    15   ar
    16    15    16   ar
    17    16    17   ar
    18    17    18   ar
    19     1    18   ar
    20     2    19    1
    21     2    20    1
    22     7    21    1
    23     7    22    1
    24     9    23    1
    25    10    24    1
    26    11    25    1
    27    12    26    1
    28    13    27    1
    29    14    28    1
    30    15    29    1
    31    16    30    1
    32    17    31    1
    33    18    32    1
