REMARK  Name = NuBBE_1405
REMARK  13 active torsions:
REMARK  status: ('A' for Active; 'I' for Inactive)
REMARK    1  A    between atoms: C_1  and  C_2
REMARK    2  A    between atoms: C_11  and  C_12
REMARK    3  A    between atoms: C_18  and  O_22
REMARK    4  A    between atoms: C_25  and  C_27
REMARK    5  A    between atoms: C_27  and  C_29
REMARK    6  A    between atoms: C_27  and  C_38
REMARK    7  A    between atoms: C_29  and  C_30
REMARK    8  A    between atoms: C_30  and  C_31
REMARK    9  A    between atoms: C_31  and  C_33
REMARK   10  A    between atoms: C_31  and  C_36
REMARK   11  A    between atoms: C_33  and  C_34
REMARK   12  A    between atoms: C_33  and  C_35
REMARK   13  A    between atoms: C_36  and  C_37
REMARK                            x       y       z     vdW  Elec       q    Type
REMARK                         _______ _______ _______ _____ _____    ______ ____
ROOT
ATOM      1  C   LIG A   1      -2.427  -0.020   0.961  0.00  0.00    +0.012 C 
ATOM      2  C   LIG A   1      -0.914  -0.233   0.633  0.00  0.00    -0.025 C 
ATOM      3  C   LIG A   1      -0.317  -1.518   1.243  0.00  0.00    +0.006 C 
ATOM      4  C   LIG A   1       0.058  -1.504   2.728  0.00  0.00    +0.067 C 
ATOM      5  C   LIG A   1       1.008  -0.305   3.033  0.00  0.00    +0.010 C 
ATOM      6  C   LIG A   1       1.119   0.712   1.875  0.00  0.00    +0.005 C 
ATOM      7  C   LIG A   1      -0.205   1.014   1.182  0.00  0.00    +0.007 C 
ATOM      8  C   LIG A   1       0.947   0.359   4.454  0.00  0.00    -0.007 C 
ATOM      9  C   LIG A   1       2.422   0.746   4.789  0.00  0.00    +0.016 C 
ATOM     10  C   LIG A   1       0.332  -0.566   5.491  0.00  0.00    -0.058 C 
ATOM     11  C   LIG A   1      -0.570  -1.516   5.189  0.00  0.00    +0.046 C 
ATOM     12  C   LIG A   1      -0.983  -1.728   3.781  0.00  0.00    +0.160 C 
ATOM     13  O   LIG A   1      -2.109  -2.203   3.554  0.00  0.00    -0.292 OA
ATOM     14  C   LIG A   1       0.499  -0.121   6.920  0.00  0.00    +0.062 C 
ATOM     15  C   LIG A   1      -0.223   1.226   7.098  0.00  0.00    +0.119 C 
ATOM     16  C   LIG A   1       0.048   2.242   5.974  0.00  0.00    +0.032 C 
ATOM     17  C   LIG A   1       0.061   1.634   4.556  0.00  0.00    +0.013 C 
ATOM     18  C   LIG A   1      -1.131  -2.626   0.596  0.00  0.00    +0.005 C 
ATOM     19  C   LIG A   1      -1.304  -2.113  -0.859  0.00  0.00    +0.004 C 
ATOM     20  C   LIG A   1      -0.800  -0.617  -0.902  0.00  0.00    -0.002 C 
ENDROOT
BRANCH  15  21
ATOM     21  O   LIG A   1       0.139   1.804   8.350  0.00  0.00    -0.392 OA
ATOM     22  H   LIG A   1       1.082   2.038   8.312  0.00  0.00    +0.210 HD
ENDBRANCH  15  21
BRANCH  20  23
ATOM     23  C   LIG A   1       0.602  -0.537  -1.641  0.00  0.00    -0.010 C 
ATOM     24  C   LIG A   1       1.294   0.830  -1.573  0.00  0.00    +0.008 C 
BRANCH  23  25
ATOM     25  C   LIG A   1       0.576  -0.971  -3.150  0.00  0.00    +0.004 C 
BRANCH  25  26
ATOM     26  C   LIG A   1      -0.121   0.022  -4.090  0.00  0.00    +0.004 C 
BRANCH  26  27
ATOM     27  C   LIG A   1      -0.201  -0.379  -5.591  0.00  0.00    -0.009 C 
BRANCH  27  28
ATOM     28  C   LIG A   1      -0.923   0.747  -6.413  0.00  0.00    -0.014 C 
ATOM     29  C   LIG A   1      -1.035   0.427  -7.911  0.00  0.00    +0.007 C 
ATOM     30  C   LIG A   1      -2.335   1.052  -5.878  0.00  0.00    +0.007 C 
ENDBRANCH  27  28
BRANCH  27  31
ATOM     31  C   LIG A   1       1.143  -0.848  -6.217  0.00  0.00    +0.000 C 
ATOM     32  C   LIG A   1       2.320   0.120  -6.228  0.00  0.00    +0.004 C 
ENDBRANCH  27  31
ENDBRANCH  26  27
ENDBRANCH  25  26
ENDBRANCH  23  25
ENDBRANCH  20  23
TORSDOF 7
