@<TRIPOS>MOLECULE
NuBBE_1197
 84 87 0 0 0
SMALL
GASTEIGER

@<TRIPOS>ATOM
      1 C          -1.4057   -3.1519    2.0496 C.3     1  LIG1       -0.0355
      2 C          -0.9852   -1.8404    2.7667 C.3     1  LIG1        0.0704
      3 O           0.3761   -1.5383    2.4230 O.3     1  LIG1       -0.3673
      4 C           1.2730   -2.3592    3.2085 C.3     1  LIG1        0.0876
      5 C           2.5456   -1.5624    3.6008 C.3     1  LIG1        0.0865
      6 C           3.5303   -2.4454    4.3733 C.3     1  LIG1       -0.0339
      7 O           3.2238   -1.1581    2.3993 O.3     1  LIG1       -0.3866
      8 C           2.2318   -0.2846    4.3824 C.3     1  LIG1       -0.0339
      9 H           1.5765   -3.1790    2.5436 H       1  LIG1        0.0625
     10 C           0.4481   -2.9039    4.3719 C.3     1  LIG1       -0.0213
     11 C          -0.8790   -2.1722    4.2628 C.3     1  LIG1       -0.0213
     12 C          -1.9692   -0.6304    2.4663 C.3     1  LIG1       -0.0088
     13 H          -2.9283   -1.0041    2.8613 H       1  LIG1        0.0331
     14 C          -1.7093    0.6923    3.2134 C.3     1  LIG1       -0.0468
     15 C          -1.3102    1.7834    2.2122 C.3     1  LIG1       -0.0465
     16 C          -1.7197    1.3208    0.7859 C.3     1  LIG1       -0.0232
     17 C          -2.8741    2.2593    0.3343 C.3     1  LIG1       -0.0588
     18 C          -0.5313    1.3121   -0.3062 C.3     1  LIG1       -0.0231
     19 C          -1.0585    0.6584   -1.6624 C.3     1  LIG1       -0.0292
     20 C          -2.0784   -0.4861   -1.4692 C.3     1  LIG1       -0.0489
     21 C          -1.9428   -1.1139   -0.1034 C.3     1  LIG1       -0.0491
     22 C          -2.2860   -0.1389    1.0143 C.3     1  LIG1       -0.0297
     23 C           0.7089    0.6653    0.3568 C.3     1  LIG1       -0.0588
     24 C          -0.0456    2.7068   -0.7793 C.3     1  LIG1       -0.0463
     25 C           1.1777    2.5831   -1.7095 C.3     1  LIG1       -0.0455
     26 C           1.0481    1.6097   -2.9135 C.3     1  LIG1       -0.0147
     27 C           0.0152    0.3926   -2.7992 C.3     1  LIG1       -0.0217
     28 C           0.6866   -0.9964   -2.5982 C.3     1  LIG1       -0.0587
     29 C          -0.7227    0.2268   -4.2013 C.3     1  LIG1       -0.0367
     30 C          -1.5596    1.4059   -4.7335 C.3     1  LIG1        0.0453
     31 C          -2.1729    1.0252   -6.0547 C.2     1  LIG1        0.3047
     32 O          -1.4044    1.4403   -7.0820 O.3     1  LIG1       -0.4806
     33 O          -3.2777    0.5139   -6.2290 O.2     1  LIG1       -0.2510
     34 C           2.4451    1.3670   -3.5224 C.2     1  LIG1       -0.0761
     35 C           3.3715    0.3203   -2.9592 C.3     1  LIG1       -0.0438
     36 C           2.9145    2.1728   -4.4946 C.2     1  LIG1       -0.0994
     37 H          -0.8887   -4.0323    2.4499 H       1  LIG1        0.0257
     38 H          -1.1223   -3.1789    0.9972 H       1  LIG1        0.0257
     39 H          -2.4799   -3.3369    2.1535 H       1  LIG1        0.0257
     40 H           3.8069   -3.3240    3.7782 H       1  LIG1        0.0258
     41 H           3.1241   -2.7905    5.3285 H       1  LIG1        0.0258
     42 H           4.4636   -1.9076    4.5777 H       1  LIG1        0.0258
     43 H           2.5473   -0.7242    1.8442 H       1  LIG1        0.2102
     44 H           1.6690   -0.4888    5.2976 H       1  LIG1        0.0258
     45 H           1.6610    0.4226    3.7702 H       1  LIG1        0.0258
     46 H           3.1565    0.2349    4.6612 H       1  LIG1        0.0258
     47 H           0.9027   -2.7712    5.3557 H       1  LIG1        0.0292
     48 H           0.3140   -3.9852    4.2457 H       1  LIG1        0.0292
     49 H          -0.8182   -1.2746    4.8828 H       1  LIG1        0.0294
     50 H          -1.7177   -2.7717    4.6307 H       1  LIG1        0.0294
     51 H          -0.9621    0.6202    4.0069 H       1  LIG1        0.0269
     52 H          -2.6440    1.0028    3.7029 H       1  LIG1        0.0269
     53 H          -0.2431    2.0037    2.3041 H       1  LIG1        0.0271
     54 H          -1.8061    2.7209    2.4999 H       1  LIG1        0.0271
     55 H          -2.5407    3.3014    0.2730 H       1  LIG1        0.0235
     56 H          -3.7057    2.2377    1.0499 H       1  LIG1        0.0235
     57 H          -3.2888    1.9839   -0.6380 H       1  LIG1        0.0235
     58 H          -1.6930    1.4456   -2.0866 H       1  LIG1        0.0312
     59 H          -2.0135   -1.2528   -2.2510 H       1  LIG1        0.0268
     60 H          -3.0984   -0.0949   -1.5817 H       1  LIG1        0.0268
     61 H          -0.9134   -1.4639   -0.0034 H       1  LIG1        0.0268
     62 H          -2.6135   -1.9784   -0.0456 H       1  LIG1        0.0268
     63 H          -3.3840   -0.0449    0.9907 H       1  LIG1        0.0310
     64 H           0.4692    0.2619    1.3267 H       1  LIG1        0.0235
     65 H           1.4920    1.3934    0.6000 H       1  LIG1        0.0235
     66 H           1.1640   -0.1377   -0.2002 H       1  LIG1        0.0235
     67 H           0.2161    3.3420    0.0754 H       1  LIG1        0.0271
     68 H          -0.8389    3.2419   -1.3173 H       1  LIG1        0.0271
     69 H           2.0761    2.3459   -1.1298 H       1  LIG1        0.0271
     70 H           1.3763    3.5884   -2.1099 H       1  LIG1        0.0271
     71 H           0.5784    2.2783   -3.6393 H       1  LIG1        0.0351
     72 H           1.4495   -1.0148   -1.8265 H       1  LIG1        0.0235
     73 H           1.1576   -1.3504   -3.5217 H       1  LIG1        0.0235
     74 H          -0.0274   -1.7806   -2.3329 H       1  LIG1        0.0235
     75 H           0.0280   -0.0246   -4.9634 H       1  LIG1        0.0276
     76 H          -1.3782   -0.6540   -4.1733 H       1  LIG1        0.0276
     77 H          -0.9743    2.3353   -4.8204 H       1  LIG1        0.0378
     78 H          -2.3856    1.6576   -4.0464 H       1  LIG1        0.0378
     79 H          -1.9512    1.2846   -7.8850 H       1  LIG1        0.2951
     80 H           4.4232    0.5604   -3.1529 H       1  LIG1        0.0274
     81 H           3.1909   -0.6543   -3.4230 H       1  LIG1        0.0274
     82 H           3.2659    0.2359   -1.8744 H       1  LIG1        0.0274
     83 H           3.9184    2.0546   -4.8935 H       1  LIG1        0.0534
     84 H           2.3259    2.9921   -4.8955 H       1  LIG1        0.0534
@<TRIPOS>BOND
     1     2     3    1
     2     3     4    1
     3     4     5    1
     4     5     6    1
     5     5     7    1
     6     5     8    1
     7     4     9    1
     8     4    10    1
     9    10    11    1
    10     2    11    1
    11    12    14    1
    12    14    15    1
    13    15    16    1
    14    16    18    1
    15    18    19    1
    16    19    20    1
    17    20    21    1
    18    21    22    1
    19    16    22    1
    20    12    22    1
    21    18    24    1
    22    24    25    1
    23    25    26    1
    24    26    27    1
    25    19    27    1
    26    29    30    1
    27    30    31    1
    28    31    32    1
    29    31    33    2
    30    34    35    1
    31    34    36    2
    32    12    13    1
    33    16    17    1
    34    18    23    1
    35    26    34    1
    36     2    12    1
    37     2     1    1
    38    27    29    1
    39    27    28    1
    40     1    37    1
    41     1    38    1
    42     1    39    1
    43     6    40    1
    44     6    41    1
    45     6    42    1
    46     7    43    1
    47     8    44    1
    48     8    45    1
    49     8    46    1
    50    10    47    1
    51    10    48    1
    52    11    49    1
    53    11    50    1
    54    14    51    1
    55    14    52    1
    56    15    53    1
    57    15    54    1
    58    17    55    1
    59    17    56    1
    60    17    57    1
    61    19    58    1
    62    20    59    1
    63    20    60    1
    64    21    61    1
    65    21    62    1
    66    22    63    1
    67    23    64    1
    68    23    65    1
    69    23    66    1
    70    24    67    1
    71    24    68    1
    72    25    69    1
    73    25    70    1
    74    26    71    1
    75    28    72    1
    76    28    73    1
    77    28    74    1
    78    29    75    1
    79    29    76    1
    80    30    77    1
    81    30    78    1
    82    32    79    1
    83    35    80    1
    84    35    81    1
    85    35    82    1
    86    36    83    1
    87    36    84    1
