@<TRIPOS>MOLECULE
NuBBE_1252
 104 109 0 0 0
SMALL
GASTEIGER

@<TRIPOS>ATOM
      1 C          -0.6577   -4.9829    0.5820 C.3     1  LIG1       -0.0585
      2 C          -0.0638   -3.7669    1.3320 C.3     1  LIG1       -0.0194
      3 C           0.0358   -4.0785    2.8369 C.3     1  LIG1       -0.0463
      4 C          -1.0150   -3.4611    3.7349 C.3     1  LIG1       -0.0486
      5 C          -1.3421   -1.9916    3.4170 C.3     1  LIG1       -0.0277
      6 H          -0.4408   -1.4026    3.5711 H       1  LIG1        0.0312
      7 C          -1.6954   -1.7982    1.8763 C.3     1  LIG1       -0.0226
      8 C          -2.4746   -0.4584    1.6455 C.3     1  LIG1       -0.0184
      9 C          -3.3956    0.0990    2.7457 C.3     1  LIG1        0.0821
     10 H          -3.5806    1.1509    2.4891 H       1  LIG1        0.0619
     11 O          -4.6750   -0.5205    2.7132 O.3     1  LIG1       -0.3892
     12 C          -2.7452    0.0478    4.1225 C.3     1  LIG1        0.0864
     13 H          -3.4487    0.4308    4.8730 H       1  LIG1        0.0624
     14 O          -1.6121    0.9266    4.1247 O.3     1  LIG1       -0.3887
     15 C          -2.3032   -1.3800    4.5249 C.3     1  LIG1       -0.0032
     16 C          -3.5291   -2.2576    4.8670 C.3     1  LIG1       -0.0571
     17 C          -1.5148   -1.2475    5.8671 C.3     1  LIG1       -0.0571
     18 C          -2.8649   -2.8338    1.5179 C.3     1  LIG1       -0.0589
     19 C          -0.3397   -2.3178    0.7706 C.3     1  LIG1       -0.0257
     20 H          -1.0738   -2.6260    0.0437 H       1  LIG1        0.0315
     21 C           1.3882   -1.7001   -0.2801 C.3     1  LIG1       -0.0306
     22 C           1.8140   -2.5185   -1.4744 C.2     1  LIG1       -0.0836
     23 C           0.6960   -3.0170   -1.0514 C.2     1  LIG1       -0.0629
     24 C           1.2043   -3.3440    0.8031 C.3     1  LIG1       -0.0051
     25 C           2.4059   -4.2920    0.9310 C.3     1  LIG1       -0.0553
     26 C           1.4576   -1.6977    1.8386 C.3     1  LIG1       -0.0424
     27 C           0.5806   -0.1605    1.1461 C.3     1  LIG1       -0.0358
     28 C          -0.1497   -0.0170   -0.6105 C.3     1  LIG1        0.0774
     29 C           0.8794    0.9879   -1.3272 C.2     1  LIG1        0.3496
     30 O           1.0669    2.1062   -0.5437 O.3     1  LIG1       -0.2964
     31 O           2.0970    2.9287   -1.1954 O.3     1  LIG1       -0.1807
     32 C           1.3972    4.0256   -1.7838 C.3     1  LIG1        0.1232
     33 C           2.3496    4.9927   -2.5028 C.3     1  LIG1        0.1172
     34 H           1.7150    5.6336   -3.1295 H       1  LIG1        0.0648
     35 C           3.4097    4.2963   -3.3849 C.3     1  LIG1        0.1120
     36 H           3.9794    3.5477   -2.8216 H       1  LIG1        0.0647
     37 C           4.4008    5.3372   -3.9442 C.3     1  LIG1        0.1141
     38 H           3.9226    5.9381   -4.7280 H       1  LIG1        0.0648
     39 C           4.9301    6.2493   -2.8388 C.3     1  LIG1        0.1339
     40 H           5.5527    5.6795   -2.1376 H       1  LIG1        0.0671
     41 C           3.7305    6.8696   -2.1105 C.3     1  LIG1        0.1854
     42 H           3.1066    7.4517   -2.7999 H       1  LIG1        0.0935
     43 O           2.9687    5.8283   -1.5123 O.3     1  LIG1       -0.3405
     44 O           4.1802    7.7752   -1.1126 O.3     1  LIG1       -0.3649
     45 O           5.7687    7.2766   -3.3882 O.3     1  LIG1       -0.3841
     46 O           5.5144    4.6934   -4.5855 O.3     1  LIG1       -0.3864
     47 O           2.8019    3.6280   -4.5004 O.3     1  LIG1       -0.3865
     48 O           1.4032    0.8308   -2.4254 O.2     1  LIG1       -0.2469
     49 C          -0.4004   -1.5705   -1.5422 C.3     1  LIG1       -0.0030
     50 H          -1.4316   -1.8882   -1.3562 H       1  LIG1        0.0357
     51 C          -0.5293   -1.2813   -3.0532 C.3     1  LIG1       -0.0403
     52 C          -1.6944   -0.2841   -3.3517 C.3     1  LIG1       -0.0343
     53 C          -1.5609    0.1973   -4.8113 C.3     1  LIG1       -0.0598
     54 C          -3.0479   -1.0269   -3.2304 C.3     1  LIG1       -0.0598
     55 C          -1.7126    0.9810   -2.4381 C.3     1  LIG1       -0.0468
     56 C          -1.4564    0.7587   -0.9265 C.3     1  LIG1       -0.0361
     57 H          -1.4796   -5.4372    1.1449 H       1  LIG1        0.0235
     58 H           0.0866   -5.7753    0.4508 H       1  LIG1        0.0235
     59 H          -1.0671   -4.7412   -0.4034 H       1  LIG1        0.0235
     60 H           1.0143   -3.8169    3.2541 H       1  LIG1        0.0271
     61 H           0.0045   -5.1674    2.9858 H       1  LIG1        0.0271
     62 H          -0.6512   -3.5561    4.7637 H       1  LIG1        0.0268
     63 H          -1.9168   -4.0809    3.7008 H       1  LIG1        0.0268
     64 H          -3.1378   -0.5995    0.7875 H       1  LIG1        0.0296
     65 H          -1.8128    0.3673    1.4365 H       1  LIG1        0.0296
     66 H          -5.2447   -0.0725    3.3622 H       1  LIG1        0.2099
     67 H          -1.9417    1.8394    4.0581 H       1  LIG1        0.2099
     68 H          -4.1282   -2.5345    4.0030 H       1  LIG1        0.0236
     69 H          -4.1953   -1.7350    5.5644 H       1  LIG1        0.0236
     70 H          -3.2341   -3.1902    5.3606 H       1  LIG1        0.0236
     71 H          -2.0933   -0.6761    6.6033 H       1  LIG1        0.0236
     72 H          -0.5567   -0.7342    5.7309 H       1  LIG1        0.0236
     73 H          -1.3027   -2.2211    6.3198 H       1  LIG1        0.0236
     74 H          -3.8075   -2.6003    2.0087 H       1  LIG1        0.0235
     75 H          -2.6538   -3.8639    1.7851 H       1  LIG1        0.0235
     76 H          -3.0859   -2.8203    0.4431 H       1  LIG1        0.0235
     77 H           2.4035   -1.8425    0.1827 H       1  LIG1        0.0310
     78 H           1.6829   -0.6876   -0.5047 H       1  LIG1        0.0310
     79 H           2.0278   -1.9868   -2.3943 H       1  LIG1        0.0572
     80 H           2.2689   -5.1895    0.3210 H       1  LIG1        0.0238
     81 H           2.5751   -4.6079    1.9647 H       1  LIG1        0.0238
     82 H           3.3296   -3.8118    0.5941 H       1  LIG1        0.0238
     83 H           2.5336   -1.4533    1.9057 H       1  LIG1        0.0274
     84 H           1.1995   -1.8372    2.8822 H       1  LIG1        0.0274
     85 H           1.4074    0.5655    1.1781 H       1  LIG1        0.0276
     86 H          -0.0763    0.2171    1.9233 H       1  LIG1        0.0276
     87 H           0.8624    4.5523   -0.9832 H       1  LIG1        0.0629
     88 H           0.6681    3.6328   -2.4973 H       1  LIG1        0.0629
     89 H           5.0022    8.1596   -1.4726 H       1  LIG1        0.2126
     90 H           6.4143    6.7985   -3.9456 H       1  LIG1        0.2101
     91 H           5.1202    4.0647   -5.2220 H       1  LIG1        0.2100
     92 H           2.3834    2.8122   -4.1628 H       1  LIG1        0.2100
     93 H          -0.7203   -2.2295   -3.5751 H       1  LIG1        0.0276
     94 H           0.4066   -0.9150   -3.4785 H       1  LIG1        0.0276
     95 H          -1.5809   -0.6421   -5.5141 H       1  LIG1        0.0235
     96 H          -0.6185    0.7371   -4.9612 H       1  LIG1        0.0235
     97 H          -2.3766    0.8799   -5.0777 H       1  LIG1        0.0235
     98 H          -3.0510   -1.9396   -3.8382 H       1  LIG1        0.0235
     99 H          -3.8782   -0.4014   -3.5759 H       1  LIG1        0.0235
    100 H          -3.2757   -1.3170   -2.2002 H       1  LIG1        0.0235
    101 H          -2.6947    1.4666   -2.5322 H       1  LIG1        0.0271
    102 H          -1.0054    1.7262   -2.8190 H       1  LIG1        0.0271
    103 H          -2.3231    0.1938   -0.6257 H       1  LIG1        0.0276
    104 H          -1.4828    1.7234   -0.4067 H       1  LIG1        0.0276
@<TRIPOS>BOND
     1     1     2    1
     2     2     3    1
     3     3     4    1
     4     4     5    1
     5     5     6    1
     6     5     7    1
     7     7     8    1
     8     8     9    1
     9     9    12    1
    10    12    13    1
    11    12    14    1
    12    12    15    1
    13    15    16    1
    14     5    15    1
    15    15    17    1
    16     7    18    1
    17     7    19    1
    18    19    20    1
    19     2    19    1
    20    19    21    1
    21    21    22    1
    22    22    23    2
    23    23    24    1
    24    24    25    1
    25     2    24    1
    26    24    26    1
    27    26    27    1
    28    27    28    1
    29    28    29    1
    30    29    30    1
    31    30    31    1
    32    31    32    1
    33    33    35    1
    34    35    36    1
    35    35    37    1
    36    37    38    1
    37    37    39    1
    38    39    41    1
    39    41    42    1
    40    41    43    1
    41    33    43    1
    42    41    44    1
    43    37    46    1
    44    35    47    1
    45    29    48    2
    46    28    49    1
    47    49    50    1
    48    23    49    1
    49    49    51    1
    50    51    52    1
    51    52    53    1
    52    52    54    1
    53    52    55    1
    54    55    56    1
    55    28    56    1
    56     9    11    1
    57     9    10    1
    58    33    34    1
    59    33    32    1
    60    39    45    1
    61    39    40    1
    62     1    57    1
    63     1    58    1
    64     1    59    1
    65     3    60    1
    66     3    61    1
    67     4    62    1
    68     4    63    1
    69     8    64    1
    70     8    65    1
    71    11    66    1
    72    14    67    1
    73    16    68    1
    74    16    69    1
    75    16    70    1
    76    17    71    1
    77    17    72    1
    78    17    73    1
    79    18    74    1
    80    18    75    1
    81    18    76    1
    82    21    77    1
    83    21    78    1
    84    22    79    1
    85    25    80    1
    86    25    81    1
    87    25    82    1
    88    26    83    1
    89    26    84    1
    90    27    85    1
    91    27    86    1
    92    32    87    1
    93    32    88    1
    94    44    89    1
    95    45    90    1
    96    46    91    1
    97    47    92    1
    98    51    93    1
    99    51    94    1
   100    53    95    1
   101    53    96    1
   102    53    97    1
   103    54    98    1
   104    54    99    1
   105    54   100    1
   106    55   101    1
   107    55   102    1
   108    56   103    1
   109    56   104    1
