@<TRIPOS>MOLECULE
NuBBE_1724
 47 50 0 0 0
SMALL
GASTEIGER

@<TRIPOS>ATOM
      1 O          -2.9917   -2.0311   -0.7013 O.3     1  LIG1       -0.4942
      2 C          -3.6316   -3.1007   -0.0098 C.3     1  LIG1        0.0788
      3 C          -1.6298   -1.9525   -0.5845 C.ar    1  LIG1        0.1380
      4 C          -1.0010   -0.7099   -0.7777 C.ar    1  LIG1        0.1069
      5 C           0.3846   -0.5722   -0.5856 C.ar    1  LIG1        0.1534
      6 C           1.1657   -1.6886   -0.2601 C.ar    1  LIG1        0.0597
      7 C           0.5379   -2.9242   -0.1017 C.ar    1  LIG1        0.1359
      8 C          -0.8387   -3.0596   -0.2729 C.ar    1  LIG1        0.0234
      9 O           1.2012   -4.0765    0.2114 O.3     1  LIG1       -0.4814
     10 C           2.5315   -3.9576    0.7530 C.3     1  LIG1        0.1235
     11 C           3.2477   -2.6769    0.3952 C.2     1  LIG1       -0.0408
     12 C           2.6119   -1.6052   -0.0861 C.2     1  LIG1       -0.0478
     13 C           3.3042   -5.1501    0.1839 C.3     1  LIG1       -0.0215
     14 C           2.4161   -4.0790    2.2766 C.3     1  LIG1       -0.0215
     15 O           1.0459    0.6367   -0.6783 O.2     1  LIG1       -0.4536
     16 C           0.2943    1.7782   -0.6284 C.ar    1  LIG1        0.1430
     17 C          -1.0680    1.7864   -0.8635 C.ar    1  LIG1        0.0684
     18 C          -1.7480    0.5137   -1.1394 C.ar    1  LIG1        0.2039
     19 O          -2.8638    0.5167   -1.6285 O.2     1  LIG1       -0.2863
     20 C          -1.7967    2.9713   -0.7925 C.ar    1  LIG1       -0.0019
     21 C          -1.1619    4.1692   -0.4454 C.ar    1  LIG1        0.1624
     22 C           0.2336    4.1792   -0.2624 C.ar    1  LIG1        0.1650
     23 C           0.9502    2.9745   -0.3413 C.ar    1  LIG1        0.0267
     24 O           1.0179    5.2560    0.0655 O.3     1  LIG1       -0.4913
     25 C           0.5928    6.5245   -0.4200 C.3     1  LIG1        0.0790
     26 O          -1.8706    5.3297   -0.2762 O.3     1  LIG1       -0.4914
     27 C          -3.2155    5.1665    0.1730 C.3     1  LIG1        0.0790
     28 H          -4.7131   -2.9482   -0.0709 H       1  LIG1        0.0660
     29 H          -3.3537   -3.1089    1.0505 H       1  LIG1        0.0660
     30 H          -3.4114   -4.0644   -0.4801 H       1  LIG1        0.0660
     31 H          -1.2643   -4.0502   -0.1527 H       1  LIG1        0.0691
     32 H           4.3195   -2.6258    0.5652 H       1  LIG1        0.0611
     33 H           3.1376   -0.6872   -0.3232 H       1  LIG1        0.0624
     34 H           3.3485   -5.0965   -0.9110 H       1  LIG1        0.0271
     35 H           2.7965   -6.0917    0.4242 H       1  LIG1        0.0271
     36 H           4.3274   -5.1996    0.5699 H       1  LIG1        0.0271
     37 H           1.8255   -3.2532    2.6927 H       1  LIG1        0.0271
     38 H           3.3972   -4.0758    2.7629 H       1  LIG1        0.0271
     39 H           1.8909   -4.9998    2.5553 H       1  LIG1        0.0271
     40 H          -2.8622    2.9261   -0.9922 H       1  LIG1        0.0663
     41 H           2.0238    2.9755   -0.1661 H       1  LIG1        0.0692
     42 H           1.4385    7.2144   -0.3326 H       1  LIG1        0.0660
     43 H          -0.2106    6.9332    0.1986 H       1  LIG1        0.0660
     44 H           0.3098    6.4806   -1.4773 H       1  LIG1        0.0660
     45 H          -3.5889    6.1455    0.4848 H       1  LIG1        0.0660
     46 H          -3.2699    4.4948    1.0380 H       1  LIG1        0.0660
     47 H          -3.8590    4.8130   -0.6391 H       1  LIG1        0.0660
@<TRIPOS>BOND
     1     1     2    1
     2     1     3    1
     3     3     4   ar
     4     4     5   ar
     5     5     6   ar
     6     6     7   ar
     7     7     8   ar
     8     3     8   ar
     9     7     9    1
    10     9    10    1
    11    10    11    1
    12    11    12    2
    13     6    12    1
    14    10    13    1
    15    10    14    1
    16     5    15   ar
    17    15    16   ar
    18    16    17   ar
    19    17    18   ar
    20     4    18   ar
    21    18    19    2
    22    17    20   ar
    23    20    21   ar
    24    21    22   ar
    25    22    23   ar
    26    16    23   ar
    27    22    24    1
    28    24    25    1
    29    21    26    1
    30    26    27    1
    31     2    28    1
    32     2    29    1
    33     2    30    1
    34     8    31    1
    35    11    32    1
    36    12    33    1
    37    13    34    1
    38    13    35    1
    39    13    36    1
    40    14    37    1
    41    14    38    1
    42    14    39    1
    43    20    40    1
    44    23    41    1
    45    25    42    1
    46    25    43    1
    47    25    44    1
    48    27    45    1
    49    27    46    1
    50    27    47    1
