@<TRIPOS>MOLECULE
NuBBE_1371
 38 40 0 0 0
SMALL
GASTEIGER

@<TRIPOS>ATOM
      1 O          -1.9925   -1.1652    2.5126 O.2     1  LIG1       -0.2507
      2 C          -1.8745   -0.9258    1.3223 C.2     1  LIG1        0.3106
      3 O          -2.2257   -1.7674    0.3082 O.3     1  LIG1       -0.4648
      4 C          -2.6904   -3.0636    0.7162 C.3     1  LIG1        0.0896
      5 C          -4.1507   -3.0128    1.1278 C.3     1  LIG1       -0.0306
      6 C          -1.3044    0.3549    0.7664 C.3     1  LIG1        0.0852
      7 C           0.1569    0.5584    1.1946 C.3     1  LIG1        0.1635
      8 O           0.2454    0.6799    2.6203 O.3     1  LIG1       -0.3754
      9 C           0.6838    1.8554    0.5895 C.ar    1  LIG1       -0.0003
     10 C           0.3732    3.0866    1.2069 C.ar    1  LIG1       -0.0548
     11 C           0.7853    4.2935    0.6525 C.ar    1  LIG1       -0.0614
     12 C           1.5239    4.2878   -0.5208 C.ar    1  LIG1       -0.0612
     13 C           1.8516    3.0752   -1.1351 C.ar    1  LIG1       -0.0536
     14 C           1.4303    1.8357   -0.6103 C.ar    1  LIG1       -0.0109
     15 C           1.7457    0.5431   -1.2647 C.ar    1  LIG1       -0.0069
     16 C           2.2383    0.4507   -2.5805 C.ar    1  LIG1       -0.0533
     17 C           2.5234   -0.7846   -3.1759 C.ar    1  LIG1       -0.0611
     18 C           2.3343   -1.9654   -2.4679 C.ar    1  LIG1       -0.0611
     19 C           1.8550   -1.9112   -1.1648 C.ar    1  LIG1       -0.0506
     20 C           1.5539   -0.6709   -0.5813 C.ar    1  LIG1        0.0284
     21 C           0.9870   -0.6602    0.7830 C.2     1  LIG1        0.2000
     22 O           1.1101   -1.6418    1.5160 O.2     1  LIG1       -0.2886
     23 H          -2.0596   -3.4655    1.5171 H       1  LIG1        0.0694
     24 H          -2.5760   -3.7292   -0.1466 H       1  LIG1        0.0694
     25 H          -4.2979   -2.3424    1.9798 H       1  LIG1        0.0262
     26 H          -4.5105   -4.0079    1.4051 H       1  LIG1        0.0262
     27 H          -4.7689   -2.6279    0.3105 H       1  LIG1        0.0262
     28 H          -1.9522    1.1685    1.1140 H       1  LIG1        0.0414
     29 H          -1.3880    0.3318   -0.3290 H       1  LIG1        0.0414
     30 H           0.1996   -0.2319    2.9784 H       1  LIG1        0.2112
     31 H          -0.1948    3.1012    2.1368 H       1  LIG1        0.0621
     32 H           0.5343    5.2321    1.1396 H       1  LIG1        0.0618
     33 H           1.8532    5.2263   -0.9601 H       1  LIG1        0.0618
     34 H           2.4565    3.1313   -2.0360 H       1  LIG1        0.0624
     35 H           2.4008    1.3386   -3.1858 H       1  LIG1        0.0624
     36 H           2.8918   -0.8188   -4.1988 H       1  LIG1        0.0618
     37 H           2.5520   -2.9243   -2.9311 H       1  LIG1        0.0618
     38 H           1.6999   -2.8341   -0.6089 H       1  LIG1        0.0625
@<TRIPOS>BOND
     1     1     2    2
     2     2     3    1
     3     3     4    1
     4     4     5    1
     5     2     6    1
     6     6     7    1
     7     7     8    1
     8     7     9    1
     9     9    10   ar
    10    10    11   ar
    11    11    12   ar
    12    12    13   ar
    13    13    14   ar
    14     9    14   ar
    15    14    15    1
    16    15    16   ar
    17    16    17   ar
    18    17    18   ar
    19    18    19   ar
    20    19    20   ar
    21    15    20   ar
    22    20    21    1
    23     7    21    1
    24    21    22    2
    25     4    23    1
    26     4    24    1
    27     5    25    1
    28     5    26    1
    29     5    27    1
    30     6    28    1
    31     6    29    1
    32     8    30    1
    33    10    31    1
    34    11    32    1
    35    12    33    1
    36    13    34    1
    37    16    35    1
    38    17    36    1
    39    18    37    1
    40    19    38    1
