REMARK  Name = NuBBE_1121
REMARK  17 active torsions:
REMARK  status: ('A' for Active; 'I' for Inactive)
REMARK    1  A    between atoms: C_1  and  C_2
REMARK    2  A    between atoms: C_6  and  C_29
REMARK    3  A    between atoms: C_7  and  C_8
REMARK    4  A    between atoms: C_9  and  C_11
REMARK    5  A    between atoms: C_11  and  C_13
REMARK    6  A    between atoms: C_11  and  C_14
REMARK    7  A    between atoms: C_14  and  C_15
REMARK    8  A    between atoms: C_15  and  O_17
REMARK    9  A    between atoms: C_15  and  C_18
REMARK   10  A    between atoms: C_18  and  O_20
REMARK   11  A    between atoms: C_18  and  C_21
REMARK   12  A    between atoms: C_21  and  O_22
REMARK   13  A    between atoms: C_21  and  C_23
REMARK   14  A    between atoms: C_21  and  C_24
REMARK   15  A    between atoms: C_34  and  C_35
REMARK   16  A    between atoms: C_34  and  C_41
REMARK   17  A    between atoms: C_36  and  O_40
REMARK                            x       y       z     vdW  Elec       q    Type
REMARK                         _______ _______ _______ _____ _____    ______ ____
ROOT
ATOM      1  C   LIG A   1       2.222   1.839  -4.080  0.00  0.00    +0.012 C 
ATOM      2  C   LIG A   1       1.874   0.339  -3.753  0.00  0.00    -0.022 C 
ATOM      3  C   LIG A   1       0.974   0.398  -2.446  0.00  0.00    +0.021 C 
ATOM      4  C   LIG A   1       1.736   0.404  -1.122  0.00  0.00    -0.063 C 
ATOM      5  C   LIG A   1       0.883   0.669   0.153  0.00  0.00    -0.005 C 
ATOM      6  C   LIG A   1      -0.462  -0.214   0.160  0.00  0.00    -0.020 C 
ATOM      7  C   LIG A   1      -1.765   0.596  -0.015  0.00  0.00    +0.012 C 
ATOM      8  C   LIG A   1      -0.417  -1.078   1.491  0.00  0.00    -0.001 C 
ATOM      9  C   LIG A   1       1.077  -1.125   1.821  0.00  0.00    +0.005 C 
ATOM     10  C   LIG A   1       1.570   0.267   1.492  0.00  0.00    +0.012 C 
ATOM     11  C   LIG A   1      -0.420  -1.220  -1.035  0.00  0.00    +0.008 C 
ATOM     12  C   LIG A   1      -0.265  -0.521  -2.381  0.00  0.00    +0.009 C 
ATOM     13  C   LIG A   1       0.652   2.193   0.204  0.00  0.00    +0.016 C 
ATOM     14  C   LIG A   1       3.090   0.265  -1.105  0.00  0.00    -0.026 C 
ATOM     15  C   LIG A   1       3.956   0.098  -2.299  0.00  0.00    +0.031 C 
ATOM     16  C   LIG A   1       3.232  -0.423  -3.551  0.00  0.00    +0.007 C 
ATOM     17  C   LIG A   1       3.201  -2.002  -3.709  0.00  0.00    -0.005 C 
ATOM     18  C   LIG A   1       3.622  -2.786  -2.440  0.00  0.00    +0.014 C 
ATOM     19  C   LIG A   1       1.802  -2.516  -4.113  0.00  0.00    +0.120 C 
ATOM     20  C   LIG A   1       1.136  -1.702  -5.214  0.00  0.00    +0.032 C 
ATOM     21  C   LIG A   1       1.162  -0.188  -5.019  0.00  0.00    +0.010 C 
ATOM     22  C   LIG A   1       4.231  -2.385  -4.808  0.00  0.00    +0.014 C 
ENDROOT
BRANCH   8  23
ATOM     23  C   LIG A   1      -1.332  -0.693   2.709  0.00  0.00    -0.008 C 
ATOM     24  C   LIG A   1      -1.247  -1.769   3.811  0.00  0.00    +0.008 C 
BRANCH  23  25
ATOM     25  C   LIG A   1      -1.064   0.680   3.357  0.00  0.00    +0.037 C 
BRANCH  25  26
ATOM     26  C   LIG A   1      -2.056   1.146   4.442  0.00  0.00    +0.146 C 
BRANCH  26  27
ATOM     27  O   LIG A   1      -1.571   2.425   4.880  0.00  0.00    -0.389 OA
ATOM     28  H   LIG A   1      -1.802   3.043   4.157  0.00  0.00    +0.210 HD
ENDBRANCH  26  27
BRANCH  26  29
ATOM     29  C   LIG A   1      -3.510   1.292   3.937  0.00  0.00    +0.174 C 
BRANCH  29  30
ATOM     30  C   LIG A   1      -4.553   1.671   5.033  0.00  0.00    +0.089 C 
ATOM     31  C   LIG A   1      -4.344   3.063   5.642  0.00  0.00    +0.044 C 
ATOM     32  C   LIG A   1      -5.963   1.614   4.427  0.00  0.00    +0.044 C 
BRANCH  30  33
ATOM     33  O   LIG A   1      -4.534   0.689   6.076  0.00  0.00    -0.387 OA
ATOM     34  H   LIG A   1      -3.929   1.000   6.775  0.00  0.00    +0.210 HD
ENDBRANCH  30  33
ENDBRANCH  29  30
BRANCH  29  35
ATOM     35  O   LIG A   1      -3.507   2.267   2.880  0.00  0.00    -0.386 OA
ATOM     36  H   LIG A   1      -4.301   2.105   2.339  0.00  0.00    +0.210 HD
ENDBRANCH  29  35
ENDBRANCH  26  29
ENDBRANCH  25  26
ENDBRANCH  23  25
ENDBRANCH   8  23
BRANCH  19  37
ATOM     37  O   LIG A   1       1.851  -3.882  -4.537  0.00  0.00    -0.391 OA
ATOM     38  H   LIG A   1       0.933  -4.185  -4.644  0.00  0.00    +0.210 HD
ENDBRANCH  19  37
TORSDOF 9
