REMARK  Name = NuBBE_202
REMARK  8 active torsions:
REMARK  status: ('A' for Active; 'I' for Inactive)
REMARK    1  A    between atoms: C_1  and  C_2
REMARK    2  A    between atoms: C_3  and  C_4
REMARK    3  A    between atoms: C_4  and  O_5
REMARK    4  A    between atoms: C_12  and  C_18
REMARK    5  A    between atoms: C_12  and  C_25
REMARK    6  A    between atoms: C_13  and  C_15
REMARK    7  A    between atoms: C_18  and  C_19
REMARK    8  A    between atoms: C_19  and  C_20
REMARK                            x       y       z     vdW  Elec       q    Type
REMARK                         _______ _______ _______ _____ _____    ______ ____
ROOT
ATOM      1  C   LIG A   1      -3.208   0.650   0.262  0.00  0.00    +0.016 C 
ATOM      2  C   LIG A   1      -1.759   1.191   0.246  0.00  0.00    +0.003 C 
ATOM      3  C   LIG A   1      -1.682   2.221   1.399  0.00  0.00    +0.039 C 
ATOM      4  C   LIG A   1      -1.213   1.887   2.622  0.00  0.00    -0.016 C 
ATOM      5  C   LIG A   1      -0.710   0.528   3.006  0.00  0.00    +0.028 C 
ATOM      6  C   LIG A   1      -0.859  -0.524   1.909  0.00  0.00    +0.009 C 
ATOM      7  C   LIG A   1      -0.639   0.107   0.516  0.00  0.00    +0.006 C 
ATOM      8  C   LIG A   1      -0.281  -0.934  -0.622  0.00  0.00    -0.026 C 
ATOM      9  C   LIG A   1      -0.249  -0.229  -2.029  0.00  0.00    -0.008 C 
ATOM     10  C   LIG A   1      -0.211  -1.197  -3.224  0.00  0.00    +0.008 C 
ATOM     11  C   LIG A   1      -1.392   0.768  -2.250  0.00  0.00    +0.004 C 
ATOM     12  C   LIG A   1      -1.467   1.811  -1.139  0.00  0.00    +0.012 C 
ATOM     13  C   LIG A   1      -1.281  -2.119  -0.633  0.00  0.00    +0.012 C 
ENDROOT
BRANCH   3  14
ATOM     14  C   LIG A   1      -2.176   3.609   1.198  0.00  0.00    +0.333 C 
ATOM     15  O   LIG A   1      -2.933   3.989   0.320  0.00  0.00    -0.245 OA
BRANCH  14  16
ATOM     16  O   LIG A   1      -1.688   4.485   2.094  0.00  0.00    -0.477 OA
ATOM     17  H   LIG A   1      -2.095   5.336   1.834  0.00  0.00    +0.295 HD
ENDBRANCH  14  16
ENDBRANCH   3  14
BRANCH   8  18
ATOM     18  C   LIG A   1       1.153  -1.574  -0.330  0.00  0.00    +0.012 C 
BRANCH  18  19
ATOM     19  C   LIG A   1       2.346  -0.596  -0.264  0.00  0.00    +0.039 C 
BRANCH  19  20
ATOM     20  C   LIG A   1       3.667  -1.243   0.009  0.00  0.00    -0.010 A 
ATOM     21  C   LIG A   1       4.560  -1.736  -0.922  0.00  0.00    +0.198 A 
ATOM     22  O   LIG A   1       5.699  -2.166  -0.322  0.00  0.00    -0.471 OA
ATOM     23  C   LIG A   1       5.550  -1.949   1.008  0.00  0.00    +0.195 A 
ATOM     24  C   LIG A   1       4.319  -1.391   1.267  0.00  0.00    +0.044 A 
ENDBRANCH  19  20
ENDBRANCH  18  19
ENDBRANCH   8  18
TORSDOF 5
