@<TRIPOS>MOLECULE
NuBBE_381
 68 72 0 0 0
SMALL
GASTEIGER

@<TRIPOS>ATOM
      1 O          -3.3225   -4.0863   -4.3877 O.2     1  LIG1       -0.2840
      2 C          -2.5500   -4.0363   -3.4636 C.2     1  LIG1        0.2206
      3 C          -1.9729   -5.3014   -2.9038 C.2     1  LIG1        0.1671
      4 O          -2.4248   -6.4884   -3.4562 O.2     1  LIG1       -0.5030
      5 C          -1.0504   -5.2661   -1.9334 C.2     1  LIG1        0.0022
      6 C          -0.5134   -6.5390   -1.3113 C.3     1  LIG1       -0.0356
      7 C          -0.5329   -3.9461   -1.5157 C.2     1  LIG1       -0.0144
      8 C           0.6157   -3.8782   -0.8339 C.2     1  LIG1       -0.0539
      9 C           1.1537   -2.6506   -0.3452 C.2     1  LIG1       -0.0606
     10 C           0.4279   -1.5038   -0.3224 C.2     1  LIG1       -0.0529
     11 C           0.6900   -0.5539    0.8536 C.3     1  LIG1       -0.0043
     12 C          -0.2539    0.6966    1.2360 C.3     1  LIG1       -0.0195
     13 C          -0.1860    0.8215    2.8111 C.3     1  LIG1       -0.0585
     14 C          -1.6823    0.3203    0.7261 C.3     1  LIG1       -0.0455
     15 C          -1.8330   -0.3944   -0.6665 C.3     1  LIG1       -0.0393
     16 C          -0.7052   -1.2976   -1.2840 C.3     1  LIG1        0.0154
     17 C          -0.0485   -0.5598   -2.4900 C.3     1  LIG1       -0.0517
     18 C          -1.2188   -2.6751   -1.8730 C.2     1  LIG1       -0.0262
     19 C          -2.1644   -2.7448   -2.8251 C.2     1  LIG1       -0.0067
     20 C           2.1519   -0.0555    0.6002 C.3     1  LIG1       -0.0428
     21 C           2.2835    1.3313   -0.1008 C.3     1  LIG1       -0.0438
     22 C           1.6377    2.4918    0.6762 C.3     1  LIG1        0.0042
     23 C           0.1083    2.1664    0.7161 C.3     1  LIG1       -0.0261
     24 H          -0.2471    2.1986   -0.3255 H       1  LIG1        0.0313
     25 C          -0.6681    3.3460    1.4433 C.3     1  LIG1       -0.0397
     26 C          -0.4777    4.7165    0.7803 C.3     1  LIG1        0.0176
     27 H          -0.8916    4.6941   -0.2328 H       1  LIG1        0.0376
     28 C          -1.1706    5.8400    1.5608 C.3     1  LIG1       -0.0556
     29 C           1.0177    4.9497    0.6779 C.2     1  LIG1        0.1649
     30 O           1.5933    5.9260    1.1608 O.2     1  LIG1       -0.2944
     31 C           1.7984    3.8595   -0.0712 C.3     1  LIG1        0.1188
     32 H           1.3872    3.8145   -1.0860 H       1  LIG1        0.0678
     33 O           3.1648    4.2424   -0.1961 O.3     1  LIG1       -0.3837
     34 C           2.3594    2.6164    2.0472 C.3     1  LIG1       -0.0565
     35 C           0.3557   -1.6419    2.0085 C.3     1  LIG1       -0.0553
     36 H          -2.9925   -6.2161   -4.2047 H       1  LIG1        0.2923
     37 H          -0.9324   -7.4438   -1.7654 H       1  LIG1        0.0279
     38 H          -0.7610   -6.5788   -0.2434 H       1  LIG1        0.0279
     39 H           0.5726   -6.6228   -1.4225 H       1  LIG1        0.0279
     40 H           1.1520   -4.7615   -0.4964 H       1  LIG1        0.0624
     41 H           2.0122   -2.7966    0.3124 H       1  LIG1        0.0618
     42 H          -0.7962    0.0758    3.3270 H       1  LIG1        0.0235
     43 H          -0.5152    1.7588    3.2453 H       1  LIG1        0.0235
     44 H           0.8543    0.6996    3.1465 H       1  LIG1        0.0235
     45 H          -2.3096    1.2198    0.6848 H       1  LIG1        0.0271
     46 H          -2.1831   -0.3033    1.4759 H       1  LIG1        0.0271
     47 H          -2.0687    0.3945   -1.3948 H       1  LIG1        0.0277
     48 H          -2.7571   -0.9835   -0.5952 H       1  LIG1        0.0277
     49 H           0.2526    0.4566   -2.2269 H       1  LIG1        0.0241
     50 H          -0.7219   -0.4733   -3.3492 H       1  LIG1        0.0241
     51 H           0.8496   -1.0863   -2.8462 H       1  LIG1        0.0241
     52 H          -2.6574   -1.8723   -3.2303 H       1  LIG1        0.0660
     53 H           2.6957   -0.7192   -0.0866 H       1  LIG1        0.0274
     54 H           2.7303   -0.1060    1.5224 H       1  LIG1        0.0274
     55 H           1.8348    1.2839   -1.1008 H       1  LIG1        0.0272
     56 H           3.3449    1.5410   -0.2792 H       1  LIG1        0.0272
     57 H          -0.3197    3.4724    2.4741 H       1  LIG1        0.0275
     58 H          -1.7378    3.1218    1.5072 H       1  LIG1        0.0275
     59 H          -0.6171    6.1294    2.4621 H       1  LIG1        0.0236
     60 H          -2.1843    5.5595    1.8657 H       1  LIG1        0.0236
     61 H          -1.2500    6.7370    0.9349 H       1  LIG1        0.0236
     62 H           3.3020    4.9762    0.4413 H       1  LIG1        0.2104
     63 H           2.7716    1.6732    2.4062 H       1  LIG1        0.0236
     64 H           1.7163    3.0041    2.8373 H       1  LIG1        0.0236
     65 H           3.2263    3.2841    1.9929 H       1  LIG1        0.0236
     66 H           0.6901   -1.3820    3.0096 H       1  LIG1        0.0238
     67 H           0.7091   -2.6688    1.8870 H       1  LIG1        0.0238
     68 H          -0.7414   -1.7858    2.0352 H       1  LIG1        0.0238
@<TRIPOS>BOND
     1     2     3    1
     2     3     5    2
     3     5     7    1
     4     7     8    2
     5     8     9    1
     6     9    10    2
     7    10    11    1
     8    11    12    1
     9    12    14    1
    10    14    15    1
    11    15    16    1
    12    10    16    1
    13    16    18    1
    14     7    18    1
    15    18    19    2
    16     2    19    1
    17    11    20    1
    18    20    21    1
    19    21    22    1
    20    22    23    1
    21    12    23    1
    22    23    25    1
    23    25    26    1
    24    26    29    1
    25    22    31    1
    26    29    31    1
    27     1     2    2
    28     3     4    1
    29     5     6    1
    30    11    35    1
    31    12    13    1
    32    16    17    1
    33    22    34    1
    34    23    24    1
    35    29    30    2
    36    31    33    1
    37    31    32    1
    38    26    28    1
    39    26    27    1
    40     4    36    1
    41     6    37    1
    42     6    38    1
    43     6    39    1
    44     8    40    1
    45     9    41    1
    46    13    42    1
    47    13    43    1
    48    13    44    1
    49    14    45    1
    50    14    46    1
    51    15    47    1
    52    15    48    1
    53    17    49    1
    54    17    50    1
    55    17    51    1
    56    19    52    1
    57    20    53    1
    58    20    54    1
    59    21    55    1
    60    21    56    1
    61    25    57    1
    62    25    58    1
    63    28    59    1
    64    28    60    1
    65    28    61    1
    66    33    62    1
    67    34    63    1
    68    34    64    1
    69    34    65    1
    70    35    66    1
    71    35    67    1
    72    35    68    1
