REMARK  Name = NuBBE_2186
REMARK  9 active torsions:
REMARK  status: ('A' for Active; 'I' for Inactive)
REMARK    1  A    between atoms: C_1  and  C_3
REMARK    2  A    between atoms: C_1  and  C_13
REMARK    3  A    between atoms: C_1  and  C_14
REMARK    4  A    between atoms: C_3  and  C_4
REMARK    5  A    between atoms: C_15  and  O_16
REMARK    6  A    between atoms: O_16  and  C_17
REMARK    7  A    between atoms: C_19  and  O_25
REMARK    8  A    between atoms: C_20  and  C_22
REMARK    9  A    between atoms: C_22  and  C_23
REMARK                            x       y       z     vdW  Elec       q    Type
REMARK                         _______ _______ _______ _____ _____    ______ ____
ROOT
ATOM      1  C   LIG A   1       1.022  -0.183  -1.042  0.00  0.00    -0.002 A 
ATOM      2  C   LIG A   1       0.159  -1.272  -1.253  0.00  0.00    +0.127 A 
ATOM      3  C   LIG A   1      -1.009  -1.123  -2.023  0.00  0.00    +0.091 A 
ATOM      4  C   LIG A   1      -1.332   0.116  -2.594  0.00  0.00    +0.124 A 
ATOM      5  C   LIG A   1      -0.497   1.219  -2.413  0.00  0.00    -0.002 A 
ATOM      6  C   LIG A   1       0.686   1.039  -1.684  0.00  0.00    +0.015 A 
ENDROOT
BRANCH   1   7
ATOM      7  C   LIG A   1       2.246  -0.147  -0.122  0.00  0.00    +0.024 C 
ATOM      8  C   LIG A   1       3.550  -0.435  -0.886  0.00  0.00    +0.013 C 
BRANCH   7   9
ATOM      9  C   LIG A   1       2.245  -0.958   1.199  0.00  0.00    +0.043 C 
BRANCH   9  10
ATOM     10  C   LIG A   1       1.161  -0.705   2.222  0.00  0.00    -0.043 A 
ATOM     11  C   LIG A   1       0.343   0.431   2.212  0.00  0.00    +0.053 A 
ATOM     12  C   LIG A   1      -0.713   0.470   3.097  0.00  0.00    +0.167 A 
ATOM     13  C   LIG A   1      -0.936  -0.530   4.013  0.00  0.00    +0.166 A 
ATOM     14  C   LIG A   1      -0.087  -1.604   4.135  0.00  0.00    +0.050 A 
ATOM     15  C   LIG A   1       0.978  -1.680   3.236  0.00  0.00    +0.007 A 
ATOM     16  O   LIG A   1      -2.064  -0.326   4.747  0.00  0.00    -0.453 OA
ATOM     17  C   LIG A   1      -2.504   0.939   4.210  0.00  0.00    +0.466 C 
ATOM     18  O   LIG A   1      -1.659   1.450   3.159  0.00  0.00    -0.453 OA
ENDBRANCH   9  10
ENDBRANCH   7   9
ENDBRANCH   1   7
BRANCH   2  19
ATOM     19  O   LIG A   1       0.308  -2.463  -0.586  0.00  0.00    -0.495 OA
ATOM     20  C   LIG A   1       1.200  -3.366  -1.249  0.00  0.00    +0.277 C 
ENDBRANCH   2  19
BRANCH   4  21
ATOM     21  O   LIG A   1      -2.478   0.250  -3.331  0.00  0.00    -0.506 OA
ATOM     22  H   LIG A   1      -3.032  -0.538  -3.203  0.00  0.00    +0.292 HD
ENDBRANCH   4  21
BRANCH   5  23
ATOM     23  C   LIG A   1      -0.880   2.590  -2.960  0.00  0.00    +0.065 C 
BRANCH  23  24
ATOM     24  C   LIG A   1      -2.092   3.210  -2.286  0.00  0.00    -0.030 C 
ATOM     25  C   LIG A   1      -3.347   3.193  -2.762  0.00  0.00    +0.004 C 
ENDBRANCH  23  24
ENDBRANCH   5  23
TORSDOF 7
