REMARK  Name = NuBBE_2032
REMARK  7 active torsions:
REMARK  status: ('A' for Active; 'I' for Inactive)
REMARK    1  A    between atoms: C_1  and  C_2
REMARK    2  A    between atoms: C_2  and  C_3
REMARK    3  A    between atoms: C_2  and  C_4
REMARK    4  A    between atoms: C_6  and  O_7
REMARK    5  A    between atoms: O_7  and  C_8
REMARK    6  A    between atoms: C_8  and  C_9
REMARK    7  A    between atoms: C_11  and  C_12
REMARK                            x       y       z     vdW  Elec       q    Type
REMARK                         _______ _______ _______ _____ _____    ______ ____
ROOT
ATOM      1  C   LIG A   1       0.117  -1.263  -0.005  0.00  0.00    -0.041 A 
ATOM      2  C   LIG A   1      -0.510  -0.013  -0.162  0.00  0.00    +0.050 A 
ATOM      3  C   LIG A   1       0.176   1.170   0.132  0.00  0.00    +0.135 A 
ATOM      4  C   LIG A   1       1.481   1.135   0.647  0.00  0.00    -0.008 A 
ATOM      5  C   LIG A   1       2.225   2.386   1.009  0.00  0.00    +0.048 C 
ATOM      6  C   LIG A   1       2.102  -0.110   0.803  0.00  0.00    +0.007 A 
ATOM      7  C   LIG A   1       1.429  -1.292   0.484  0.00  0.00    +0.004 A 
ENDROOT
BRANCH   1   9
ATOM      8  C   LIG A   1       0.217  -3.681  -0.857  0.00  0.00    +0.012 C 
ATOM      9  C   LIG A   1      -0.656  -2.529  -0.346  0.00  0.00    +0.013 C 
ATOM     10  C   LIG A   1      -1.488  -2.990   0.853  0.00  0.00    +0.012 C 
ENDBRANCH   1   9
BRANCH   3  11
ATOM     11  O   LIG A   1      -0.421   2.447  -0.010  0.00  0.00    -0.426 OA
BRANCH  11  12
ATOM     12  C   LIG A   1      -1.336   2.746  -1.024  0.00  0.00    +0.309 C 
ATOM     13  C   LIG A   1      -1.728   4.192  -0.911  0.00  0.00    +0.136 C 
ATOM     14  O   LIG A   1      -1.765   1.987  -1.878  0.00  0.00    -0.251 OA
ENDBRANCH  11  12
ENDBRANCH   3  11
TORSDOF 3
