REMARK  Name = NuBBE_2117
REMARK  9 active torsions:
REMARK  status: ('A' for Active; 'I' for Inactive)
REMARK    1  A    between atoms: C_2  and  C_3
REMARK    2  A    between atoms: C_3  and  C_4
REMARK    3  A    between atoms: C_4  and  C_5
REMARK    4  A    between atoms: C_5  and  C_6
REMARK    5  A    between atoms: C_6  and  C_7
REMARK    6  A    between atoms: C_7  and  C_8
REMARK    7  A    between atoms: C_8  and  C_9
REMARK    8  A    between atoms: C_9  and  C_10
REMARK    9  A    between atoms: C_10  and  C_11
REMARK                            x       y       z     vdW  Elec       q    Type
REMARK                         _______ _______ _______ _____ _____    ______ ____
ROOT
ATOM      1  C   LIG A   1       1.817   1.681  -0.515  0.00  0.00    +0.000 C 
ENDROOT
BRANCH   1   2
ATOM      2  C   LIG A   1       0.473   2.258  -0.035  0.00  0.00    +0.000 C 
BRANCH   2   3
ATOM      3  C   LIG A   1      -0.780   1.579  -0.614  0.00  0.00    +0.004 C 
BRANCH   3   4
ATOM      4  C   LIG A   1      -2.109   2.071  -0.096  0.00  0.00    +0.026 C 
BRANCH   4   6
ATOM      5  C   LIG A   1      -1.704   1.088   2.232  0.00  0.00    +0.004 C 
ATOM      6  C   LIG A   1      -2.295   1.972   1.394  0.00  0.00    -0.035 C 
ENDBRANCH   4   6
ENDBRANCH   3   4
ENDBRANCH   2   3
ENDBRANCH   1   2
BRANCH   1   7
ATOM      7  C   LIG A   1       2.162   0.243  -0.069  0.00  0.00    -0.000 C 
BRANCH   7   8
ATOM      8  C   LIG A   1       1.222  -0.827  -0.613  0.00  0.00    -0.000 C 
BRANCH   8   9
ATOM      9  C   LIG A   1       1.486  -2.259  -0.189  0.00  0.00    -0.000 C 
BRANCH   9  10
ATOM     10  C   LIG A   1       0.400  -3.210  -0.731  0.00  0.00    -0.003 C 
ATOM     11  C   LIG A   1      -1.030  -2.935  -0.254  0.00  0.00    +0.004 C 
ENDBRANCH   9  10
ENDBRANCH   8   9
ENDBRANCH   7   8
ENDBRANCH   1   7
TORSDOF 8
