@<TRIPOS>MOLECULE
NuBBE_1740
 26 26 0 0 0
SMALL
GASTEIGER

@<TRIPOS>ATOM
      1 C           1.1288    1.2974   -1.1051 C.2     1  LIG1       -0.0762
      2 C           0.4072    0.4486   -0.3231 C.2     1  LIG1       -0.0668
      3 C          -1.1085    0.5044   -0.3132 C.3     1  LIG1       -0.0275
      4 C          -1.9080   -0.5269    0.4950 C.3     1  LIG1       -0.0283
      5 C          -1.1255   -1.5375    1.2712 C.2     1  LIG1       -0.0759
      6 C           0.2133   -1.5334    1.2895 C.2     1  LIG1       -0.0810
      7 C           1.0946   -0.5633    0.5695 C.3     1  LIG1       -0.0130
      8 C          -1.9121   -2.5603    2.0389 C.3     1  LIG1       -0.0438
      9 C           0.5170    2.3294   -2.0259 C.3     1  LIG1       -0.0438
     10 C           2.6398    1.3313   -1.1477 C.3     1  LIG1       -0.0438
     11 H          -1.4646    0.4316   -1.3498 H       1  LIG1        0.0313
     12 H          -1.4070    1.4990    0.0462 H       1  LIG1        0.0313
     13 H          -2.5767   -1.0594   -0.1944 H       1  LIG1        0.0313
     14 H          -2.5632    0.0144    1.1902 H       1  LIG1        0.0313
     15 H           0.7368   -2.2879    1.8745 H       1  LIG1        0.0575
     16 H           1.7892   -1.1594   -0.0362 H       1  LIG1        0.0352
     17 H           1.6805   -0.0294    1.3280 H       1  LIG1        0.0352
     18 H          -2.9897   -2.4134    1.9093 H       1  LIG1        0.0274
     19 H          -1.6965   -2.4888    3.1098 H       1  LIG1        0.0274
     20 H          -1.6734   -3.5710    1.6923 H       1  LIG1        0.0274
     21 H          -0.5743    2.3604   -1.9990 H       1  LIG1        0.0274
     22 H           0.8109    2.1255   -3.0612 H       1  LIG1        0.0274
     23 H           0.8718    3.3300   -1.7569 H       1  LIG1        0.0274
     24 H           3.1196    0.6331   -0.4583 H       1  LIG1        0.0274
     25 H           2.9978    2.3334   -0.8866 H       1  LIG1        0.0274
     26 H           2.9920    1.0922   -2.1567 H       1  LIG1        0.0274
@<TRIPOS>BOND
     1     1     2    2
     2     2     3    1
     3     3     4    1
     4     4     5    1
     5     5     6    2
     6     6     7    1
     7     2     7    1
     8     5     8    1
     9     1     9    1
    10     1    10    1
    11     3    11    1
    12     3    12    1
    13     4    13    1
    14     4    14    1
    15     6    15    1
    16     7    16    1
    17     7    17    1
    18     8    18    1
    19     8    19    1
    20     8    20    1
    21     9    21    1
    22     9    22    1
    23     9    23    1
    24    10    24    1
    25    10    25    1
    26    10    26    1
