@<TRIPOS>MOLECULE
NuBBE_1779
 41 42 0 0 0
SMALL
GASTEIGER

@<TRIPOS>ATOM
      1 C          -0.9601   -1.4945   -0.4400 C.3     1  LIG1       -0.0242
      2 C          -1.5515   -0.1240   -0.7991 C.3     1  LIG1       -0.0113
      3 C          -1.0438    1.0349    0.0816 C.3     1  LIG1        0.1105
      4 H           0.0376    1.1357   -0.0596 H       1  LIG1        0.0738
      5 C          -1.6588    2.3873   -0.2746 C.3     1  LIG1        0.0423
      6 C          -3.0645    2.4758    0.2451 C.2     1  LIG1        0.1076
      7 C          -3.4135    1.7747    1.3331 C.2     1  LIG1        0.0600
      8 C          -2.4325    0.9741    2.0824 C.2     1  LIG1        0.3354
      9 O          -2.6954    0.5667    3.2012 O.2     1  LIG1       -0.2455
     10 O          -1.2424    0.7346    1.4812 O.3     1  LIG1       -0.4578
     11 O          -3.8807    3.3041   -0.4912 O.2     1  LIG1       -0.4990
     12 C          -5.2159    3.4760   -0.0233 C.3     1  LIG1        0.0783
     13 C           0.5396   -1.5648   -0.5738 C.ar    1  LIG1       -0.0436
     14 C           1.3584   -1.2384    0.5155 C.ar    1  LIG1       -0.0131
     15 C           2.7557   -1.2752    0.4183 C.ar    1  LIG1        0.1617
     16 O           3.5939   -0.9756    1.4670 O.3     1  LIG1       -0.4914
     17 C           2.9716   -0.6207    2.7003 C.3     1  LIG1        0.0790
     18 C           3.3482   -1.6508   -0.8034 C.ar    1  LIG1        0.1615
     19 C           2.5272   -1.9705   -1.8927 C.ar    1  LIG1       -0.0160
     20 C           1.1361   -1.9320   -1.7780 C.ar    1  LIG1       -0.0549
     21 O           4.7213   -1.6427   -0.8728 O.3     1  LIG1       -0.4915
     22 C           5.3094   -2.4466   -1.8918 C.3     1  LIG1        0.0790
     23 H          -1.4047   -2.2537   -1.0966 H       1  LIG1        0.0314
     24 H          -1.2532   -1.7843    0.5766 H       1  LIG1        0.0314
     25 H          -2.6409   -0.2137   -0.7072 H       1  LIG1        0.0304
     26 H          -1.3408    0.1047   -1.8512 H       1  LIG1        0.0304
     27 H          -1.6219    2.5428   -1.3588 H       1  LIG1        0.0379
     28 H          -1.0756    3.1911    0.1925 H       1  LIG1        0.0379
     29 H          -4.4011    1.7944    1.7727 H       1  LIG1        0.0722
     30 H          -5.7215    4.1871   -0.6821 H       1  LIG1        0.0660
     31 H          -5.2239    3.8902    0.9908 H       1  LIG1        0.0660
     32 H          -5.7626    2.5280   -0.0616 H       1  LIG1        0.0660
     33 H           0.8697   -0.9445    1.4398 H       1  LIG1        0.0658
     34 H           2.3089   -1.4167    3.0598 H       1  LIG1        0.0660
     35 H           2.4299    0.3271    2.6030 H       1  LIG1        0.0660
     36 H           3.7506   -0.4833    3.4556 H       1  LIG1        0.0660
     37 H           2.9388   -2.2427   -2.8578 H       1  LIG1        0.0655
     38 H           0.5259   -2.1930   -2.6390 H       1  LIG1        0.0621
     39 H           6.3972   -2.3596   -1.8099 H       1  LIG1        0.0660
     40 H           5.0419   -2.1013   -2.8959 H       1  LIG1        0.0660
     41 H           5.0434   -3.5005   -1.7559 H       1  LIG1        0.0660
@<TRIPOS>BOND
     1     1     2    1
     2     2     3    1
     3     3     4    1
     4     3     5    1
     5     5     6    1
     6     6     7    2
     7     7     8    1
     8     8     9    2
     9     8    10    1
    10     3    10    1
    11     6    11    1
    12    11    12    1
    13     1    13    1
    14    13    14   ar
    15    14    15   ar
    16    15    16    1
    17    16    17    1
    18    15    18   ar
    19    18    19   ar
    20    19    20   ar
    21    13    20   ar
    22    18    21    1
    23    21    22    1
    24     1    23    1
    25     1    24    1
    26     2    25    1
    27     2    26    1
    28     5    27    1
    29     5    28    1
    30     7    29    1
    31    12    30    1
    32    12    31    1
    33    12    32    1
    34    14    33    1
    35    17    34    1
    36    17    35    1
    37    17    36    1
    38    19    37    1
    39    20    38    1
    40    22    39    1
    41    22    40    1
    42    22    41    1
