REMARK  Name = NuBBE_1838
REMARK  12 active torsions:
REMARK  status: ('A' for Active; 'I' for Inactive)
REMARK    1  A    between atoms: O_1  and  C_2
REMARK    2  A    between atoms: O_1  and  C_3
REMARK    3  A    between atoms: C_8  and  C_10
REMARK    4  A    between atoms: C_10  and  C_11
REMARK    5  A    between atoms: C_14  and  C_19
REMARK    6  A    between atoms: C_16  and  C_18
REMARK    7  A    between atoms: C_21  and  O_22
REMARK    8  A    between atoms: O_22  and  C_23
REMARK    9  A    between atoms: C_24  and  O_29
REMARK   10  A    between atoms: C_25  and  O_27
REMARK   11  A    between atoms: O_27  and  C_28
REMARK   12  A    between atoms: O_29  and  C_30
REMARK                            x       y       z     vdW  Elec       q    Type
REMARK                         _______ _______ _______ _____ _____    ______ ____
ROOT
ATOM      1  C   LIG A   1      -0.272   0.911   1.330  0.00  0.00    +0.151 C 
ATOM      2  C   LIG A   1       0.988   1.608   0.931  0.00  0.00    +0.138 C 
ATOM      3  C   LIG A   1       1.240   2.889   1.183  0.00  0.00    +0.095 C 
ATOM      4  C   LIG A   1       0.245   3.695   1.934  0.00  0.00    +0.185 C 
ATOM      5  O   LIG A   1       0.388   4.920   2.023  0.00  0.00    -0.287 OA
ATOM      6  C   LIG A   1      -0.870   2.969   2.622  0.00  0.00    +0.002 C 
ATOM      7  C   LIG A   1      -1.064   1.656   2.361  0.00  0.00    +0.023 C 
ATOM      8  O   LIG A   1       1.954   0.765   0.422  0.00  0.00    -0.485 OA
ATOM      9  C   LIG A   1       1.530  -0.572   0.784  0.00  0.00    +0.210 C 
ATOM     10  C   LIG A   1       0.323  -0.436   1.752  0.00  0.00    +0.074 C 
ATOM     11  C   LIG A   1       0.808  -0.529   3.204  0.00  0.00    +0.015 C 
ENDROOT
BRANCH   9  12
ATOM     12  C   LIG A   1       1.248  -1.436  -0.433  0.00  0.00    +0.000 A 
ATOM     13  C   LIG A   1       0.860  -2.767  -0.252  0.00  0.00    +0.057 A 
ATOM     14  C   LIG A   1       0.483  -3.564  -1.336  0.00  0.00    +0.166 A 
ATOM     15  C   LIG A   1       0.569  -3.060  -2.655  0.00  0.00    +0.203 A 
ATOM     16  C   LIG A   1       1.036  -1.745  -2.854  0.00  0.00    +0.166 A 
ATOM     17  C   LIG A   1       1.353  -0.950  -1.740  0.00  0.00    +0.057 A 
BRANCH  14  18
ATOM     18  O   LIG A   1       0.063  -4.867  -1.178  0.00  0.00    -0.491 OA
ATOM     19  C   LIG A   1      -0.552  -5.177   0.070  0.00  0.00    +0.277 C 
ENDBRANCH  14  18
BRANCH  16  20
ATOM     20  O   LIG A   1       1.090  -1.221  -4.124  0.00  0.00    -0.491 OA
ATOM     21  C   LIG A   1       2.137  -0.276  -4.351  0.00  0.00    +0.277 C 
ENDBRANCH  16  20
BRANCH  15  22
ATOM     22  O   LIG A   1       0.130  -3.935  -3.619  0.00  0.00    -0.488 OA
ATOM     23  C   LIG A   1       0.516  -3.739  -4.969  0.00  0.00    +0.277 C 
ENDBRANCH  15  22
ENDBRANCH   9  12
BRANCH   1  24
ATOM     24  O   LIG A   1      -1.119   0.645   0.199  0.00  0.00    -0.364 OA
ATOM     25  C   LIG A   1      -1.563   1.776  -0.545  0.00  0.00    +0.195 C 
ENDBRANCH   1  24
BRANCH   6  26
ATOM     26  C   LIG A   1      -1.720   3.748   3.588  0.00  0.00    +0.065 C 
BRANCH  26  27
ATOM     27  C   LIG A   1      -2.978   4.296   2.966  0.00  0.00    -0.030 C 
ATOM     28  C   LIG A   1      -3.019   5.168   1.948  0.00  0.00    +0.004 C 
ENDBRANCH  26  27
ENDBRANCH   6  26
TORSDOF 7
