@<TRIPOS>MOLECULE
NuBBE_912
 62 63 0 0 0
SMALL
GASTEIGER

@<TRIPOS>ATOM
      1 O           1.1503    7.1859    3.3196 O.2     1  LIG1       -0.2833
      2 C           1.2726    6.6232    2.2468 C.ar    1  LIG1        0.2310
      3 C           1.8216    5.2152    2.1050 C.ar    1  LIG1        0.1864
      4 O           2.1981    4.4534    3.2034 O.3     1  LIG1       -0.4897
      5 C           1.4567    4.6684    4.3980 C.3     1  LIG1        0.0790
      6 C           1.9537    4.7100    0.8584 C.ar    1  LIG1        0.0624
      7 C           2.5064    3.3080    0.6297 C.3     1  LIG1       -0.0088
      8 C           1.3922    2.2552    0.5830 C.3     1  LIG1       -0.0476
      9 C           1.9461    0.8459    0.3484 C.3     1  LIG1       -0.0527
     10 C           0.8244   -0.1903    0.3194 C.3     1  LIG1       -0.0530
     11 C           1.3664   -1.5973    0.0707 C.3     1  LIG1       -0.0531
     12 C           0.2613   -2.6530    0.0502 C.3     1  LIG1       -0.0531
     13 C          -0.7712   -2.4158   -1.0582 C.3     1  LIG1       -0.0531
     14 C          -1.8859   -3.4672   -1.0846 C.3     1  LIG1       -0.0531
     15 C          -1.3473   -4.8794   -1.3316 C.3     1  LIG1       -0.0530
     16 C          -2.4370   -5.9569   -1.3463 C.3     1  LIG1       -0.0507
     17 C          -1.8313   -7.3501   -1.6027 C.3     1  LIG1       -0.0271
     18 C          -2.8714   -8.4822   -1.5955 C.3     1  LIG1        0.0524
     19 C          -2.2399   -9.8360   -1.9132 C.3     1  LIG1       -0.0389
     20 O          -3.5165   -8.5743   -0.3277 O.3     1  LIG1       -0.3921
     21 N           1.6150    5.4155   -0.2830 N.ar    1  LIG1       -0.3549
     22 H           1.6620    4.9410   -1.1746 H       1  LIG1        0.1657
     23 C           1.0372    6.6887   -0.2283 C.ar    1  LIG1        0.0505
     24 C           0.6530    7.3531   -1.3974 C.ar    1  LIG1       -0.0377
     25 C           0.0864    8.6307   -1.3328 C.ar    1  LIG1       -0.0598
     26 C          -0.0875    9.2607   -0.1015 C.ar    1  LIG1       -0.0610
     27 C           0.3036    8.6115    1.0701 C.ar    1  LIG1       -0.0488
     28 C           0.8628    7.3274    1.0026 C.ar    1  LIG1        0.0487
     29 H           1.8055    5.5655    4.9168 H       1  LIG1        0.0660
     30 H           1.6463    3.8207    5.0635 H       1  LIG1        0.0660
     31 H           0.3787    4.7080    4.2064 H       1  LIG1        0.0660
     32 H           3.2295    3.0454    1.4121 H       1  LIG1        0.0329
     33 H           3.0749    3.2882   -0.3091 H       1  LIG1        0.0329
     34 H           0.6816    2.5032   -0.2158 H       1  LIG1        0.0269
     35 H           0.8310    2.2693    1.5256 H       1  LIG1        0.0269
     36 H           2.6620    0.5860    1.1362 H       1  LIG1        0.0265
     37 H           2.4836    0.8169   -0.6071 H       1  LIG1        0.0265
     38 H           0.1229    0.0889   -0.4732 H       1  LIG1        0.0265
     39 H           0.2680   -0.1796    1.2646 H       1  LIG1        0.0265
     40 H           2.0834   -1.8605    0.8589 H       1  LIG1        0.0265
     41 H           1.9160   -1.6291   -0.8781 H       1  LIG1        0.0265
     42 H          -0.2415   -2.6834    1.0243 H       1  LIG1        0.0265
     43 H           0.7487   -3.6242   -0.0871 H       1  LIG1        0.0265
     44 H          -0.2643   -2.3820   -2.0305 H       1  LIG1        0.0265
     45 H          -1.2506   -1.4406   -0.9194 H       1  LIG1        0.0265
     46 H          -2.5959   -3.1930   -1.8755 H       1  LIG1        0.0265
     47 H          -2.4374   -3.4270   -0.1375 H       1  LIG1        0.0265
     48 H          -0.6344   -5.1396   -0.5434 H       1  LIG1        0.0265
     49 H          -0.7998   -4.8872   -2.2815 H       1  LIG1        0.0265
     50 H          -3.1732   -5.7260   -2.1238 H       1  LIG1        0.0266
     51 H          -2.9599   -5.9474   -0.3829 H       1  LIG1        0.0266
     52 H          -1.0777   -7.5504   -0.8294 H       1  LIG1        0.0290
     53 H          -1.3113   -7.3439   -2.5681 H       1  LIG1        0.0290
     54 H          -3.6510   -8.2784   -2.3369 H       1  LIG1        0.0590
     55 H          -1.4358  -10.0760   -1.2087 H       1  LIG1        0.0254
     56 H          -1.8298   -9.8573   -2.9282 H       1  LIG1        0.0254
     57 H          -2.9807  -10.6392   -1.8248 H       1  LIG1        0.0254
     58 H          -2.8882   -8.2985    0.3608 H       1  LIG1        0.2098
     59 H           0.7871    6.8844   -2.3677 H       1  LIG1        0.0638
     60 H          -0.2175    9.1357   -2.2471 H       1  LIG1        0.0618
     61 H          -0.5238   10.2553   -0.0529 H       1  LIG1        0.0618
     62 H           0.1715    9.1045    2.0312 H       1  LIG1        0.0625
@<TRIPOS>BOND
     1     1     2    2
     2     2     3   ar
     3     3     4    1
     4     4     5    1
     5     3     6   ar
     6     6     7    1
     7     7     8    1
     8     8     9    1
     9     9    10    1
    10    10    11    1
    11    11    12    1
    12    12    13    1
    13    13    14    1
    14    14    15    1
    15    15    16    1
    16    16    17    1
    17    17    18    1
    18    18    19    1
    19    18    20    1
    20     6    21   ar
    21    21    22    1
    22    21    23   ar
    23    23    24   ar
    24    24    25   ar
    25    25    26   ar
    26    26    27   ar
    27    27    28   ar
    28    23    28   ar
    29     2    28   ar
    30     5    29    1
    31     5    30    1
    32     5    31    1
    33     7    32    1
    34     7    33    1
    35     8    34    1
    36     8    35    1
    37     9    36    1
    38     9    37    1
    39    10    38    1
    40    10    39    1
    41    11    40    1
    42    11    41    1
    43    12    42    1
    44    12    43    1
    45    13    44    1
    46    13    45    1
    47    14    46    1
    48    14    47    1
    49    15    48    1
    50    15    49    1
    51    16    50    1
    52    16    51    1
    53    17    52    1
    54    17    53    1
    55    18    54    1
    56    19    55    1
    57    19    56    1
    58    19    57    1
    59    20    58    1
    60    24    59    1
    61    25    60    1
    62    26    61    1
    63    27    62    1
