@<TRIPOS>MOLECULE
NuBBE_1345
 34 36 0 0 0
SMALL
GASTEIGER

@<TRIPOS>ATOM
      1 C           3.0520    1.2559   -3.8059 C.3     1  LIG1        0.0789
      2 O           2.9826    1.7700   -2.4748 O.3     1  LIG1       -0.4930
      3 C           1.6935    1.7289   -2.0061 C.ar    1  LIG1        0.1441
      4 C           0.7197    2.5861   -2.5152 C.ar    1  LIG1       -0.0179
      5 C          -0.5773    2.5347   -2.0046 C.ar    1  LIG1       -0.0575
      6 C          -0.8964    1.6344   -0.9822 C.ar    1  LIG1       -0.0489
      7 C           0.0816    0.7841   -0.4467 C.ar    1  LIG1        0.0444
      8 C          -0.2022   -0.1818    0.6290 C.ar    1  LIG1        0.1432
      9 C           0.7765   -0.9603    1.1283 C.ar    1  LIG1        0.0814
     10 C           0.4764   -1.8923    2.1884 C.2     1  LIG1       -0.0461
     11 C          -0.7858   -2.0249    2.6103 C.2     1  LIG1       -0.0407
     12 C          -1.9201   -1.2220    2.0134 C.3     1  LIG1        0.1235
     13 C          -2.6616   -0.4771    3.1281 C.3     1  LIG1       -0.0215
     14 C          -2.8854   -2.1626    1.2839 C.3     1  LIG1       -0.0215
     15 O          -1.5147   -0.2184    1.0554 O.3     1  LIG1       -0.4808
     16 C           1.3819    0.8537   -0.9595 C.ar    1  LIG1        0.0949
     17 N           2.3802    0.0320   -0.4223 N.ar    1  LIG1       -0.3185
     18 C           2.1727   -0.8581    0.5935 C.ar    1  LIG1        0.2600
     19 O           3.0909   -1.5447    1.0336 O.2     1  LIG1       -0.2671
     20 H           4.1090    1.1577   -4.0710 H       1  LIG1        0.0660
     21 H           2.5875    1.9427   -4.5209 H       1  LIG1        0.0660
     22 H           2.5930    0.2629   -3.8736 H       1  LIG1        0.0660
     23 H           0.9656    3.3005   -3.2951 H       1  LIG1        0.0655
     24 H          -1.3429    3.1997   -2.3973 H       1  LIG1        0.0619
     25 H          -1.9150    1.6104   -0.6007 H       1  LIG1        0.0625
     26 H           1.2855   -2.4760    2.6178 H       1  LIG1        0.0624
     27 H          -1.0172   -2.7357    3.3987 H       1  LIG1        0.0611
     28 H          -3.0685   -1.1627    3.8796 H       1  LIG1        0.0271
     29 H          -3.4888    0.1148    2.7187 H       1  LIG1        0.0271
     30 H          -1.9959    0.2326    3.6338 H       1  LIG1        0.0271
     31 H          -3.2976   -2.9265    1.9523 H       1  LIG1        0.0271
     32 H          -2.3829   -2.6693    0.4511 H       1  LIG1        0.0271
     33 H          -3.7187   -1.6021    0.8443 H       1  LIG1        0.0271
     34 H           3.3224    0.1136   -0.7844 H       1  LIG1        0.1690
@<TRIPOS>BOND
     1     1     2    1
     2     2     3    1
     3     3     4   ar
     4     4     5   ar
     5     5     6   ar
     6     6     7   ar
     7     7     8   ar
     8     8     9   ar
     9     9    10    1
    10    10    11    2
    11    11    12    1
    12    12    13    1
    13    12    14    1
    14    12    15    1
    15     8    15    1
    16     7    16   ar
    17     3    16   ar
    18    16    17   ar
    19    17    18   ar
    20     9    18   ar
    21    18    19    2
    22     1    20    1
    23     1    21    1
    24     1    22    1
    25     4    23    1
    26     5    24    1
    27     6    25    1
    28    10    26    1
    29    11    27    1
    30    13    28    1
    31    13    29    1
    32    13    30    1
    33    14    31    1
    34    14    32    1
    35    14    33    1
    36    17    34    1
