@<TRIPOS>MOLECULE
NuBBE_1037
 86 90 0 0 0
SMALL
GASTEIGER

@<TRIPOS>ATOM
      1 C          -0.3239   -2.2334    0.8601 C.3     1  LIG1       -0.0590
      2 C           1.0378   -2.0196    0.1348 C.3     1  LIG1       -0.0249
      3 C           1.8416   -3.3617    0.2739 C.3     1  LIG1       -0.0437
      4 C           1.8094   -4.2864   -0.9549 C.3     1  LIG1       -0.0146
      5 C           0.4647   -4.3180   -1.6879 C.3     1  LIG1        0.1084
      6 O          -0.5457   -4.8709   -0.8205 O.3     1  LIG1       -0.4610
      7 C          -0.5893   -6.2257   -0.7069 C.2     1  LIG1        0.3042
      8 C          -1.7086   -6.6243    0.2058 C.3     1  LIG1        0.0332
      9 O           0.1472   -7.0160   -1.2791 O.2     1  LIG1       -0.2512
     10 C           0.8188   -1.7608   -1.3846 C.3     1  LIG1       -0.0268
     11 C           0.0564   -2.8885   -2.1934 C.3     1  LIG1        0.0055
     12 C           0.5250   -2.7844   -3.6764 C.3     1  LIG1       -0.0562
     13 C          -1.4810   -2.7085   -2.2414 C.3     1  LIG1       -0.0562
     14 C           0.2477   -0.3636   -1.5839 C.3     1  LIG1       -0.0486
     15 C           1.3505    0.6509   -1.3728 C.3     1  LIG1       -0.0463
     16 C           2.1584    0.5538   -0.0353 C.3     1  LIG1       -0.0194
     17 C           3.6581    0.5051   -0.4676 C.3     1  LIG1       -0.0585
     18 C           1.8822   -0.8132    0.8356 C.3     1  LIG1       -0.0257
     19 H           2.8846   -1.2310    0.9980 H       1  LIG1        0.0315
     20 C           1.4148   -0.5091    2.3029 C.3     1  LIG1       -0.0306
     21 C           0.3689    0.5632    2.3061 C.2     1  LIG1       -0.0836
     22 C           0.5183    1.6317    1.5017 C.2     1  LIG1       -0.0629
     23 C           1.8942    1.8833    0.8495 C.3     1  LIG1       -0.0051
     24 C           3.0110    2.0638    1.9398 C.3     1  LIG1       -0.0553
     25 C           1.9796    3.2565    0.0557 C.3     1  LIG1       -0.0424
     26 C           0.7219    4.1273   -0.1283 C.3     1  LIG1       -0.0359
     27 C          -0.3720    3.9412    0.9464 C.3     1  LIG1        0.0741
     28 C           0.1203    4.4742    2.2937 C.2     1  LIG1        0.3115
     29 O          -0.7645    4.3133    3.2991 O.3     1  LIG1       -0.4802
     30 O           1.1700    5.0521    2.5120 O.2     1  LIG1       -0.2504
     31 C          -0.6554    2.4289    0.9685 C.3     1  LIG1       -0.0031
     32 H          -0.6793    2.1083   -0.0822 H       1  LIG1        0.0357
     33 C          -2.0905    2.1067    1.4237 C.3     1  LIG1       -0.0403
     34 C          -3.1313    2.6698    0.4076 C.3     1  LIG1       -0.0343
     35 C          -2.6156    3.9505   -0.3027 C.3     1  LIG1       -0.0468
     36 C          -1.6407    4.7539    0.5578 C.3     1  LIG1       -0.0362
     37 C          -4.4436    2.9668    1.1532 C.3     1  LIG1       -0.0598
     38 C          -3.4355    1.6096   -0.6749 C.3     1  LIG1       -0.0598
     39 H           1.8313   -1.7411   -1.8188 H       1  LIG1        0.0312
     40 H          -0.9224   -3.0258    0.4260 H       1  LIG1        0.0235
     41 H          -0.9449   -1.3353    0.8591 H       1  LIG1        0.0235
     42 H          -0.2020   -2.5666    1.8945 H       1  LIG1        0.0235
     43 H           1.4912   -3.9217    1.1501 H       1  LIG1        0.0272
     44 H           2.9027   -3.1665    0.4699 H       1  LIG1        0.0272
     45 H           2.0895   -5.2938   -0.6254 H       1  LIG1        0.0301
     46 H           2.5906   -3.9719   -1.6588 H       1  LIG1        0.0301
     47 H           0.5526   -4.9817   -2.5582 H       1  LIG1        0.0739
     48 H          -2.6639   -6.5014   -0.3097 H       1  LIG1        0.0342
     49 H          -1.6847   -6.0189    1.1160 H       1  LIG1        0.0342
     50 H          -1.5852   -7.6721    0.4939 H       1  LIG1        0.0342
     51 H           1.6041   -2.9468   -3.7695 H       1  LIG1        0.0236
     52 H           0.2970   -1.8047   -4.1088 H       1  LIG1        0.0236
     53 H           0.0227   -3.5342   -4.2994 H       1  LIG1        0.0236
     54 H          -1.9464   -2.6385   -1.2581 H       1  LIG1        0.0236
     55 H          -1.9523   -3.5511   -2.7614 H       1  LIG1        0.0236
     56 H          -1.7680   -1.8032   -2.7873 H       1  LIG1        0.0236
     57 H          -0.5952   -0.1634   -0.9180 H       1  LIG1        0.0268
     58 H          -0.1302   -0.2238   -2.6018 H       1  LIG1        0.0268
     59 H           0.9079    1.6373   -1.5201 H       1  LIG1        0.0271
     60 H           2.0379    0.5549   -2.2260 H       1  LIG1        0.0271
     61 H           3.8461   -0.3597   -1.1154 H       1  LIG1        0.0235
     62 H           4.3359    0.4074    0.3860 H       1  LIG1        0.0235
     63 H           3.9514    1.4021   -1.0225 H       1  LIG1        0.0235
     64 H           2.2457   -0.2327    2.9541 H       1  LIG1        0.0310
     65 H           1.0475   -1.4052    2.8062 H       1  LIG1        0.0310
     66 H          -0.5778    0.3175    2.7758 H       1  LIG1        0.0572
     67 H           3.4003    1.1384    2.3587 H       1  LIG1        0.0238
     68 H           2.6592    2.6875    2.7690 H       1  LIG1        0.0238
     69 H           3.9030    2.5489    1.5218 H       1  LIG1        0.0238
     70 H           2.4446    3.1058   -0.9257 H       1  LIG1        0.0274
     71 H           2.6930    3.9237    0.5602 H       1  LIG1        0.0274
     72 H           0.3023    3.9086   -1.1193 H       1  LIG1        0.0276
     73 H           1.0315    5.1805   -0.1752 H       1  LIG1        0.0276
     74 H          -0.3207    4.7280    4.0680 H       1  LIG1        0.2951
     75 H          -2.2644    2.5175    2.4243 H       1  LIG1        0.0276
     76 H          -2.2424    1.0244    1.5125 H       1  LIG1        0.0276
     77 H          -3.4576    4.5904   -0.5946 H       1  LIG1        0.0271
     78 H          -2.1078    3.6888   -1.2404 H       1  LIG1        0.0271
     79 H          -2.1832    5.0981    1.4471 H       1  LIG1        0.0276
     80 H          -1.3524    5.6683    0.0238 H       1  LIG1        0.0276
     81 H          -4.3024    3.7411    1.9144 H       1  LIG1        0.0235
     82 H          -4.8233    2.0683    1.6529 H       1  LIG1        0.0235
     83 H          -5.2210    3.3149    0.4634 H       1  LIG1        0.0235
     84 H          -2.5373    1.3448   -1.2430 H       1  LIG1        0.0235
     85 H          -4.1783    1.9791   -1.3911 H       1  LIG1        0.0235
     86 H          -3.8291    0.6878   -0.2323 H       1  LIG1        0.0235
@<TRIPOS>BOND
     1     2     3    1
     2     3     4    1
     3     4     5    1
     4     6     7    1
     5     7     8    1
     6     7     9    2
     7     2    10    1
     8    10    11    1
     9     5    11    1
    10    10    14    1
    11    14    15    1
    12    15    16    1
    13    16    18    1
    14     2    18    1
    15    18    20    1
    16    20    21    1
    17    21    22    2
    18    22    23    1
    19    16    23    1
    20    23    25    1
    21    25    26    1
    22    26    27    1
    23    28    29    1
    24    28    30    2
    25    27    31    1
    26    22    31    1
    27    31    33    1
    28    33    34    1
    29    34    35    1
    30    35    36    1
    31    27    36    1
    32     1     2    1
    33     5     6    1
    34    10    39    1
    35    11    12    1
    36    11    13    1
    37    16    17    1
    38    18    19    1
    39    23    24    1
    40    27    28    1
    41    31    32    1
    42    34    37    1
    43    34    38    1
    44     1    40    1
    45     1    41    1
    46     1    42    1
    47     3    43    1
    48     3    44    1
    49     4    45    1
    50     4    46    1
    51     5    47    1
    52     8    48    1
    53     8    49    1
    54     8    50    1
    55    12    51    1
    56    12    52    1
    57    12    53    1
    58    13    54    1
    59    13    55    1
    60    13    56    1
    61    14    57    1
    62    14    58    1
    63    15    59    1
    64    15    60    1
    65    17    61    1
    66    17    62    1
    67    17    63    1
    68    20    64    1
    69    20    65    1
    70    21    66    1
    71    24    67    1
    72    24    68    1
    73    24    69    1
    74    25    70    1
    75    25    71    1
    76    26    72    1
    77    26    73    1
    78    29    74    1
    79    33    75    1
    80    33    76    1
    81    35    77    1
    82    35    78    1
    83    36    79    1
    84    36    80    1
    85    37    81    1
    86    37    82    1
    87    37    83    1
    88    38    84    1
    89    38    85    1
    90    38    86    1
