REMARK  Name = NuBBE_1467
REMARK  10 active torsions:
REMARK  status: ('A' for Active; 'I' for Inactive)
REMARK    1  A    between atoms: C_1  and  C_2
REMARK    2  A    between atoms: C_5  and  O_7
REMARK    3  A    between atoms: C_10  and  C_11
REMARK    4  A    between atoms: C_16  and  C_17
REMARK    5  A    between atoms: C_16  and  C_18
REMARK    6  A    between atoms: C_19  and  C_21
REMARK    7  A    between atoms: C_21  and  C_22
REMARK    8  A    between atoms: C_22  and  O_23
REMARK    9  A    between atoms: O_23  and  C_24
REMARK   10  A    between atoms: C_29  and  C_31
REMARK                            x       y       z     vdW  Elec       q    Type
REMARK                         _______ _______ _______ _____ _____    ______ ____
ROOT
ATOM      1  C   LIG A   1      -1.832   2.544  -2.249  0.00  0.00    +0.022 C 
ATOM      2  C   LIG A   1      -1.890   1.538  -1.074  0.00  0.00    +0.058 C 
ATOM      3  C   LIG A   1      -0.544   1.093  -0.500  0.00  0.00    -0.036 C 
ATOM      4  C   LIG A   1      -0.332   1.095   0.826  0.00  0.00    +0.092 C 
ATOM      5  C   LIG A   1      -2.287   0.161  -1.661  0.00  0.00    +0.130 C 
ATOM      6  C   LIG A   1      -0.966  -0.452  -2.237  0.00  0.00    +0.052 C 
ATOM      7  C   LIG A   1       0.232   0.244  -1.521  0.00  0.00    +0.065 C 
ATOM      8  C   LIG A   1       1.446  -0.702  -1.033  0.00  0.00    +0.046 C 
ATOM      9  C   LIG A   1       1.901  -1.591  -2.251  0.00  0.00    +0.021 C 
ATOM     10  C   LIG A   1       2.481   0.396  -0.871  0.00  0.00    +0.116 C 
ATOM     11  O   LIG A   1       2.322   1.359  -1.850  0.00  0.00    -0.464 OA
ATOM     12  C   LIG A   1       3.308   0.636   0.137  0.00  0.00    +0.089 C 
ATOM     13  C   LIG A   1       3.292  -0.194   1.335  0.00  0.00    +0.165 C 
ATOM     14  C   LIG A   1       2.490  -1.500   1.373  0.00  0.00    +0.032 C 
ATOM     15  C   LIG A   1       3.601  -2.580   1.248  0.00  0.00    +0.019 C 
ATOM     16  C   LIG A   1       1.896  -1.600   2.797  0.00  0.00    +0.019 C 
ATOM     17  C   LIG A   1       1.411  -1.718   0.205  0.00  0.00    +0.027 C 
ATOM     18  O   LIG A   1       3.989   0.187   2.278  0.00  0.00    -0.292 OA
ATOM     19  C   LIG A   1       1.075   1.183  -2.428  0.00  0.00    +0.109 C 
ATOM     20  C   LIG A   1       0.891   1.649  -3.669  0.00  0.00    +0.054 C 
ATOM     21  C   LIG A   1      -2.775   2.149   0.063  0.00  0.00    +0.222 C 
ATOM     22  O   LIG A   1      -2.691   1.393   1.270  0.00  0.00    -0.452 OA
ATOM     23  C   LIG A   1      -1.448   1.209   1.788  0.00  0.00    +0.333 C 
ATOM     24  O   LIG A   1      -1.252   1.031   2.979  0.00  0.00    -0.246 OA
ENDROOT
BRANCH  21  25
ATOM     25  C   LIG A   1      -2.556   3.636   0.366  0.00  0.00    +0.031 A 
ATOM     26  C   LIG A   1      -3.215   4.709  -0.212  0.00  0.00    +0.202 A 
ATOM     27  O   LIG A   1      -2.779   5.891   0.289  0.00  0.00    -0.471 OA
ATOM     28  C   LIG A   1      -1.854   5.602   1.234  0.00  0.00    +0.195 A 
ATOM     29  C   LIG A   1      -1.691   4.242   1.335  0.00  0.00    +0.048 A 
ENDBRANCH  21  25
BRANCH   5  30
ATOM     30  O   LIG A   1      -2.798  -0.745  -0.688  0.00  0.00    -0.391 OA
ATOM     31  H   LIG A   1      -3.694  -0.456  -0.436  0.00  0.00    +0.210 HD
ENDBRANCH   5  30
BRANCH  17  32
ATOM     32  C   LIG A   1       0.005  -2.214   0.635  0.00  0.00    +0.126 C 
BRANCH  32  33
ATOM     33  C   LIG A   1       0.007  -3.579   1.294  0.00  0.00    +0.307 C 
ATOM     34  O   LIG A   1       0.769  -4.500   0.985  0.00  0.00    -0.251 OA
BRANCH  33  35
ATOM     35  O   LIG A   1      -0.976  -3.669   2.225  0.00  0.00    -0.468 OA
ATOM     36  C   LIG A   1      -1.130  -4.967   2.804  0.00  0.00    +0.280 C 
ENDBRANCH  33  35
ENDBRANCH  32  33
ENDBRANCH  17  32
TORSDOF 5
