REMARK  Name = NuBBE_1899
REMARK  6 active torsions:
REMARK  status: ('A' for Active; 'I' for Inactive)
REMARK    1  A    between atoms: O_1  and  C_2
REMARK    2  A    between atoms: C_11  and  C_12
REMARK    3  A    between atoms: C_15  and  C_16
REMARK    4  A    between atoms: C_16  and  C_17
REMARK    5  A    between atoms: C_16  and  O_18
REMARK    6  A    between atoms: C_16  and  C_19
REMARK                            x       y       z     vdW  Elec       q    Type
REMARK                         _______ _______ _______ _____ _____    ______ ____
ROOT
ATOM      1  C   LIG A   1      -1.128   0.561  -1.190  0.00  0.00    +0.188 C 
ATOM      2  C   LIG A   1      -0.172   1.764  -1.103  0.00  0.00    +0.241 C 
ATOM      3  C   LIG A   1       0.569   1.690   0.164  0.00  0.00    +0.017 A 
ATOM      4  C   LIG A   1       0.638   2.919   0.758  0.00  0.00    +0.066 A 
ATOM      5  C   LIG A   1      -0.213   3.816  -0.018  0.00  0.00    +0.340 C 
ATOM      6  O   LIG A   1      -0.795   3.061  -1.016  0.00  0.00    -0.450 OA
ATOM      7  O   LIG A   1      -0.432   4.987   0.215  0.00  0.00    -0.245 OA
ATOM      8  C   LIG A   1       1.299   3.092   1.954  0.00  0.00    +0.015 A 
ATOM      9  C   LIG A   1       1.875   1.955   2.540  0.00  0.00    +0.005 A 
ATOM     10  C   LIG A   1       1.736   0.664   1.959  0.00  0.00    -0.043 A 
ATOM     11  C   LIG A   1       2.291  -0.531   2.683  0.00  0.00    +0.044 C 
ATOM     12  C   LIG A   1       1.024   0.529   0.758  0.00  0.00    -0.014 A 
ATOM     13  C   LIG A   1       0.619  -0.721   0.093  0.00  0.00    +0.013 C 
ATOM     14  C   LIG A   1      -0.406  -0.743  -0.801  0.00  0.00    -0.006 C 
ENDROOT
BRANCH  14  15
ATOM     15  C   LIG A   1      -0.904  -2.001  -1.503  0.00  0.00    +0.084 C 
ATOM     16  C   LIG A   1      -2.386  -2.269  -1.210  0.00  0.00    +0.046 C 
ATOM     17  C   LIG A   1      -0.103  -3.276  -1.193  0.00  0.00    +0.046 C 
BRANCH  15  18
ATOM     18  O   LIG A   1      -0.755  -1.757  -2.908  0.00  0.00    -0.385 OA
ATOM     19  H   LIG A   1      -1.134  -2.519  -3.378  0.00  0.00    +0.211 HD
ENDBRANCH  15  18
ENDBRANCH  14  15
BRANCH   1  20
ATOM     20  O   LIG A   1      -2.247   0.723  -0.308  0.00  0.00    -0.383 OA
ATOM     21  H   LIG A   1      -2.553   1.641  -0.422  0.00  0.00    +0.210 HD
ENDBRANCH   1  20
TORSDOF 3
