REMARK  Name = NuBBE_1453
REMARK  7 active torsions:
REMARK  status: ('A' for Active; 'I' for Inactive)
REMARK    1  A    between atoms: C_1  and  C_2
REMARK    2  A    between atoms: C_2  and  C_30
REMARK    3  A    between atoms: C_9  and  O_10
REMARK    4  A    between atoms: C_13  and  O_14
REMARK    5  A    between atoms: O_14  and  C_15
REMARK    6  A    between atoms: C_16  and  O_23
REMARK    7  A    between atoms: O_23  and  C_24
REMARK                            x       y       z     vdW  Elec       q    Type
REMARK                         _______ _______ _______ _____ _____    ______ ____
ROOT
ATOM      1  C   LIG A   1      -1.371   6.205  -1.389  0.00  0.00    +0.060 C 
ATOM      2  C   LIG A   1       0.116   5.862  -1.231  0.00  0.00    +0.123 C 
ATOM      3  C   LIG A   1       0.385   5.399   0.181  0.00  0.00    +0.020 C 
ATOM      4  C   LIG A   1       0.617   4.120   0.493  0.00  0.00    +0.015 C 
ATOM      5  C   LIG A   1       0.601   3.134  -0.582  0.00  0.00    +0.059 A 
ATOM      6  C   LIG A   1       0.656   1.752  -0.331  0.00  0.00    +0.142 A 
ATOM      7  C   LIG A   1       0.679   0.846  -1.400  0.00  0.00    +0.063 A 
ATOM      8  C   LIG A   1       0.776  -0.612  -1.133  0.00  0.00    +0.206 C 
ATOM      9  C   LIG A   1       0.915  -1.028   0.335  0.00  0.00    +0.197 C 
ATOM     10  C   LIG A   1       0.398  -2.407   0.709  0.00  0.00    +0.041 A 
ATOM     11  C   LIG A   1       0.659  -3.547  -0.068  0.00  0.00    +0.060 A 
ATOM     12  C   LIG A   1       0.157  -4.812   0.279  0.00  0.00    +0.162 A 
ATOM     13  C   LIG A   1      -0.601  -4.963   1.448  0.00  0.00    +0.165 A 
ATOM     14  C   LIG A   1      -0.816  -3.844   2.259  0.00  0.00    +0.095 A 
ATOM     15  C   LIG A   1      -0.313  -2.588   1.902  0.00  0.00    +0.131 A 
ATOM     16  O   LIG A   1      -0.585  -1.585   2.798  0.00  0.00    -0.488 OA
ATOM     17  C   LIG A   1       0.154  -0.377   2.593  0.00  0.00    +0.277 C 
ATOM     18  C   LIG A   1       0.135   0.026   1.129  0.00  0.00    +0.254 C 
ATOM     19  O   LIG A   1       0.691   1.337   0.980  0.00  0.00    -0.480 OA
ATOM     20  O   LIG A   1       0.819  -1.388  -2.086  0.00  0.00    -0.288 OA
ATOM     21  C   LIG A   1       0.625   1.308  -2.719  0.00  0.00    +0.019 A 
ATOM     22  C   LIG A   1       0.548   2.677  -2.968  0.00  0.00    +0.047 A 
ATOM     23  C   LIG A   1       0.525   3.583  -1.906  0.00  0.00    +0.132 A 
ATOM     24  O   LIG A   1       0.451   4.903  -2.257  0.00  0.00    -0.481 OA
ATOM     25  C   LIG A   1       0.965   7.104  -1.529  0.00  0.00    +0.060 C 
ENDROOT
BRANCH   9  26
ATOM     26  O   LIG A   1       2.311  -0.989   0.664  0.00  0.00    -0.373 OA
ATOM     27  H   LIG A   1       2.728  -1.751   0.222  0.00  0.00    +0.211 HD
ENDBRANCH   9  26
BRANCH  12  28
ATOM     28  O   LIG A   1       0.522  -5.795  -0.605  0.00  0.00    -0.491 OA
ATOM     29  C   LIG A   1      -0.381  -6.882  -0.763  0.00  0.00    +0.277 C 
ENDBRANCH  12  28
BRANCH  13  30
ATOM     30  O   LIG A   1      -1.030  -6.214   1.802  0.00  0.00    -0.491 OA
ATOM     31  C   LIG A   1      -2.253  -6.268   2.530  0.00  0.00    +0.277 C 
ENDBRANCH  13  30
TORSDOF 3
