REMARK  Name = NuBBE_1904
REMARK  8 active torsions:
REMARK  status: ('A' for Active; 'I' for Inactive)
REMARK    1  A    between atoms: C_2  and  C_3
REMARK    2  A    between atoms: C_2  and  O_4
REMARK    3  A    between atoms: O_4  and  C_5
REMARK    4  A    between atoms: C_9  and  C_10
REMARK    5  A    between atoms: C_18  and  C_19
REMARK    6  A    between atoms: C_19  and  C_20
REMARK    7  A    between atoms: C_19  and  O_21
REMARK    8  A    between atoms: C_19  and  C_22
REMARK                            x       y       z     vdW  Elec       q    Type
REMARK                         _______ _______ _______ _____ _____    ______ ____
ROOT
ATOM      1  C   LIG A   1      -0.556  -0.672  -0.953  0.00  0.00    +0.250 C 
ATOM      2  C   LIG A   1       0.506   0.109  -1.766  0.00  0.00    +0.253 C 
ATOM      3  C   LIG A   1       1.233   1.004  -0.850  0.00  0.00    +0.018 A 
ATOM      4  C   LIG A   1       1.572   0.703   0.454  0.00  0.00    -0.014 A 
ATOM      5  C   LIG A   1       2.238   1.700   1.184  0.00  0.00    -0.043 A 
ATOM      6  C   LIG A   1       2.634   1.488   2.619  0.00  0.00    +0.044 C 
ATOM      7  C   LIG A   1       2.496   2.958   0.572  0.00  0.00    +0.005 A 
ATOM      8  C   LIG A   1       2.061   3.244  -0.731  0.00  0.00    +0.015 A 
ATOM      9  C   LIG A   1       1.413   2.236  -1.411  0.00  0.00    +0.066 A 
ATOM     10  C   LIG A   1       0.682   2.250  -2.680  0.00  0.00    +0.340 C 
ATOM     11  O   LIG A   1       0.037   1.026  -2.769  0.00  0.00    -0.449 OA
ATOM     12  O   LIG A   1       0.595   3.177  -3.460  0.00  0.00    -0.245 OA
ATOM     13  C   LIG A   1       1.095  -0.599   0.950  0.00  0.00    +0.014 C 
ATOM     14  C   LIG A   1       0.078  -1.262   0.332  0.00  0.00    +0.006 C 
ENDROOT
BRANCH  14  15
ATOM     15  C   LIG A   1      -0.524  -2.562   0.876  0.00  0.00    +0.085 C 
ATOM     16  C   LIG A   1      -0.373  -3.738  -0.098  0.00  0.00    +0.046 C 
ATOM     17  C   LIG A   1      -1.998  -2.409   1.268  0.00  0.00    +0.046 C 
BRANCH  15  18
ATOM     18  O   LIG A   1       0.154  -2.934   2.086  0.00  0.00    -0.385 OA
ATOM     19  H   LIG A   1       1.012  -3.319   1.841  0.00  0.00    +0.211 HD
ENDBRANCH  15  18
ENDBRANCH  14  15
BRANCH   1  20
ATOM     20  O   LIG A   1      -1.590   0.231  -0.515  0.00  0.00    -0.453 OA
BRANCH  20  22
ATOM     21  O   LIG A   1      -2.917  -0.313  -2.306  0.00  0.00    -0.251 OA
ATOM     22  C   LIG A   1      -2.643   0.402  -1.355  0.00  0.00    +0.305 C 
ATOM     23  C   LIG A   1      -3.424   1.605  -0.923  0.00  0.00    +0.136 C 
ENDBRANCH  20  22
ENDBRANCH   1  20
TORSDOF 4
