REMARK  Name = NuBBE_2035
REMARK  7 active torsions:
REMARK  status: ('A' for Active; 'I' for Inactive)
REMARK    1  A    between atoms: C_1  and  C_2
REMARK    2  A    between atoms: C_5  and  O_11
REMARK    3  A    between atoms: C_6  and  C_10
REMARK    4  A    between atoms: C_7  and  O_8
REMARK    5  A    between atoms: O_8  and  C_9
REMARK    6  A    between atoms: C_14  and  C_16
REMARK    7  A    between atoms: C_21  and  O_22
REMARK                            x       y       z     vdW  Elec       q    Type
REMARK                         _______ _______ _______ _____ _____    ______ ____
ROOT
ATOM      1  C   LIG A   1      -2.282  -1.694   0.327  0.00  0.00    +0.051 C 
ATOM      2  C   LIG A   1      -0.806  -1.960   0.526  0.00  0.00    +0.034 A 
ATOM      3  C   LIG A   1       0.100  -0.887   0.633  0.00  0.00    +0.134 A 
ATOM      4  C   LIG A   1       1.464  -1.120   0.830  0.00  0.00    +0.036 A 
ATOM      5  C   LIG A   1       1.900  -2.443   0.991  0.00  0.00    +0.130 A 
ATOM      6  C   LIG A   1       1.029  -3.546   0.889  0.00  0.00    +0.033 A 
ATOM      7  C   LIG A   1      -0.334  -3.294   0.624  0.00  0.00    +0.133 A 
ATOM      8  C   LIG A   1       1.589  -4.925   1.129  0.00  0.00    +0.051 C 
ATOM      9  C   LIG A   1       2.422   0.036   0.874  0.00  0.00    +0.046 C 
ATOM     10  C   LIG A   1       1.847   1.232   0.140  0.00  0.00    +0.054 C 
ATOM     11  C   LIG A   1       0.444   1.499   0.671  0.00  0.00    +0.207 C 
ATOM     12  O   LIG A   1      -0.426   0.370   0.492  0.00  0.00    -0.483 OA
ENDROOT
BRANCH  11  13
ATOM     13  C   LIG A   1      -0.170   2.684  -0.058  0.00  0.00    +0.038 A 
ATOM     14  C   LIG A   1      -0.876   2.489  -1.261  0.00  0.00    +0.060 A 
ATOM     15  C   LIG A   1      -1.424   3.580  -1.893  0.00  0.00    +0.167 A 
ATOM     16  C   LIG A   1      -1.286   4.853  -1.383  0.00  0.00    +0.170 A 
ATOM     17  C   LIG A   1      -0.586   5.096  -0.225  0.00  0.00    +0.095 A 
ATOM     18  C   LIG A   1      -0.022   4.002   0.434  0.00  0.00    +0.127 A 
ATOM     19  O   LIG A   1      -1.905   5.786  -2.155  0.00  0.00    -0.453 OA
ATOM     20  C   LIG A   1      -2.458   4.955  -3.198  0.00  0.00    +0.466 C 
ATOM     21  O   LIG A   1      -2.141   3.557  -3.046  0.00  0.00    -0.453 OA
BRANCH  18  22
ATOM     22  O   LIG A   1       0.700   4.195   1.579  0.00  0.00    -0.506 OA
ATOM     23  H   LIG A   1       0.665   5.139   1.814  0.00  0.00    +0.292 HD
ENDBRANCH  18  22
ENDBRANCH  11  13
BRANCH   7  24
ATOM     24  O   LIG A   1      -1.320  -4.249   0.533  0.00  0.00    -0.494 OA
ATOM     25  C   LIG A   1      -1.007  -5.461  -0.140  0.00  0.00    +0.277 C 
ENDBRANCH   7  24
BRANCH   5  26
ATOM     26  O   LIG A   1       3.221  -2.704   1.261  0.00  0.00    -0.506 OA
ATOM     27  H   LIG A   1       3.629  -1.920   1.658  0.00  0.00    +0.292 HD
ENDBRANCH   5  26
TORSDOF 4
