@<TRIPOS>MOLECULE
NuBBE_2109
 44 43 0 0 0
SMALL
GASTEIGER

@<TRIPOS>ATOM
      1 C           2.8630   -1.8499    1.2381 C.3     1  LIG1       -0.0653
      2 C           1.7548   -1.5141    0.2853 C.3     1  LIG1       -0.0559
      3 C           0.3558   -2.0953    0.6695 C.3     1  LIG1       -0.0533
      4 C          -0.6396   -1.2599    1.5538 C.3     1  LIG1       -0.0531
      5 C          -2.1975   -1.4664    1.3601 C.3     1  LIG1       -0.0531
      6 C          -3.1522   -0.5429    0.4979 C.3     1  LIG1       -0.0531
      7 C          -3.3126   -0.6928   -1.0397 C.3     1  LIG1       -0.0531
      8 C          -2.2742    0.0729   -1.8826 C.3     1  LIG1       -0.0531
      9 C          -0.9519   -0.4966   -1.5014 C.3     1  LIG1       -0.0531
     10 C           0.3261    0.1110   -2.0209 C.3     1  LIG1       -0.0531
     11 C           0.8566    1.3652   -1.2709 C.3     1  LIG1       -0.0531
     12 C           0.7070    1.6446    0.2631 C.3     1  LIG1       -0.0533
     13 C           1.2215    3.0281    0.7390 C.3     1  LIG1       -0.0559
     14 C           2.6816    3.2904    0.4059 C.3     1  LIG1       -0.0653
     15 H           3.7896   -1.3561    0.9361 H       1  LIG1        0.0230
     16 H           3.0368   -2.9400    1.1955 H       1  LIG1        0.0230
     17 H           2.6156   -1.5648    2.2553 H       1  LIG1        0.0230
     18 H           2.0593   -1.9246   -0.6900 H       1  LIG1        0.0263
     19 H           1.7967   -0.4571    0.1184 H       1  LIG1        0.0263
     20 H           0.5363   -3.0377    1.1806 H       1  LIG1        0.0265
     21 H          -0.1255   -2.4076   -0.2531 H       1  LIG1        0.0265
     22 H          -0.4327   -0.1921    1.5722 H       1  LIG1        0.0265
     23 H          -0.4146   -1.5774    2.5798 H       1  LIG1        0.0265
     24 H          -2.5847   -1.2842    2.3769 H       1  LIG1        0.0265
     25 H          -2.4133   -2.5195    1.1534 H       1  LIG1        0.0265
     26 H          -2.9854    0.5120    0.7448 H       1  LIG1        0.0265
     27 H          -4.1612   -0.7678    0.8802 H       1  LIG1        0.0265
     28 H          -4.2973   -0.3061   -1.3368 H       1  LIG1        0.0265
     29 H          -3.3158   -1.7580   -1.3064 H       1  LIG1        0.0265
     30 H          -2.3105    1.1462   -1.6768 H       1  LIG1        0.0265
     31 H          -2.4486   -0.0783   -2.9556 H       1  LIG1        0.0265
     32 H          -0.9970   -1.5640   -1.7374 H       1  LIG1        0.0265
     33 H          -0.8969   -0.3444   -0.4479 H       1  LIG1        0.0265
     34 H           0.2558    0.2762   -3.0889 H       1  LIG1        0.0265
     35 H           1.0809   -0.7100   -1.9676 H       1  LIG1        0.0265
     36 H           0.3529    2.1995   -1.7760 H       1  LIG1        0.0265
     37 H           1.9288    1.4233   -1.5303 H       1  LIG1        0.0265
     38 H           1.2430    0.9706    0.9375 H       1  LIG1        0.0265
     39 H          -0.3507    1.5985    0.5331 H       1  LIG1        0.0265
     40 H           1.0452    3.1416    1.7794 H       1  LIG1        0.0263
     41 H           0.5962    3.8055    0.2170 H       1  LIG1        0.0263
     42 H           3.3306    2.6365    0.9943 H       1  LIG1        0.0230
     43 H           2.9191    4.3268    0.6668 H       1  LIG1        0.0230
     44 H           2.9090    3.1588   -0.6518 H       1  LIG1        0.0230
@<TRIPOS>BOND
     1     1     2    1
     2     2     3    1
     3     3     4    1
     4     4     5    1
     5     5     6    1
     6     6     7    1
     7     7     8    1
     8     8     9    1
     9     9    10    1
    10    10    11    1
    11    11    12    1
    12    12    13    1
    13    13    14    1
    14     1    15    1
    15     1    16    1
    16     1    17    1
    17     2    18    1
    18     2    19    1
    19     3    20    1
    20     3    21    1
    21     4    22    1
    22     4    23    1
    23     5    24    1
    24     5    25    1
    25     6    26    1
    26     6    27    1
    27     7    28    1
    28     7    29    1
    29     8    30    1
    30     8    31    1
    31     9    32    1
    32     9    33    1
    33    10    34    1
    34    10    35    1
    35    11    36    1
    36    11    37    1
    37    12    38    1
    38    12    39    1
    39    13    40    1
    40    13    41    1
    41    14    42    1
    42    14    43    1
    43    14    44    1
