@<TRIPOS>MOLECULE
NuBBE_648
 29 31 0 0 0
SMALL
GASTEIGER

@<TRIPOS>ATOM
      1 C          -1.9834    1.8999   -2.6231 C.3     1  LIG1       -0.0406
      2 C          -1.1155    0.7972   -3.1668 C.2     1  LIG1       -0.0395
      3 C          -0.2184    0.0700   -2.1846 C.3     1  LIG1        0.1248
      4 H           0.5427   -0.5042   -2.7337 H       1  LIG1        0.0784
      5 C          -0.9716   -0.8826   -1.2351 C.3     1  LIG1        0.0169
      6 C          -0.1781   -0.6720   -0.0011 C.ar    1  LIG1       -0.0011
      7 C           0.6242    0.4497   -0.1569 C.ar    1  LIG1        0.1282
      8 O           0.5162    1.0402   -1.3883 O.3     1  LIG1       -0.4838
      9 C           1.4308    0.9179    0.8573 C.ar    1  LIG1        0.0234
     10 C           1.4186    0.2026    2.0534 C.ar    1  LIG1        0.1425
     11 O           2.2507    0.6729    3.0907 O.2     1  LIG1       -0.4220
     12 C           2.3081    0.0277    4.3178 C.ar    1  LIG1        0.3372
     13 C           1.4584   -1.1642    4.4864 C.ar    1  LIG1        0.0236
     14 C           0.6620   -1.6244    3.5169 C.ar    1  LIG1       -0.0443
     15 C           0.6187   -0.9369    2.2362 C.ar    1  LIG1        0.0181
     16 C          -0.2009   -1.3790    1.1919 C.ar    1  LIG1       -0.0443
     17 O           3.0260    0.4161    5.2320 O.2     1  LIG1       -0.2452
     18 C          -1.1255    0.4876   -4.4754 C.2     1  LIG1       -0.0962
     19 H          -1.3696    2.7004   -2.1983 H       1  LIG1        0.0275
     20 H          -2.6514    1.5219   -1.8436 H       1  LIG1        0.0275
     21 H          -2.6108    2.3470   -3.4019 H       1  LIG1        0.0275
     22 H          -0.9339   -1.9150   -1.5953 H       1  LIG1        0.0353
     23 H          -2.0135   -0.5920   -1.0685 H       1  LIG1        0.0353
     24 H           2.0478    1.7985    0.7269 H       1  LIG1        0.0691
     25 H           1.5189   -1.6494    5.4530 H       1  LIG1        0.0689
     26 H           0.0463   -2.5042    3.6674 H       1  LIG1        0.0627
     27 H          -0.8432   -2.2468    1.3053 H       1  LIG1        0.0628
     28 H          -1.7596    1.0179   -5.1802 H       1  LIG1        0.0535
     29 H          -0.4940   -0.2967   -4.8823 H       1  LIG1        0.0535
@<TRIPOS>BOND
     1     1     2    1
     2     2     3    1
     3     3     4    1
     4     3     5    1
     5     5     6    1
     6     6     7   ar
     7     7     8    1
     8     3     8    1
     9     7     9   ar
    10     9    10   ar
    11    10    11   ar
    12    11    12   ar
    13    12    13   ar
    14    13    14   ar
    15    14    15   ar
    16    10    15   ar
    17    15    16   ar
    18     6    16   ar
    19    12    17    2
    20     2    18    2
    21     1    19    1
    22     1    20    1
    23     1    21    1
    24     5    22    1
    25     5    23    1
    26     9    24    1
    27    13    25    1
    28    14    26    1
    29    16    27    1
    30    18    28    1
    31    18    29    1
