REMARK  Name = NuBBE_2468
REMARK  11 active torsions:
REMARK  status: ('A' for Active; 'I' for Inactive)
REMARK    1  A    between atoms: C_1  and  O_2
REMARK    2  A    between atoms: O_2  and  C_3
REMARK    3  A    between atoms: C_5  and  C_6
REMARK    4  A    between atoms: C_14  and  C_18
REMARK    5  A    between atoms: C_20  and  O_21
REMARK    6  A    between atoms: O_21  and  C_22
REMARK    7  A    between atoms: C_23  and  O_24
REMARK    8  A    between atoms: O_24  and  C_25
REMARK    9  A    between atoms: C_30  and  O_31
REMARK   10  A    between atoms: O_31  and  C_32
REMARK   11  A    between atoms: C_32  and  C_33
REMARK                            x       y       z     vdW  Elec       q    Type
REMARK                         _______ _______ _______ _____ _____    ______ ____
ROOT
ATOM      1  C   LIG A   1       1.211   0.842   0.512  0.00  0.00    +0.154 C 
ATOM      2  C   LIG A   1       0.149   0.185  -0.377  0.00  0.00    +0.056 C 
ATOM      3  C   LIG A   1      -0.960  -0.137   0.588  0.00  0.00    +0.056 C 
ATOM      4  C   LIG A   1      -0.845   0.962   1.617  0.00  0.00    +0.167 C 
ATOM      5  O   LIG A   1       0.538   1.324   1.692  0.00  0.00    -0.371 OA
ATOM      6  C   LIG A   1      -0.585  -1.526   1.112  0.00  0.00    +0.154 C 
ATOM      7  O   LIG A   1       0.297  -2.119   0.136  0.00  0.00    -0.371 OA
ATOM      8  C   LIG A   1       0.555  -1.171  -0.905  0.00  0.00    +0.167 C 
ENDROOT
BRANCH   1  11
ATOM      9  C   LIG A   1       3.882   2.651  -1.539  0.00  0.00    +0.163 A 
ATOM     10  C   LIG A   1       3.139   1.654  -0.895  0.00  0.00    +0.055 A 
ATOM     11  C   LIG A   1       1.966   1.963  -0.181  0.00  0.00    -0.015 A 
ATOM     12  C   LIG A   1       1.538   3.300  -0.136  0.00  0.00    +0.010 A 
ATOM     13  C   LIG A   1       2.273   4.307  -0.769  0.00  0.00    +0.050 A 
ATOM     14  C   LIG A   1       3.432   3.974  -1.469  0.00  0.00    +0.173 A 
BRANCH   9  16
ATOM     15  C   LIG A   1       5.511   1.101  -2.316  0.00  0.00    +0.277 C 
ATOM     16  O   LIG A   1       5.048   2.442  -2.228  0.00  0.00    -0.491 OA
ENDBRANCH   9  16
BRANCH  14  17
ATOM     17  O   LIG A   1       4.301   4.983  -1.940  0.00  0.00    -0.422 OA
BRANCH  17  18
ATOM     18  C   LIG A   1       3.813   6.096  -2.628  0.00  0.00    +0.309 C 
ATOM     19  C   LIG A   1       4.845   7.185  -2.480  0.00  0.00    +0.136 C 
ATOM     20  O   LIG A   1       2.730   6.213  -3.166  0.00  0.00    -0.251 OA
ENDBRANCH  17  18
ENDBRANCH  14  17
ENDBRANCH   1  11
BRANCH   6  21
ATOM     21  C   LIG A   1      -1.791  -2.409   1.356  0.00  0.00    -0.015 A 
ATOM     22  C   LIG A   1      -2.306  -3.253   0.361  0.00  0.00    +0.055 A 
ATOM     23  C   LIG A   1      -3.400  -4.100   0.600  0.00  0.00    +0.162 A 
ATOM     24  C   LIG A   1      -3.996  -4.117   1.869  0.00  0.00    +0.162 A 
ATOM     25  C   LIG A   1      -3.502  -3.256   2.861  0.00  0.00    +0.050 A 
ATOM     26  C   LIG A   1      -2.421  -2.406   2.604  0.00  0.00    +0.010 A 
BRANCH  23  27
ATOM     27  O   LIG A   1      -3.717  -4.877  -0.482  0.00  0.00    -0.491 OA
ATOM     28  C   LIG A   1      -5.070  -5.277  -0.652  0.00  0.00    +0.277 C 
ENDBRANCH  23  27
BRANCH  24  29
ATOM     29  O   LIG A   1      -4.974  -5.043   2.128  0.00  0.00    -0.491 OA
ATOM     30  C   LIG A   1      -5.957  -4.651   3.082  0.00  0.00    +0.277 C 
ENDBRANCH  24  29
ENDBRANCH   6  21
TORSDOF 7
