@<TRIPOS>MOLECULE
NuBBE_548
 38 41 0 0 0
SMALL
GASTEIGER

@<TRIPOS>ATOM
      1 C           1.7342   -3.4920   -3.9545 C.3     1  LIG1        0.0788
      2 O           1.4583   -2.0947   -3.8968 O.3     1  LIG1       -0.4951
      3 C           1.6110   -1.5146   -2.6659 C.ar    1  LIG1        0.1201
      4 C           1.8703   -0.1429   -2.6638 C.ar    1  LIG1       -0.0196
      5 C           2.0143    0.5534   -1.4563 C.ar    1  LIG1       -0.0523
      6 C           1.8791   -0.1101   -0.2264 C.ar    1  LIG1       -0.0131
      7 C           1.9748    0.6407    1.0926 C.3     1  LIG1        0.1225
      8 C           0.7347    0.5052    1.9904 C.ar    1  LIG1        0.0819
      9 N           0.9394   -0.2204    3.1358 N.ar    1  LIG1       -0.2563
     10 C          -0.1293   -0.4693    3.9204 C.ar    1  LIG1        0.0286
     11 C          -1.4139   -0.0676    3.6166 C.ar    1  LIG1       -0.0357
     12 C          -1.6368    0.6677    2.4535 C.ar    1  LIG1       -0.0110
     13 C          -2.9428    1.0320    2.0872 C.ar    1  LIG1       -0.0083
     14 C          -3.1280    1.7344    0.9201 C.ar    1  LIG1        0.1668
     15 C          -2.0659    2.1402    0.1499 C.ar    1  LIG1        0.1669
     16 C          -0.7695    1.8280    0.4860 C.ar    1  LIG1       -0.0066
     17 C          -0.5271    1.0222    1.6210 C.ar    1  LIG1        0.0100
     18 O          -2.4578    2.8272   -0.9550 O.3     1  LIG1       -0.4526
     19 C          -3.8909    2.6954   -0.8576 C.3     1  LIG1        0.2332
     20 O          -4.3230    2.0947    0.3818 O.3     1  LIG1       -0.4526
     21 O           3.1276    0.1222    1.7779 O.3     1  LIG1       -0.3810
     22 C           1.6340   -1.4914   -0.2442 C.ar    1  LIG1       -0.0523
     23 C           1.4853   -2.1826   -1.4496 C.ar    1  LIG1       -0.0196
     24 H           1.5711   -3.8287   -4.9827 H       1  LIG1        0.0660
     25 H           1.0580   -4.0743   -3.3211 H       1  LIG1        0.0660
     26 H           2.7804   -3.6866   -3.6948 H       1  LIG1        0.0660
     27 H           1.9654    0.3893   -3.6077 H       1  LIG1        0.0654
     28 H           2.2229    1.6204   -1.4888 H       1  LIG1        0.0622
     29 H           2.1717    1.7044    0.9252 H       1  LIG1        0.0710
     30 H           0.0808   -1.0360    4.8226 H       1  LIG1        0.0830
     31 H          -2.2295   -0.3334    4.2844 H       1  LIG1        0.0639
     32 H          -3.8047    0.7403    2.6825 H       1  LIG1        0.0661
     33 H           0.0328    2.1895   -0.1511 H       1  LIG1        0.0662
     34 H          -4.2414    2.0749   -1.6921 H       1  LIG1        0.1166
     35 H          -4.3434    3.6884   -0.9427 H       1  LIG1        0.1166
     36 H           2.7641   -0.2458    2.6103 H       1  LIG1        0.2108
     37 H           1.5464   -2.0416    0.6909 H       1  LIG1        0.0622
     38 H           1.2477   -3.2384   -1.3979 H       1  LIG1        0.0654
@<TRIPOS>BOND
     1     1     2    1
     2     2     3    1
     3     3     4   ar
     4     4     5   ar
     5     5     6   ar
     6     6     7    1
     7     7     8    1
     8     8     9   ar
     9     9    10   ar
    10    10    11   ar
    11    11    12   ar
    12    12    13   ar
    13    13    14   ar
    14    14    15   ar
    15    15    16   ar
    16    16    17   ar
    17    12    17   ar
    18     8    17   ar
    19    15    18    1
    20    18    19    1
    21    19    20    1
    22    14    20    1
    23     7    21    1
    24     6    22   ar
    25    22    23   ar
    26     3    23   ar
    27     1    24    1
    28     1    25    1
    29     1    26    1
    30     4    27    1
    31     5    28    1
    32     7    29    1
    33    10    30    1
    34    11    31    1
    35    13    32    1
    36    16    33    1
    37    19    34    1
    38    19    35    1
    39    21    36    1
    40    22    37    1
    41    23    38    1
