@<TRIPOS>MOLECULE
NuBBE_998
 58 61 0 0 0
SMALL
GASTEIGER

@<TRIPOS>ATOM
      1 C          -2.4125   -2.5323    0.7595 C.3     1  LIG1       -0.0586
      2 C          -0.9372   -2.0700    0.7600 C.3     1  LIG1       -0.0191
      3 C          -0.5433   -1.6546   -0.6954 C.3     1  LIG1       -0.0252
      4 C           0.5774   -0.5776   -0.7186 C.3     1  LIG1       -0.0340
      5 C           1.1203   -0.3253   -2.1355 C.3     1  LIG1       -0.0494
      6 C           1.8789    0.9823   -2.2626 C.3     1  LIG1       -0.0494
      7 C           1.1417    2.2449   -1.7576 C.3     1  LIG1       -0.0329
      8 C           2.2007    3.1117   -1.0270 C.3     1  LIG1       -0.0211
      9 C           1.6516    4.3648   -0.3566 C.3     1  LIG1        0.0813
     10 H           2.4625    4.8301    0.2159 H       1  LIG1        0.0619
     11 C           0.5026    4.0206    0.5928 C.3     1  LIG1        0.0816
     12 H           0.0731    4.9516    0.9825 H       1  LIG1        0.0619
     13 C          -0.5926    3.2464   -0.1366 C.3     1  LIG1       -0.0185
     14 C          -0.1459    1.9566   -0.9098 C.3     1  LIG1       -0.0237
     15 C           0.1428    0.7308    0.0301 C.3     1  LIG1       -0.0322
     16 C          -0.9689    0.4538    1.0658 C.3     1  LIG1       -0.0489
     17 C          -0.7718   -0.8946    1.7490 C.3     1  LIG1       -0.0464
     18 C          -1.3501    1.6649   -1.8530 C.3     1  LIG1       -0.0590
     19 O           0.9836    3.2728    1.7049 O.3     1  LIG1       -0.3892
     20 O           1.2420    5.3210   -1.3358 O.3     1  LIG1       -0.3892
     21 C          -0.1922   -2.9788   -1.3898 C.3     1  LIG1        0.0097
     22 C           0.2960   -3.8464   -0.2646 C.2     1  LIG1        0.1372
     23 C           0.0562   -3.2251    1.0981 C.3     1  LIG1        0.0229
     24 H           1.0272   -2.8081    1.3975 H       1  LIG1        0.0383
     25 C          -0.3691   -4.2798    2.1241 C.3     1  LIG1       -0.0459
     26 C          -0.4870   -3.7442    3.5418 C.3     1  LIG1       -0.0646
     27 O           0.8313   -4.9339   -0.4457 O.2     1  LIG1       -0.2971
     28 H          -3.0730   -1.7325    0.4058 H       1  LIG1        0.0235
     29 H          -2.7528   -2.8066    1.7629 H       1  LIG1        0.0235
     30 H          -2.5708   -3.3990    0.1095 H       1  LIG1        0.0235
     31 H          -1.4101   -1.2273   -1.2160 H       1  LIG1        0.0313
     32 H           1.4246   -0.9836   -0.1453 H       1  LIG1        0.0307
     33 H           0.3298   -0.3734   -2.8895 H       1  LIG1        0.0268
     34 H           1.8126   -1.1339   -2.4029 H       1  LIG1        0.0268
     35 H           2.1595    1.1332   -3.3131 H       1  LIG1        0.0268
     36 H           2.8303    0.8549   -1.7291 H       1  LIG1        0.0268
     37 H           0.8301    2.8111   -2.6462 H       1  LIG1        0.0307
     38 H           2.9674    3.4052   -1.7562 H       1  LIG1        0.0294
     39 H           2.7052    2.5078   -0.2616 H       1  LIG1        0.0294
     40 H          -1.0501    3.9427   -0.8537 H       1  LIG1        0.0296
     41 H          -1.3922    3.0010    0.5715 H       1  LIG1        0.0296
     42 H           1.0257    1.0063    0.6245 H       1  LIG1        0.0309
     43 H          -1.9617    0.4842    0.6060 H       1  LIG1        0.0268
     44 H          -0.9566    1.2307    1.8381 H       1  LIG1        0.0268
     45 H          -1.4845   -0.9820    2.5774 H       1  LIG1        0.0271
     46 H           0.2242   -0.9048    2.2097 H       1  LIG1        0.0271
     47 H          -2.2867    1.5854   -1.2903 H       1  LIG1        0.0235
     48 H          -1.2565    0.7521   -2.4360 H       1  LIG1        0.0235
     49 H          -1.4842    2.4802   -2.5745 H       1  LIG1        0.0235
     50 H           0.2629    3.2289    2.3569 H       1  LIG1        0.2099
     51 H           0.6908    4.8755   -1.9994 H       1  LIG1        0.2099
     52 H           0.5691   -2.8969   -2.1651 H       1  LIG1        0.0345
     53 H          -1.0890   -3.4439   -1.8119 H       1  LIG1        0.0345
     54 H          -1.3080   -4.7621    1.8287 H       1  LIG1        0.0269
     55 H           0.3788   -5.0834    2.1345 H       1  LIG1        0.0269
     56 H          -1.3195   -3.0445    3.6437 H       1  LIG1        0.0230
     57 H           0.4334   -3.2379    3.8491 H       1  LIG1        0.0230
     58 H          -0.6664   -4.5692    4.2390 H       1  LIG1        0.0230
@<TRIPOS>BOND
     1     2     3    1
     2     3     4    1
     3     4     5    1
     4     5     6    1
     5     6     7    1
     6     7     8    1
     7     8     9    1
     8     9    11    1
     9    11    13    1
    10    13    14    1
    11    14    15    1
    12     4    15    1
    13    15    16    1
    14    16    17    1
    15     2    17    1
    16     7    14    1
    17     3    21    1
    18    21    22    1
    19    22    23    1
    20     2    23    1
    21    25    26    1
    22     1     2    1
    23     9    10    1
    24     9    20    1
    25    11    12    1
    26    11    19    1
    27    14    18    1
    28    22    27    2
    29    23    24    1
    30    23    25    1
    31     1    28    1
    32     1    29    1
    33     1    30    1
    34     3    31    1
    35     4    32    1
    36     5    33    1
    37     5    34    1
    38     6    35    1
    39     6    36    1
    40     7    37    1
    41     8    38    1
    42     8    39    1
    43    13    40    1
    44    13    41    1
    45    15    42    1
    46    16    43    1
    47    16    44    1
    48    17    45    1
    49    17    46    1
    50    18    47    1
    51    18    48    1
    52    18    49    1
    53    19    50    1
    54    20    51    1
    55    21    52    1
    56    21    53    1
    57    25    54    1
    58    25    55    1
    59    26    56    1
    60    26    57    1
    61    26    58    1
