@<TRIPOS>MOLECULE
NuBBE_1107
 53 57 0 0 0
SMALL
GASTEIGER

@<TRIPOS>ATOM
      1 O          -2.2482   -3.3892   -1.5335 O.2     1  LIG1       -0.2668
      2 C          -1.0546   -3.3630   -1.2502 C.ar    1  LIG1        0.2643
      3 C          -0.3042   -4.6298   -1.1787 C.ar    1  LIG1        0.0632
      4 C           1.0314   -4.6105   -0.7868 C.ar    1  LIG1        0.0583
      5 C           1.7247   -5.8322   -0.7301 C.ar    1  LIG1       -0.0373
      6 C           1.0932   -7.0356   -1.0627 C.ar    1  LIG1       -0.0598
      7 C          -0.2404   -7.0382   -1.4556 C.ar    1  LIG1       -0.0609
      8 C          -0.9420   -5.8353   -1.5129 C.ar    1  LIG1       -0.0474
      9 N           1.6472   -3.3735   -0.4613 N.ar    1  LIG1       -0.2963
     10 C           3.0386   -3.3583   -0.0258 C.3     1  LIG1        0.0167
     11 C           0.9782   -2.1579   -0.5674 C.ar    1  LIG1        0.3322
     12 N          -0.3446   -2.1974   -0.9908 N.ar    1  LIG1       -0.2601
     13 C          -1.0533   -0.9206   -1.1406 C.3     1  LIG1        0.0350
     14 C          -1.7071   -0.4348    0.1617 C.3     1  LIG1       -0.0074
     15 C          -2.4236    0.8785   -0.0093 C.ar    1  LIG1       -0.0200
     16 C          -3.7598    0.9720   -0.3578 C.ar    1  LIG1        0.0060
     17 N          -4.1037    2.2884   -0.4257 N.ar    1  LIG1       -0.3603
     18 C          -3.0193    3.0797   -0.1356 C.ar    1  LIG1        0.0475
     19 C          -1.9299    2.2359    0.1380 C.ar    1  LIG1        0.0135
     20 C          -0.6971    2.8700    0.4708 C.ar    1  LIG1        0.0259
     21 C          -0.6190    4.2736    0.5097 C.ar    1  LIG1        0.1295
     22 C          -1.7255    5.0620    0.2198 C.ar    1  LIG1       -0.0173
     23 C          -2.9474    4.4788   -0.1022 C.ar    1  LIG1       -0.0343
     24 O           0.5258    4.9663    0.8007 O.3     1  LIG1       -0.4816
     25 C           1.6468    4.2443    1.3462 C.3     1  LIG1        0.1235
     26 C           1.7387    4.6137    2.8310 C.3     1  LIG1       -0.0215
     27 C           2.8840    4.7696    0.6073 C.3     1  LIG1       -0.0215
     28 C           1.5844    2.7459    1.1901 C.2     1  LIG1       -0.0409
     29 C           0.4964    2.0965    0.7655 C.2     1  LIG1       -0.0507
     30 O           1.5341   -1.0905   -0.2954 O.2     1  LIG1       -0.2462
     31 H           2.7685   -5.8842   -0.4341 H       1  LIG1        0.0638
     32 H           1.6477   -7.9707   -1.0160 H       1  LIG1        0.0618
     33 H          -0.7328   -7.9716   -1.7175 H       1  LIG1        0.0618
     34 H          -1.9850   -5.8383   -1.8231 H       1  LIG1        0.0626
     35 H           3.1494   -3.9847    0.8653 H       1  LIG1        0.0457
     36 H           3.3821   -2.3532    0.2338 H       1  LIG1        0.0457
     37 H           3.6753   -3.7302   -0.8351 H       1  LIG1        0.0457
     38 H          -1.8215   -1.0292   -1.9167 H       1  LIG1        0.0497
     39 H          -0.3503   -0.1652   -1.5126 H       1  LIG1        0.0497
     40 H          -0.9773   -0.3707    0.9735 H       1  LIG1        0.0331
     41 H          -2.4299   -1.1893    0.5010 H       1  LIG1        0.0331
     42 H          -4.4941    0.2028   -0.5606 H       1  LIG1        0.0810
     43 H          -5.0221    2.6417   -0.6564 H       1  LIG1        0.1653
     44 H          -1.6356    6.1450    0.2493 H       1  LIG1        0.0655
     45 H          -3.8117    5.0978   -0.3213 H       1  LIG1        0.0639
     46 H           1.8051    5.7009    2.9574 H       1  LIG1        0.0271
     47 H           2.6086    4.1567    3.3151 H       1  LIG1        0.0271
     48 H           0.8382    4.2967    3.3705 H       1  LIG1        0.0271
     49 H           2.9542    5.8606    0.6885 H       1  LIG1        0.0271
     50 H           2.8238    4.5439   -0.4644 H       1  LIG1        0.0271
     51 H           3.8111    4.3354    0.9980 H       1  LIG1        0.0271
     52 H           2.4741    2.1715    1.4350 H       1  LIG1        0.0611
     53 H           0.5183    1.0258    0.6521 H       1  LIG1        0.0623
@<TRIPOS>BOND
     1     1     2    2
     2     2     3   ar
     3     3     4   ar
     4     4     5   ar
     5     5     6   ar
     6     6     7   ar
     7     7     8   ar
     8     3     8   ar
     9     4     9   ar
    10     9    10    1
    11     9    11   ar
    12    11    12   ar
    13     2    12   ar
    14    12    13    1
    15    13    14    1
    16    14    15    1
    17    15    16   ar
    18    16    17   ar
    19    17    18   ar
    20    18    19   ar
    21    15    19   ar
    22    19    20   ar
    23    20    21   ar
    24    21    22   ar
    25    22    23   ar
    26    18    23   ar
    27    21    24    1
    28    24    25    1
    29    25    26    1
    30    25    27    1
    31    25    28    1
    32    28    29    2
    33    20    29    1
    34    11    30    2
    35     5    31    1
    36     6    32    1
    37     7    33    1
    38     8    34    1
    39    10    35    1
    40    10    36    1
    41    10    37    1
    42    13    38    1
    43    13    39    1
    44    14    40    1
    45    14    41    1
    46    16    42    1
    47    17    43    1
    48    22    44    1
    49    23    45    1
    50    26    46    1
    51    26    47    1
    52    26    48    1
    53    27    49    1
    54    27    50    1
    55    27    51    1
    56    28    52    1
    57    29    53    1
