@<TRIPOS>MOLECULE
NuBBE_78
 80 83 0 0 0
SMALL
GASTEIGER

@<TRIPOS>ATOM
      1 C           1.3741   -0.8678    1.7613 C.3     1  LIG1       -0.0590
      2 C           1.0891    0.3495    0.8239 C.3     1  LIG1       -0.0259
      3 C           0.9660    1.6700    1.6044 C.3     1  LIG1       -0.0320
      4 H           0.8691    2.4653    0.8634 H       1  LIG1        0.0309
      5 C          -0.3078    1.8922    2.4357 C.3     1  LIG1       -0.0307
      6 H          -0.4033    2.9938    2.4271 H       1  LIG1        0.0309
      7 C          -1.5991    1.4272    1.6918 C.3     1  LIG1       -0.0285
      8 H          -2.1517    2.3758    1.5774 H       1  LIG1        0.0312
      9 C          -1.3168    1.0300    0.2241 C.3     1  LIG1       -0.0486
     10 C          -0.1996    0.0083    0.0592 C.3     1  LIG1       -0.0468
     11 C          -2.6229    0.4965    2.4566 C.3     1  LIG1       -0.0078
     12 C          -4.0377    0.9370    1.9694 C.3     1  LIG1       -0.0556
     13 C          -2.5126    0.6424    3.9715 C.2     1  LIG1       -0.0648
     14 C          -1.4556    1.1721    4.5957 C.2     1  LIG1       -0.0839
     15 C          -0.1968    1.6042    3.9260 C.3     1  LIG1       -0.0311
     16 C          -3.5405   -0.1162    4.7811 C.3     1  LIG1       -0.0051
     17 C          -3.3734   -1.6138    4.4901 C.3     1  LIG1        0.0590
     18 H          -2.4099   -1.9513    4.8930 H       1  LIG1        0.0596
     19 C          -3.4119   -1.9215    2.9900 C.3     1  LIG1       -0.0258
     20 C          -2.4695   -1.0226    2.1720 C.3     1  LIG1       -0.0413
     21 O          -4.3860   -2.3631    5.1563 O.3     1  LIG1       -0.3915
     22 C           2.3615    1.8789    2.1918 C.3     1  LIG1       -0.0492
     23 C           3.3096    1.2999    1.1157 C.3     1  LIG1       -0.0492
     24 C           2.4057    0.6422    0.0174 C.3     1  LIG1       -0.0328
     25 H           2.8690   -0.3146   -0.2597 H       1  LIG1        0.0309
     26 C           2.4247    1.5190   -1.2903 C.3     1  LIG1       -0.0405
     27 H           3.4762    1.4855   -1.6154 H       1  LIG1        0.0301
     28 C           1.6166    1.0059   -2.5025 C.3     1  LIG1       -0.0499
     29 C           1.8057   -0.4806   -2.8342 C.3     1  LIG1       -0.0497
     30 C           0.9485   -0.9763   -4.0335 C.3     1  LIG1       -0.0389
     31 H          -0.1054   -0.8540   -3.7423 H       1  LIG1        0.0303
     32 C           1.1773   -2.4993   -4.3052 C.3     1  LIG1       -0.0439
     33 C           0.9654   -3.3632   -3.0521 C.3     1  LIG1       -0.0624
     34 C           0.2592   -3.0362   -5.4110 C.3     1  LIG1       -0.0624
     35 C           1.1495   -0.1015   -5.2974 C.3     1  LIG1       -0.0528
     36 C           2.5479   -0.1547   -5.8987 C.3     1  LIG1       -0.0650
     37 C           2.1171    3.0214   -1.1365 C.3     1  LIG1       -0.0621
     38 H           0.6274   -0.9483    2.5533 H       1  LIG1        0.0235
     39 H           2.3479   -0.8302    2.2573 H       1  LIG1        0.0235
     40 H           1.3642   -1.8041    1.1891 H       1  LIG1        0.0235
     41 H          -1.0398    1.9321   -0.3380 H       1  LIG1        0.0268
     42 H          -2.2213    0.6580   -0.2686 H       1  LIG1        0.0268
     43 H          -0.0351   -0.1463   -0.9991 H       1  LIG1        0.0271
     44 H          -0.5747   -0.9700    0.3745 H       1  LIG1        0.0271
     45 H          -4.2422    1.9804    2.2369 H       1  LIG1        0.0238
     46 H          -4.8498    0.3378    2.3895 H       1  LIG1        0.0238
     47 H          -4.1268    0.8497    0.8807 H       1  LIG1        0.0238
     48 H          -1.4167    1.1734    5.6855 H       1  LIG1        0.0572
     49 H           0.5583    0.8394    4.1290 H       1  LIG1        0.0310
     50 H           0.1561    2.5161    4.4273 H       1  LIG1        0.0310
     51 H          -4.5574    0.2230    4.5580 H       1  LIG1        0.0335
     52 H          -3.4196    0.0538    5.8584 H       1  LIG1        0.0335
     53 H          -4.4385   -1.8363    2.6145 H       1  LIG1        0.0290
     54 H          -3.1403   -2.9729    2.8303 H       1  LIG1        0.0290
     55 H          -2.6488   -1.2391    1.1127 H       1  LIG1        0.0274
     56 H          -1.4483   -1.3383    2.4010 H       1  LIG1        0.0274
     57 H          -5.2456   -2.0874    4.7959 H       1  LIG1        0.2098
     58 H           2.5065    1.3424    3.1351 H       1  LIG1        0.0268
     59 H           2.5701    2.9364    2.3798 H       1  LIG1        0.0268
     60 H           3.9601    0.5415    1.5695 H       1  LIG1        0.0268
     61 H           3.9851    2.0633    0.7177 H       1  LIG1        0.0268
     62 H           1.9398    1.6029   -3.3632 H       1  LIG1        0.0268
     63 H           0.5527    1.2395   -2.3783 H       1  LIG1        0.0268
     64 H           1.5330   -1.0705   -1.9563 H       1  LIG1        0.0268
     65 H           2.8665   -0.6846   -3.0103 H       1  LIG1        0.0268
     66 H           2.2147   -2.6479   -4.6299 H       1  LIG1        0.0298
     67 H           0.0050   -3.1419   -2.5741 H       1  LIG1        0.0232
     68 H           1.7621   -3.2053   -2.3187 H       1  LIG1        0.0232
     69 H           0.9791   -4.4299   -3.3020 H       1  LIG1        0.0232
     70 H          -0.7956   -2.9068   -5.1457 H       1  LIG1        0.0232
     71 H           0.4358   -4.1055   -5.5737 H       1  LIG1        0.0232
     72 H           0.4384   -2.5404   -6.3684 H       1  LIG1        0.0232
     73 H           0.9049    0.9408   -5.0654 H       1  LIG1        0.0265
     74 H           0.4225   -0.3774   -6.0692 H       1  LIG1        0.0265
     75 H           3.3322   -0.1278   -5.1380 H       1  LIG1        0.0230
     76 H           2.7022    0.7039   -6.5606 H       1  LIG1        0.0230
     77 H           2.6802   -1.0610   -6.4972 H       1  LIG1        0.0230
     78 H           2.4363    3.5663   -2.0327 H       1  LIG1        0.0233
     79 H           2.6427    3.4798   -0.2950 H       1  LIG1        0.0233
     80 H           1.0448    3.2109   -1.0279 H       1  LIG1        0.0233
@<TRIPOS>BOND
     1     2     3    1
     2     3     5    1
     3     5     7    1
     4     7     9    1
     5     9    10    1
     6     2    10    1
     7     7    11    1
     8    11    13    1
     9    13    14    2
    10    14    15    1
    11     5    15    1
    12    13    16    1
    13    16    17    1
    14    17    19    1
    15    19    20    1
    16    11    20    1
    17     3    22    1
    18    22    23    1
    19    23    24    1
    20     2    24    1
    21    26    27    1
    22    26    28    1
    23    28    29    1
    24    30    32    1
    25    32    33    1
    26    32    34    1
    27    30    35    1
    28    35    36    1
    29    26    37    1
    30     1     2    1
    31     3     4    1
    32     5     6    1
    33     7     8    1
    34    11    12    1
    35    17    21    1
    36    17    18    1
    37    24    26    1
    38    24    25    1
    39    30    31    1
    40    30    29    1
    41     1    38    1
    42     1    39    1
    43     1    40    1
    44     9    41    1
    45     9    42    1
    46    10    43    1
    47    10    44    1
    48    12    45    1
    49    12    46    1
    50    12    47    1
    51    14    48    1
    52    15    49    1
    53    15    50    1
    54    16    51    1
    55    16    52    1
    56    19    53    1
    57    19    54    1
    58    20    55    1
    59    20    56    1
    60    21    57    1
    61    22    58    1
    62    22    59    1
    63    23    60    1
    64    23    61    1
    65    28    62    1
    66    28    63    1
    67    29    64    1
    68    29    65    1
    69    32    66    1
    70    33    67    1
    71    33    68    1
    72    33    69    1
    73    34    70    1
    74    34    71    1
    75    34    72    1
    76    35    73    1
    77    35    74    1
    78    36    75    1
    79    36    76    1
    80    36    77    1
    81    37    78    1
    82    37    79    1
    83    37    80    1
