REMARK  Name = NuBBE_1434
REMARK  3 active torsions:
REMARK  status: ('A' for Active; 'I' for Inactive)
REMARK    1  A    between atoms: N_8  and  C_9
REMARK    2  A    between atoms: C_17  and  C_18
REMARK    3  A    between atoms: C_17  and  C_19
REMARK                            x       y       z     vdW  Elec       q    Type
REMARK                         _______ _______ _______ _____ _____    ______ ____
ROOT
ATOM      1  O   LIG A   1      -4.120  -1.771   0.004  0.00  0.00    -0.286 OA
ATOM      2  C   LIG A   1      -2.882  -1.765   0.003  0.00  0.00    +0.200 A 
ATOM      3  C   LIG A   1      -2.110  -2.965   0.002  0.00  0.00    +0.085 A 
ATOM      4  C   LIG A   1      -0.740  -2.887   0.001  0.00  0.00    +0.212 A 
ATOM      5  O   LIG A   1      -0.198  -4.134  -0.001  0.00  0.00    -0.447 OA
ATOM      6  C   LIG A   1      -1.244  -5.010  -0.002  0.00  0.00    +0.198 A 
ATOM      7  C   LIG A   1      -2.445  -4.336   0.000  0.00  0.00    +0.055 A 
ATOM      8  N   LIG A   1       0.001  -1.753   0.002  0.00  0.00    -0.311 N 
ATOM      9  C   LIG A   1       1.460  -1.870   0.001  0.00  0.00    +0.152 C 
ATOM     10  C   LIG A   1      -0.690  -0.501   0.001  0.00  0.00    +0.098 A 
ATOM     11  C   LIG A   1      -2.114  -0.491   0.002  0.00  0.00    +0.050 A 
ATOM     12  C   LIG A   1      -2.866   0.699   0.001  0.00  0.00    +0.014 A 
ATOM     13  C   LIG A   1      -2.232   1.926  -0.003  0.00  0.00    +0.012 A 
ATOM     14  C   LIG A   1      -0.848   1.974  -0.005  0.00  0.00    +0.019 A 
ATOM     15  C   LIG A   1      -0.086   0.779  -0.001  0.00  0.00    +0.153 A 
ATOM     16  O   LIG A   1       1.272   0.831   0.002  0.00  0.00    -0.479 OA
ATOM     17  C   LIG A   1       1.927   2.108   0.002  0.00  0.00    +0.124 C 
ATOM     18  C   LIG A   1       2.643   2.132  -1.350  0.00  0.00    +0.060 C 
ATOM     19  C   LIG A   1       2.630   2.142   1.360  0.00  0.00    +0.060 C 
ATOM     20  C   LIG A   1       1.085   3.349  -0.008  0.00  0.00    +0.020 C 
ATOM     21  C   LIG A   1      -0.240   3.295  -0.011  0.00  0.00    +0.011 C 
ENDROOT
TORSDOF 0
