REMARK  Name = NuBBE_1972
REMARK  4 active torsions:
REMARK  status: ('A' for Active; 'I' for Inactive)
REMARK    1  A    between atoms: C_1  and  S_2
REMARK    2  A    between atoms: C_1  and  C_5
REMARK    3  A    between atoms: S_2  and  S_3
REMARK    4  A    between atoms: S_3  and  C_4
REMARK                            x       y       z     vdW  Elec       q    Type
REMARK                         _______ _______ _______ _____ _____    ______ ____
ROOT
ATOM      1  C   LIG A   1       0.313  -0.390  -0.409  0.00  0.00    +0.107 C 
ENDROOT
BRANCH   1   2
ATOM      2  C   LIG A   1       1.805  -0.470  -0.559  0.00  0.00    -0.023 C 
ATOM      3  C   LIG A   1       2.453  -1.446  -1.207  0.00  0.00    +0.005 C 
ENDBRANCH   1   2
BRANCH   1   4
ATOM      4  S   LIG A   1      -0.114  -0.421   1.359  0.00  0.00    -0.089 S 
BRANCH   4   5
ATOM      5  S   LIG A   1      -2.168  -0.289   1.319  0.00  0.00    -0.096 S 
ATOM      6  C   LIG A   1      -2.429   1.491   1.115  0.00  0.00    +0.097 C 
ENDBRANCH   4   5
ENDBRANCH   1   4
TORSDOF 3
