@<TRIPOS>MOLECULE
NuBBE_1334
 67 72 0 0 0
SMALL
GASTEIGER

@<TRIPOS>ATOM
      1 C           0.6531   -0.6806   -4.6675 C.3     1  LIG1       -0.0248
      2 C           1.8113   -0.1515   -3.8261 C.3     1  LIG1        0.1125
      3 C           3.1271   -0.4155   -4.5722 C.3     1  LIG1       -0.0248
      4 O           1.6579    1.2755   -3.7425 O.3     1  LIG1       -0.4577
      5 C           1.2366    1.6664   -2.5091 C.2     1  LIG1        0.3184
      6 C           1.1962    0.4876   -1.5326 C.3     1  LIG1        0.0991
      7 C           2.0178    0.8944   -0.3048 C.2     1  LIG1       -0.0598
      8 C           3.3272    0.7081   -0.0426 C.2     1  LIG1        0.0196
      9 C           4.0129    1.2485    1.1544 C.2     1  LIG1        0.3314
     10 O           3.1224    1.5918    2.1104 O.3     1  LIG1       -0.4649
     11 C           3.7085    2.1611    3.2767 C.3     1  LIG1        0.0820
     12 O           5.2292    1.3380    1.2187 O.2     1  LIG1       -0.2456
     13 C           1.9103   -0.6059   -2.3608 C.3     1  LIG1        0.0247
     14 C           1.5560   -2.0382   -1.9727 C.3     1  LIG1        0.0142
     15 C           0.7082   -2.0632   -0.7086 C.2     1  LIG1        0.1429
     16 C          -0.6469   -1.3435   -0.7726 C.3     1  LIG1        0.0652
     17 C          -1.4699   -2.0704   -1.8861 C.3     1  LIG1       -0.0496
     18 C          -0.3458    0.1373   -1.2684 C.3     1  LIG1        0.0195
     19 C          -1.2326    1.2665   -0.6595 C.3     1  LIG1        0.0611
     20 H          -1.7717    1.7514   -1.4852 H       1  LIG1        0.0597
     21 O          -0.5037    2.3109   -0.0381 O.3     1  LIG1       -0.3914
     22 C          -2.2934    0.8183    0.3321 C.3     1  LIG1       -0.0146
     23 C          -1.7916   -0.2050    1.3680 C.3     1  LIG1        0.0445
     24 C          -0.5451    0.2391    2.1584 C.3     1  LIG1       -0.0530
     25 C          -1.4537   -1.4621    0.5725 C.3     1  LIG1        0.1285
     26 O          -2.6096   -2.3330    0.4250 O.3     1  LIG1       -0.3512
     27 C          -1.6053   -2.7741    1.3375 C.3     1  LIG1        0.1861
     28 H          -1.0164   -3.6335    1.0445 H       1  LIG1        0.0743
     29 C          -2.0348   -2.7811    2.7564 C.2     1  LIG1        0.3398
     30 O          -2.5845   -1.6413    3.2573 O.3     1  LIG1       -0.4539
     31 C          -2.9502   -0.5363    2.3891 C.3     1  LIG1        0.1392
     32 H          -3.8533   -0.8576    1.8506 H       1  LIG1        0.0793
     33 C          -3.3723    0.6370    3.2463 C.ar    1  LIG1        0.0310
     34 C          -4.3012    1.6135    2.9360 C.ar    1  LIG1        0.0984
     35 O          -4.4142    2.5199    3.9384 O.2     1  LIG1       -0.4706
     36 C          -3.5759    2.1207    4.9262 C.ar    1  LIG1        0.0921
     37 C          -2.9250    0.9662    4.5622 C.ar    1  LIG1       -0.0172
     38 O          -1.8685   -3.7807    3.4493 O.2     1  LIG1       -0.2478
     39 O           1.1203   -2.6194    0.3072 O.2     1  LIG1       -0.2967
     40 O           0.8817    2.8096   -2.2556 O.2     1  LIG1       -0.2498
     41 H          -0.3175   -0.3738   -4.2740 H       1  LIG1        0.0268
     42 H           0.6771   -1.7680   -4.7715 H       1  LIG1        0.0268
     43 H           0.6929   -0.2510   -5.6766 H       1  LIG1        0.0268
     44 H           3.9685    0.0853   -4.0777 H       1  LIG1        0.0268
     45 H           3.0929   -0.0028   -5.5871 H       1  LIG1        0.0268
     46 H           3.3445   -1.4861   -4.6351 H       1  LIG1        0.0268
     47 H           1.4829    1.4912    0.4294 H       1  LIG1        0.0585
     48 H           4.0248    0.2114   -0.7042 H       1  LIG1        0.0686
     49 H           2.8965    2.4387    3.9536 H       1  LIG1        0.0661
     50 H           4.2713    3.0639    3.0202 H       1  LIG1        0.0661
     51 H           4.3492    1.4300    3.7785 H       1  LIG1        0.0661
     52 H           2.9835   -0.5532   -2.1632 H       1  LIG1        0.0357
     53 H           2.4792   -2.5931   -1.7587 H       1  LIG1        0.0346
     54 H           1.0593   -2.6013   -2.7633 H       1  LIG1        0.0346
     55 H          -1.0087   -2.0034   -2.8725 H       1  LIG1        0.0240
     56 H          -2.4738   -1.6401   -1.9782 H       1  LIG1        0.0240
     57 H          -1.5696   -3.1418   -1.6733 H       1  LIG1        0.0240
     58 H          -0.7523    0.1303   -2.2889 H       1  LIG1        0.0350
     59 H          -0.1563    2.9062   -0.7389 H       1  LIG1        0.2098
     60 H          -3.1279    0.3760   -0.2301 H       1  LIG1        0.0298
     61 H          -2.6868    1.7100    0.8290 H       1  LIG1        0.0298
     62 H          -0.5851    1.3016    2.4171 H       1  LIG1        0.0237
     63 H           0.3745    0.0434    1.6094 H       1  LIG1        0.0237
     64 H          -0.4352   -0.3180    3.0958 H       1  LIG1        0.0237
     65 H          -4.9232    1.8065    2.0726 H       1  LIG1        0.1033
     66 H          -3.5598    2.7460    5.8081 H       1  LIG1        0.1029
     67 H          -2.2120    0.4230    5.1677 H       1  LIG1        0.0653
@<TRIPOS>BOND
     1     2     4    1
     2     4     5    1
     3     5     6    1
     4     7     8    2
     5     8     9    1
     6     9    10    1
     7    10    11    1
     8     9    12    2
     9     6    13    1
    10     2    13    1
    11    13    14    1
    12    14    15    1
    13    15    16    1
    14    16    18    1
    15     6    18    1
    16    18    19    1
    17    19    22    1
    18    22    23    1
    19    23    25    1
    20    25    26    1
    21    16    25    1
    22    25    27    1
    23    26    27    1
    24    27    29    1
    25    29    30    1
    26    30    31    1
    27    23    31    1
    28    33    34   ar
    29    34    35   ar
    30    35    36   ar
    31    36    37   ar
    32    33    37   ar
    33     1     2    1
    34     2     3    1
    35     5    40    2
    36     6     7    1
    37    15    39    2
    38    16    17    1
    39    19    20    1
    40    19    21    1
    41    23    24    1
    42    27    28    1
    43    29    38    2
    44    31    33    1
    45    31    32    1
    46     1    41    1
    47     1    42    1
    48     1    43    1
    49     3    44    1
    50     3    45    1
    51     3    46    1
    52     7    47    1
    53     8    48    1
    54    11    49    1
    55    11    50    1
    56    11    51    1
    57    13    52    1
    58    14    53    1
    59    14    54    1
    60    17    55    1
    61    17    56    1
    62    17    57    1
    63    18    58    1
    64    21    59    1
    65    22    60    1
    66    22    61    1
    67    24    62    1
    68    24    63    1
    69    24    64    1
    70    34    65    1
    71    36    66    1
    72    37    67    1
