REMARK  Name = NuBBE_1831
REMARK  7 active torsions:
REMARK  status: ('A' for Active; 'I' for Inactive)
REMARK    1  A    between atoms: C_1  and  C_2
REMARK    2  A    between atoms: C_4  and  C_19
REMARK    3  A    between atoms: C_9  and  O_10
REMARK    4  A    between atoms: O_10  and  C_11
REMARK    5  A    between atoms: C_11  and  C_12
REMARK    6  A    between atoms: C_14  and  O_15
REMARK    7  A    between atoms: O_15  and  C_16
REMARK                            x       y       z     vdW  Elec       q    Type
REMARK                         _______ _______ _______ _____ _____    ______ ____
ROOT
ATOM      1  C   LIG A   1       3.352   1.051  -1.876  0.00  0.00    +0.016 C 
ATOM      2  C   LIG A   1       2.220   0.981  -0.854  0.00  0.00    +0.065 C 
ATOM      3  C   LIG A   1       2.687   0.537   0.556  0.00  0.00    +0.211 C 
ATOM      4  O   LIG A   1       2.509  -0.901   0.654  0.00  0.00    -0.483 OA
ATOM      5  C   LIG A   1       1.527  -1.182  -0.259  0.00  0.00    +0.129 A 
ATOM      6  C   LIG A   1       0.764  -2.323  -0.267  0.00  0.00    +0.095 A 
ATOM      7  C   LIG A   1      -0.271  -2.419  -1.203  0.00  0.00    +0.166 A 
ATOM      8  C   LIG A   1      -0.443  -1.422  -2.185  0.00  0.00    +0.162 A 
ATOM      9  C   LIG A   1       0.359  -0.265  -2.152  0.00  0.00    +0.057 A 
ATOM     10  C   LIG A   1       1.318  -0.157  -1.161  0.00  0.00    +0.005 A 
ENDROOT
BRANCH   3  11
ATOM     11  C   LIG A   1       1.941   1.156   1.739  0.00  0.00    -0.003 A 
ATOM     12  C   LIG A   1       0.574   1.491   1.673  0.00  0.00    +0.056 A 
ATOM     13  C   LIG A   1      -0.043   1.986   2.800  0.00  0.00    +0.167 A 
ATOM     14  O   LIG A   1      -1.349   2.352   2.890  0.00  0.00    -0.453 OA
ATOM     15  C   LIG A   1      -1.413   2.781   4.265  0.00  0.00    +0.466 C 
ATOM     16  O   LIG A   1      -0.160   2.647   4.968  0.00  0.00    -0.453 OA
ATOM     17  C   LIG A   1       0.635   2.155   3.981  0.00  0.00    +0.166 A 
ATOM     18  C   LIG A   1       1.967   1.827   4.101  0.00  0.00    +0.050 A 
ATOM     19  C   LIG A   1       2.621   1.322   2.971  0.00  0.00    +0.011 A 
ENDBRANCH   3  11
BRANCH   8  20
ATOM     20  O   LIG A   1      -1.334  -1.635  -3.202  0.00  0.00    -0.491 OA
ATOM     21  C   LIG A   1      -2.030  -0.468  -3.645  0.00  0.00    +0.277 C 
ENDBRANCH   8  20
BRANCH   7  22
ATOM     22  O   LIG A   1      -1.095  -3.496  -0.992  0.00  0.00    -0.484 OA
BRANCH  22  23
ATOM     23  C   LIG A   1      -2.488  -3.400  -1.328  0.00  0.00    +0.256 C 
BRANCH  23  24
ATOM     24  C   LIG A   1      -3.174  -2.141  -0.850  0.00  0.00    +0.006 C 
ATOM     25  C   LIG A   1      -4.194  -1.561  -1.495  0.00  0.00    +0.007 C 
ENDBRANCH  23  24
ENDBRANCH  22  23
ENDBRANCH   7  22
TORSDOF 5
