@<TRIPOS>MOLECULE
NuBBE_658
 24 24 0 0 0
SMALL
GASTEIGER

@<TRIPOS>ATOM
      1 O          -3.4436   -0.0414   -0.0631 O.2     1  LIG1       -0.2974
      2 C          -2.2137   -0.0557   -0.0507 C.2     1  LIG1        0.1334
      3 C          -1.4412   -1.3469    0.0492 C.3     1  LIG1        0.0062
      4 C          -0.2512   -1.3571   -0.9000 C.3     1  LIG1       -0.0412
      5 C           0.6234   -0.0908   -0.8816 C.3     1  LIG1       -0.0145
      6 C           1.7518   -0.1115    0.1785 C.3     1  LIG1        0.0553
      7 O           2.6228    0.9997   -0.0462 O.3     1  LIG1       -0.3918
      8 C           1.3565   -0.1234    1.6462 C.3     1  LIG1       -0.0387
      9 C          -0.2371    1.1863   -0.9352 C.3     1  LIG1       -0.0412
     10 C          -1.4117    1.2185    0.0303 C.3     1  LIG1        0.0062
     11 H          -2.1111   -2.1770   -0.2021 H       1  LIG1        0.0342
     12 H          -1.1369   -1.4796    1.0896 H       1  LIG1        0.0342
     13 H          -0.6450   -1.4686   -1.9200 H       1  LIG1        0.0273
     14 H           0.3609   -2.2477   -0.7153 H       1  LIG1        0.0273
     15 H           1.1693   -0.0921   -1.8386 H       1  LIG1        0.0326
     16 H           2.3614   -1.0049   -0.0043 H       1  LIG1        0.0593
     17 H           2.2333    1.7898    0.3648 H       1  LIG1        0.2098
     18 H           0.7962    0.7713    1.9262 H       1  LIG1        0.0255
     19 H           2.2574   -0.1155    2.2713 H       1  LIG1        0.0255
     20 H           0.7839   -1.0134    1.9109 H       1  LIG1        0.0255
     21 H          -0.6470    1.2601   -1.9527 H       1  LIG1        0.0273
     22 H           0.3764    2.0831   -0.7986 H       1  LIG1        0.0273
     23 H          -2.0654    2.0608   -0.2232 H       1  LIG1        0.0342
     24 H          -1.0892    1.3560    1.0645 H       1  LIG1        0.0342
@<TRIPOS>BOND
     1     1     2    2
     2     2     3    1
     3     3     4    1
     4     4     5    1
     5     5     6    1
     6     6     7    1
     7     6     8    1
     8     5     9    1
     9     9    10    1
    10     2    10    1
    11     3    11    1
    12     3    12    1
    13     4    13    1
    14     4    14    1
    15     5    15    1
    16     6    16    1
    17     7    17    1
    18     8    18    1
    19     8    19    1
    20     8    20    1
    21     9    21    1
    22     9    22    1
    23    10    23    1
    24    10    24    1
