@<TRIPOS>MOLECULE
NuBBE_662
 34 35 0 0 0
SMALL
GASTEIGER

@<TRIPOS>ATOM
      1 C           1.1449   -3.9015    0.8193 C.3     1  LIG1        0.0788
      2 O           0.2732   -2.8029    1.0788 O.3     1  LIG1       -0.4947
      3 C           0.8760   -1.5733    1.1734 C.ar    1  LIG1        0.1271
      4 C           2.1971   -1.4074    1.6164 C.ar    1  LIG1       -0.0189
      5 C           2.7692   -0.1372    1.7096 C.ar    1  LIG1       -0.0476
      6 C           2.0251    0.9858    1.3641 C.ar    1  LIG1        0.0181
      7 C           0.7039    0.8203    0.9440 C.ar    1  LIG1        0.1460
      8 C           0.0945   -0.4450    0.8557 C.ar    1  LIG1        0.0408
      9 C          -1.3524   -0.5653    0.4195 C.3     1  LIG1       -0.0023
     10 C          -1.5155   -0.7126   -1.0729 C.2     1  LIG1       -0.0807
     11 C          -2.1969    0.0920   -1.9154 C.2     1  LIG1       -0.0793
     12 C          -2.9472    1.3361   -1.5201 C.3     1  LIG1       -0.0440
     13 C          -2.2468   -0.2001   -3.3937 C.3     1  LIG1       -0.0440
     14 O          -0.0639    1.9597    0.6003 O.2     1  LIG1       -0.4217
     15 C           0.4569    3.2419    0.6577 C.ar    1  LIG1        0.3372
     16 O          -0.2021    4.2359    0.3557 O.2     1  LIG1       -0.2452
     17 C           1.8513    3.3768    1.1081 C.ar    1  LIG1        0.0236
     18 C           2.5947    2.3193    1.4442 C.ar    1  LIG1       -0.0443
     19 H           1.7320   -3.7282   -0.0893 H       1  LIG1        0.0660
     20 H           0.5291   -4.7914    0.6592 H       1  LIG1        0.0660
     21 H           1.7969   -4.1131    1.6730 H       1  LIG1        0.0660
     22 H           2.8067   -2.2526    1.9191 H       1  LIG1        0.0654
     23 H           3.7947   -0.0425    2.0576 H       1  LIG1        0.0626
     24 H          -1.9040    0.2973    0.8037 H       1  LIG1        0.0358
     25 H          -1.8248   -1.4205    0.9181 H       1  LIG1        0.0358
     26 H          -1.0203   -1.5916   -1.4864 H       1  LIG1        0.0575
     27 H          -2.9029    1.5604   -0.4534 H       1  LIG1        0.0274
     28 H          -4.0056    1.2390   -1.7859 H       1  LIG1        0.0274
     29 H          -2.5375    2.2025   -2.0497 H       1  LIG1        0.0274
     30 H          -1.6850   -1.1007   -3.6615 H       1  LIG1        0.0274
     31 H          -1.8187    0.6371   -3.9553 H       1  LIG1        0.0274
     32 H          -3.2821   -0.3425   -3.7218 H       1  LIG1        0.0274
     33 H           2.2395    4.3858    1.1529 H       1  LIG1        0.0689
     34 H           3.6200    2.4386    1.7750 H       1  LIG1        0.0627
@<TRIPOS>BOND
     1     1     2    1
     2     2     3    1
     3     3     4   ar
     4     4     5   ar
     5     5     6   ar
     6     6     7   ar
     7     7     8   ar
     8     3     8   ar
     9     8     9    1
    10     9    10    1
    11    10    11    2
    12    11    12    1
    13    11    13    1
    14     7    14   ar
    15    14    15   ar
    16    15    16    2
    17    15    17   ar
    18    17    18   ar
    19     6    18   ar
    20     1    19    1
    21     1    20    1
    22     1    21    1
    23     4    22    1
    24     5    23    1
    25     9    24    1
    26     9    25    1
    27    10    26    1
    28    12    27    1
    29    12    28    1
    30    12    29    1
    31    13    30    1
    32    13    31    1
    33    13    32    1
    34    17    33    1
    35    18    34    1
