REMARK  Name = NuBBE_1869
REMARK  11 active torsions:
REMARK  status: ('A' for Active; 'I' for Inactive)
REMARK    1  A    between atoms: C_1  and  O_2
REMARK    2  A    between atoms: O_2  and  C_3
REMARK    3  A    between atoms: C_4  and  C_5
REMARK    4  A    between atoms: C_8  and  O_9
REMARK    5  A    between atoms: O_9  and  C_10
REMARK    6  A    between atoms: C_11  and  O_12
REMARK    7  A    between atoms: C_13  and  O_14
REMARK    8  A    between atoms: C_18  and  O_19
REMARK    9  A    between atoms: C_20  and  O_21
REMARK   10  A    between atoms: C_22  and  O_23
REMARK   11  A    between atoms: O_23  and  C_24
REMARK                            x       y       z     vdW  Elec       q    Type
REMARK                         _______ _______ _______ _____ _____    ______ ____
ROOT
ATOM      1  C   LIG A   1       0.486   1.683  -0.433  0.00  0.00    +0.211 A 
ATOM      2  C   LIG A   1      -0.273   0.572  -0.246  0.00  0.00    +0.184 A 
ATOM      3  O   LIG A   1       0.228  -0.731  -0.135  0.00  0.00    -0.451 OA
ATOM      4  C   LIG A   1       1.585  -0.919  -0.091  0.00  0.00    +0.147 A 
ATOM      5  C   LIG A   1       2.479   0.124  -0.245  0.00  0.00    +0.113 A 
ATOM      6  C   LIG A   1       3.850  -0.105  -0.161  0.00  0.00    +0.177 A 
ATOM      7  C   LIG A   1       4.329  -1.397   0.087  0.00  0.00    +0.202 A 
ATOM      8  C   LIG A   1       3.448  -2.465   0.254  0.00  0.00    +0.169 A 
ATOM      9  C   LIG A   1       2.064  -2.220   0.136  0.00  0.00    +0.096 A 
ATOM     10  C   LIG A   1       1.970   1.482  -0.495  0.00  0.00    +0.238 A 
ATOM     11  O   LIG A   1       2.781   2.364  -0.703  0.00  0.00    -0.283 OA
ENDROOT
BRANCH   2  12
ATOM     12  C   LIG A   1      -1.756   0.584  -0.118  0.00  0.00    +0.066 A 
ATOM     13  C   LIG A   1      -2.353   0.686   1.153  0.00  0.00    +0.019 A 
ATOM     14  C   LIG A   1      -3.746   0.540   1.330  0.00  0.00    +0.050 A 
ATOM     15  C   LIG A   1      -4.570   0.271   0.240  0.00  0.00    +0.165 A 
ATOM     16  C   LIG A   1      -3.981   0.196  -1.023  0.00  0.00    +0.202 A 
ATOM     17  C   LIG A   1      -2.602   0.368  -1.208  0.00  0.00    +0.173 A 
BRANCH  15  18
ATOM     18  O   LIG A   1      -5.926   0.068   0.269  0.00  0.00    -0.491 OA
ATOM     19  C   LIG A   1      -6.549   0.051   1.550  0.00  0.00    +0.277 C 
ENDBRANCH  15  18
BRANCH  16  20
ATOM     20  O   LIG A   1      -4.748  -0.085  -2.131  0.00  0.00    -0.501 OA
ATOM     21  H   LIG A   1      -5.646  -0.249  -1.776  0.00  0.00    +0.292 HD
ENDBRANCH  16  20
BRANCH  17  22
ATOM     22  O   LIG A   1      -2.112   0.294  -2.486  0.00  0.00    -0.503 OA
ATOM     23  H   LIG A   1      -2.911   0.176  -3.041  0.00  0.00    +0.292 HD
ENDBRANCH  17  22
ENDBRANCH   2  12
BRANCH   1  25
ATOM     24  C   LIG A   1       0.590   3.917  -1.265  0.00  0.00    +0.277 C 
ATOM     25  O   LIG A   1      -0.084   2.943  -0.475  0.00  0.00    -0.488 OA
ENDBRANCH   1  25
BRANCH   6  26
ATOM     26  O   LIG A   1       4.819   0.858  -0.288  0.00  0.00    -0.503 OA
ATOM     27  H   LIG A   1       4.357   1.706  -0.492  0.00  0.00    +0.292 HD
ENDBRANCH   6  26
BRANCH   7  28
ATOM     28  O   LIG A   1       5.690  -1.533   0.133  0.00  0.00    -0.501 OA
ATOM     29  H   LIG A   1       6.048  -0.631   0.007  0.00  0.00    +0.292 HD
ENDBRANCH   7  28
BRANCH   8  30
ATOM     30  O   LIG A   1       3.812  -3.765   0.506  0.00  0.00    -0.491 OA
ATOM     31  C   LIG A   1       5.056  -3.931   1.193  0.00  0.00    +0.277 C 
ENDBRANCH   8  30
TORSDOF 8
