@<TRIPOS>MOLECULE
NuBBE_2238
 51 54 0 0 0
SMALL
GASTEIGER

@<TRIPOS>ATOM
      1 O           4.2081    2.9367   -1.6621 O.2     1  LIG1       -0.2920
      2 C           3.3002    2.1749   -1.3196 C.2     1  LIG1        0.1643
      3 C           2.3839    1.7021   -2.3761 C.2     1  LIG1       -0.0197
      4 C           1.4865    0.7421   -2.1345 C.2     1  LIG1       -0.0459
      5 C           1.3097    0.0273   -0.8550 C.3     1  LIG1        0.1265
      6 O           2.4982   -0.5740   -0.2789 O.3     1  LIG1       -0.3552
      7 C           2.0746    0.6278    0.3609 C.3     1  LIG1        0.1158
      8 C           1.6088    0.3667    1.7781 C.3     1  LIG1       -0.0194
      9 C           0.5824   -0.7531    1.8978 C.3     1  LIG1       -0.0468
     10 C          -0.5007   -0.5738    0.8305 C.3     1  LIG1       -0.0294
     11 C           0.0289   -0.8692   -0.6154 C.3     1  LIG1        0.0321
     12 C           0.4386   -2.3559   -0.8180 C.3     1  LIG1       -0.0539
     13 C          -1.1668   -0.5450   -1.5875 C.3     1  LIG1        0.0647
     14 H          -1.3371    0.5382   -1.6051 H       1  LIG1        0.0600
     15 O          -0.8679   -0.9444   -2.9319 O.3     1  LIG1       -0.3911
     16 C          -2.4804   -1.2681   -1.2243 C.3     1  LIG1       -0.0174
     17 C          -2.9463   -1.1150    0.2367 C.3     1  LIG1       -0.0117
     18 C          -4.0222   -2.1908    0.5111 C.3     1  LIG1       -0.0560
     19 C          -3.4856    0.3033    0.4429 C.2     1  LIG1       -0.0851
     20 C          -4.7029    0.6645    0.8732 C.2     1  LIG1       -0.1021
     21 C          -1.7598   -1.3771    1.1935 C.3     1  LIG1       -0.0406
     22 C           3.0444    1.8092    0.1514 C.3     1  LIG1        0.0593
     23 C           4.4108    1.4936    0.7924 C.3     1  LIG1       -0.0500
     24 C           2.4732    3.0947    0.7863 C.3     1  LIG1       -0.0500
     25 H           2.5125    2.1381   -3.3595 H       1  LIG1        0.0650
     26 H           0.9142    0.4114   -2.9937 H       1  LIG1        0.0603
     27 H           1.1475    1.2752    2.1804 H       1  LIG1        0.0294
     28 H           2.4618    0.1303    2.4230 H       1  LIG1        0.0294
     29 H           0.1452   -0.7096    2.9030 H       1  LIG1        0.0269
     30 H           1.0670   -1.7311    1.8198 H       1  LIG1        0.0269
     31 H          -0.7782    0.4895    0.8646 H       1  LIG1        0.0308
     32 H           1.2087   -2.6801   -0.1122 H       1  LIG1        0.0237
     33 H           0.8555   -2.5097   -1.8202 H       1  LIG1        0.0237
     34 H          -0.4027   -3.0441   -0.7027 H       1  LIG1        0.0237
     35 H          -1.6429   -0.7392   -3.4842 H       1  LIG1        0.2098
     36 H          -2.3692   -2.3336   -1.4691 H       1  LIG1        0.0298
     37 H          -3.2712   -0.9235   -1.9068 H       1  LIG1        0.0298
     38 H          -4.8883   -2.0717   -0.1503 H       1  LIG1        0.0238
     39 H          -4.3744   -2.1529    1.5486 H       1  LIG1        0.0238
     40 H          -3.6246   -3.1991    0.3440 H       1  LIG1        0.0238
     41 H          -2.8045    1.1212    0.2104 H       1  LIG1        0.0572
     42 H          -5.4739   -0.0506    1.1383 H       1  LIG1        0.0532
     43 H          -4.9606    1.7153    0.9753 H       1  LIG1        0.0532
     44 H          -1.5143   -2.4467    1.2089 H       1  LIG1        0.0276
     45 H          -2.0656   -1.1298    2.2198 H       1  LIG1        0.0276
     46 H           4.8676    0.6111    0.3299 H       1  LIG1        0.0240
     47 H           4.3215    1.2973    1.8656 H       1  LIG1        0.0240
     48 H           5.1158    2.3246    0.6737 H       1  LIG1        0.0240
     49 H           2.4472    3.0336    1.8793 H       1  LIG1        0.0240
     50 H           1.4519    3.2843    0.4354 H       1  LIG1        0.0240
     51 H           3.0754    3.9751    0.5322 H       1  LIG1        0.0240
@<TRIPOS>BOND
     1     1     2    2
     2     2     3    1
     3     3     4    2
     4     4     5    1
     5     5     6    1
     6     5     7    1
     7     7     8    1
     8     8     9    1
     9     9    10    1
    10    10    11    1
    11    11    12    1
    12     5    11    1
    13    11    13    1
    14    13    16    1
    15    16    17    1
    16    17    18    1
    17    17    19    1
    18    19    20    2
    19    17    21    1
    20    10    21    1
    21     6     7    1
    22     7    22    1
    23    22    23    1
    24     2    22    1
    25    22    24    1
    26    13    15    1
    27    13    14    1
    28     3    25    1
    29     4    26    1
    30     8    27    1
    31     8    28    1
    32     9    29    1
    33     9    30    1
    34    10    31    1
    35    12    32    1
    36    12    33    1
    37    12    34    1
    38    15    35    1
    39    16    36    1
    40    16    37    1
    41    18    38    1
    42    18    39    1
    43    18    40    1
    44    19    41    1
    45    20    42    1
    46    20    43    1
    47    21    44    1
    48    21    45    1
    49    23    46    1
    50    23    47    1
    51    23    48    1
    52    24    49    1
    53    24    50    1
    54    24    51    1
