REMARK  Name = NuBBE_105
REMARK  3 active torsions:
REMARK  status: ('A' for Active; 'I' for Inactive)
REMARK    1  A    between atoms: O_1  and  C_2
REMARK    2  A    between atoms: C_2  and  CA_3
REMARK    3  A    between atoms: C_7  and  C_8
REMARK                            x       y       z     vdW  Elec       q    Type
REMARK                         _______ _______ _______ _____ _____    ______ ____
ROOT
ATOM      1  CA  LIG A   1      -1.732  -1.825   0.444  0.00  0.00    +0.148 A 
ATOM      2  C   LIG A   1      -0.422  -1.807  -0.004  0.00  0.00    +0.045 A 
ATOM      3  C   LIG A   1       0.171  -0.542  -0.107  0.00  0.00    +0.011 A 
ATOM      4  C   LIG A   1      -0.581   0.583   0.236  0.00  0.00    +0.069 A 
ATOM      5  C   LIG A   1      -1.911   0.508   0.673  0.00  0.00    +0.063 A 
ATOM      6  C   LIG A   1      -2.747   1.683   1.074  0.00  0.00    +0.068 C 
ATOM      7  N   LIG A   1      -2.472  -0.726   0.781  0.00  0.00    -0.243 NA
ATOM      8  N   LIG A   1       0.238   1.676   0.052  0.00  0.00    -0.353 N 
ATOM      9  C   LIG A   1       1.479   1.298  -0.403  0.00  0.00    +0.048 A 
ATOM     10  C   LIG A   1       2.598   2.075  -0.722  0.00  0.00    +0.026 A 
ATOM     11  C   LIG A   1       3.743   1.407  -1.168  0.00  0.00    +0.002 A 
ATOM     12  C   LIG A   1       3.764   0.020  -1.287  0.00  0.00    +0.001 A 
ATOM     13  C   LIG A   1       2.635  -0.741  -0.963  0.00  0.00    +0.010 A 
ATOM     14  C   LIG A   1       1.467  -0.091  -0.512  0.00  0.00    +0.007 A 
ATOM     15  H   LIG A   1      -0.032   2.634   0.224  0.00  0.00    +0.166 HD
ENDROOT
BRANCH   1  16
ATOM     16  C   LIG A   1      -2.446  -3.127   0.594  0.00  0.00    +0.355 C 
ATOM     17  OXT LIG A   1      -1.973  -4.222   0.350  0.00  0.00    -0.243 OA
BRANCH  16  18
ATOM     18  O   LIG A   1      -3.708  -2.918   1.046  0.00  0.00    -0.476 OA
ATOM     19  H   LIG A   1      -3.834  -1.945   1.162  0.00  0.00    +0.295 HD
ENDBRANCH  16  18
ENDBRANCH   1  16
TORSDOF 2
