@<TRIPOS>MOLECULE
NuBBE_635
 91 93 0 0 0
SMALL
GASTEIGER

@<TRIPOS>ATOM
      1 O          -4.5852    2.3855   -2.3319 O.3     1  LIG1       -0.3877
      2 C          -3.6996    1.3123   -2.6398 C.3     1  LIG1        0.0741
      3 H          -4.2630    0.6198   -3.2640 H       1  LIG1        0.0638
      4 C          -2.5208    1.8873   -3.3585 C.2     1  LIG1       -0.0499
      5 C          -1.2438    1.8334   -2.9036 C.2     1  LIG1        0.0125
      6 C          -0.3388    3.0203   -3.0968 C.3     1  LIG1        0.2315
      7 H           0.3401    2.8466   -3.9373 H       1  LIG1        0.1111
      8 O          -1.1068    4.2062   -3.4267 O.3     1  LIG1       -0.4311
      9 C          -1.1209    5.2909   -2.6161 C.2     1  LIG1        0.3063
     10 C          -1.9844    6.3797   -3.1833 C.3     1  LIG1        0.0333
     11 O          -0.5451    5.4215   -1.5456 O.2     1  LIG1       -0.2511
     12 O           0.4174    3.0826   -1.8981 O.3     1  LIG1       -0.2971
     13 C          -0.2111    2.2615   -0.8672 C.3     1  LIG1        0.2215
     14 H          -1.0012    2.8228   -0.3566 H       1  LIG1        0.1068
     15 O           0.8857    1.9511    0.0481 O.3     1  LIG1       -0.4341
     16 C           1.5303    2.9687    0.6821 C.2     1  LIG1        0.3061
     17 C           3.0085    2.6589    0.8701 C.3     1  LIG1        0.0333
     18 O           1.0173    4.0033    1.0710 O.2     1  LIG1       -0.2511
     19 C          -0.7405    0.9923   -1.7085 C.3     1  LIG1        0.1026
     20 C           0.5308    0.0807   -1.7076 C.3     1  LIG1        0.1448
     21 H           1.4009    0.7384   -1.8547 H       1  LIG1        0.0771
     22 O           0.8181   -0.5861   -0.3924 O.3     1  LIG1       -0.4545
     23 C           0.1227   -1.2614    0.5380 C.2     1  LIG1        0.3323
     24 C           0.9233   -1.4800    1.7354 C.2     1  LIG1        0.0225
     25 C           2.0389   -0.7888    1.8817 C.2     1  LIG1       -0.0553
     26 C           2.7982   -0.7257    3.0477 C.2     1  LIG1       -0.0655
     27 C           3.2798   -1.7948    3.6592 C.2     1  LIG1       -0.0840
     28 C           4.3127   -1.7044    4.7339 C.3     1  LIG1       -0.0345
     29 C           4.7406   -0.2770    5.1133 C.3     1  LIG1       -0.0496
     30 C           3.6315    0.5719    5.7676 C.3     1  LIG1       -0.0530
     31 C           4.0786    1.9869    6.1306 C.3     1  LIG1       -0.0559
     32 C           4.5394    2.8489    4.9593 C.3     1  LIG1       -0.0653
     33 O          -1.0141   -1.6448    0.6223 O.2     1  LIG1       -0.2456
     34 C           0.6782   -0.9694   -2.7620 C.3     1  LIG1        0.0962
     35 H           1.2870   -1.7935   -2.3676 H       1  LIG1        0.0633
     36 O           1.4233   -0.4229   -3.8700 O.3     1  LIG1       -0.3878
     37 C          -0.6480   -1.4733   -3.2983 C.3     1  LIG1       -0.0086
     38 H          -0.9139   -0.7910   -4.1188 H       1  LIG1        0.0330
     39 C          -0.3283   -2.8141   -3.9919 C.3     1  LIG1       -0.0594
     40 C          -1.8889   -1.4595   -2.2857 C.3     1  LIG1       -0.0227
     41 C          -3.1144   -1.6016   -3.2313 C.3     1  LIG1       -0.0589
     42 C          -1.9690   -2.8284   -1.4426 C.3     1  LIG1       -0.0430
     43 C          -3.1380   -2.9712   -0.4073 C.3     1  LIG1       -0.0277
     44 C          -3.2548   -4.2842    0.3832 C.2     1  LIG1       -0.0550
     45 C          -2.0550   -5.0089    0.7795 C.2     1  LIG1       -0.0662
     46 C          -1.9861   -6.3444    0.8995 C.2     1  LIG1       -0.0985
     47 C          -4.4508   -4.7197    0.8284 C.2     1  LIG1       -0.0955
     48 C          -1.9243   -0.0082   -1.3843 C.3     1  LIG1       -0.0138
     49 H          -1.8198   -0.2016   -0.3347 H       1  LIG1        0.0319
     50 C          -3.2872    0.6877   -1.3249 C.3     1  LIG1       -0.0188
     51 H          -5.1220    2.5493   -3.1241 H       1  LIG1        0.2102
     52 H          -2.7842    2.5640   -4.1691 H       1  LIG1        0.0599
     53 H          -2.9368    6.4131   -2.6474 H       1  LIG1        0.0342
     54 H          -2.1702    6.2259   -4.2492 H       1  LIG1        0.0342
     55 H          -1.4634    7.3361   -3.0712 H       1  LIG1        0.0342
     56 H           3.5247    3.5249    1.3003 H       1  LIG1        0.0342
     57 H           3.4832    2.4393   -0.0911 H       1  LIG1        0.0342
     58 H           3.1636    1.8318    1.5598 H       1  LIG1        0.0342
     59 H           0.4642   -2.0836    2.5089 H       1  LIG1        0.0689
     60 H           2.3983   -0.1112    1.0874 H       1  LIG1        0.0620
     61 H           3.0114    0.2988    3.3075 H       1  LIG1        0.0615
     62 H           3.0338   -2.7937    3.2970 H       1  LIG1        0.0572
     63 H           5.1934   -2.2254    4.3332 H       1  LIG1        0.0307
     64 H           3.9797   -2.2616    5.6129 H       1  LIG1        0.0307
     65 H           5.1254    0.2141    4.2101 H       1  LIG1        0.0268
     66 H           5.5881   -0.3509    5.8020 H       1  LIG1        0.0268
     67 H           3.2779    0.0537    6.6650 H       1  LIG1        0.0265
     68 H           2.7368    0.6806    5.1514 H       1  LIG1        0.0265
     69 H           4.8784    1.9236    6.8735 H       1  LIG1        0.0263
     70 H           3.2316    2.4947    6.6079 H       1  LIG1        0.0263
     71 H           5.2808    2.3511    4.3295 H       1  LIG1        0.0230
     72 H           5.0038    3.7636    5.3428 H       1  LIG1        0.0230
     73 H           3.6977    3.1464    4.3245 H       1  LIG1        0.0230
     74 H           2.3055   -0.1644   -3.5461 H       1  LIG1        0.2099
     75 H           0.4124   -2.6570   -4.7880 H       1  LIG1        0.0233
     76 H          -1.2012   -3.2704   -4.4571 H       1  LIG1        0.0233
     77 H           0.1150   -3.5307   -3.2906 H       1  LIG1        0.0233
     78 H          -3.1439   -2.5920   -3.7006 H       1  LIG1        0.0235
     79 H          -3.0716   -0.8937   -4.0621 H       1  LIG1        0.0235
     80 H          -4.0610   -1.4946   -2.7008 H       1  LIG1        0.0235
     81 H          -0.9945   -3.0521   -1.0012 H       1  LIG1        0.0274
     82 H          -2.0951   -3.6663   -2.1434 H       1  LIG1        0.0274
     83 H          -4.0818   -2.8312   -0.9481 H       1  LIG1        0.0313
     84 H          -3.1185   -2.1555    0.3227 H       1  LIG1        0.0313
     85 H          -1.1811   -4.4099    1.0229 H       1  LIG1        0.0614
     86 H          -2.8349   -6.9865    0.6785 H       1  LIG1        0.0535
     87 H          -1.0834   -6.8359    1.2437 H       1  LIG1        0.0535
     88 H          -5.3788   -4.1990    0.6280 H       1  LIG1        0.0537
     89 H          -4.5368   -5.6107    1.4477 H       1  LIG1        0.0537
     90 H          -3.2421    1.4679   -0.5483 H       1  LIG1        0.0296
     91 H          -4.0540   -0.0067   -0.9613 H       1  LIG1        0.0296
@<TRIPOS>BOND
     1     2     4    1
     2     4     5    2
     3     5     6    1
     4     6     7    1
     5     6     8    1
     6     8     9    1
     7     9    10    1
     8     9    11    2
     9     6    12    1
    10    12    13    1
    11    13    14    1
    12    13    15    1
    13    15    16    1
    14    16    17    1
    15    16    18    2
    16     5    19    1
    17    13    19    1
    18    19    20    1
    19    22    23    1
    20    23    24    1
    21    24    25    2
    22    25    26    1
    23    26    27    2
    24    27    28    1
    25    28    29    1
    26    29    30    1
    27    30    31    1
    28    31    32    1
    29    23    33    2
    30    20    34    1
    31    34    35    1
    32    34    36    1
    33    34    37    1
    34    37    38    1
    35    37    39    1
    36    37    40    1
    37    40    41    1
    38    40    42    1
    39    42    43    1
    40    43    44    1
    41    44    45    1
    42    45    46    2
    43    44    47    2
    44    19    48    1
    45    40    48    1
    46    48    49    1
    47    48    50    1
    48     2    50    1
    49     2     3    1
    50     2     1    1
    51    20    22    1
    52    20    21    1
    53     1    51    1
    54     4    52    1
    55    10    53    1
    56    10    54    1
    57    10    55    1
    58    17    56    1
    59    17    57    1
    60    17    58    1
    61    24    59    1
    62    25    60    1
    63    26    61    1
    64    27    62    1
    65    28    63    1
    66    28    64    1
    67    29    65    1
    68    29    66    1
    69    30    67    1
    70    30    68    1
    71    31    69    1
    72    31    70    1
    73    32    71    1
    74    32    72    1
    75    32    73    1
    76    36    74    1
    77    39    75    1
    78    39    76    1
    79    39    77    1
    80    41    78    1
    81    41    79    1
    82    41    80    1
    83    42    81    1
    84    42    82    1
    85    43    83    1
    86    43    84    1
    87    45    85    1
    88    46    86    1
    89    46    87    1
    90    47    88    1
    91    47    89    1
    92    50    90    1
    93    50    91    1
