REMARK  Name = NuBBE_42
REMARK  8 active torsions:
REMARK  status: ('A' for Active; 'I' for Inactive)
REMARK    1  A    between atoms: N_4  and  C_5
REMARK    2  A    between atoms: N_4  and  C_10
REMARK    3  A    between atoms: C_5  and  C_6
REMARK    4  A    between atoms: C_7  and  C_8
REMARK    5  A    between atoms: C_7  and  C_9
REMARK    6  A    between atoms: C_10  and  C_11
REMARK    7  A    between atoms: C_12  and  C_13
REMARK    8  A    between atoms: C_12  and  C_14
REMARK                            x       y       z     vdW  Elec       q    Type
REMARK                         _______ _______ _______ _____ _____    ______ ____
ROOT
ATOM      1  N   LIG A   1      -0.264   1.286   3.028  0.00  0.00    -0.130 NA
ATOM      2  C   LIG A   1      -0.937   0.581   2.186  0.00  0.00    +0.379 C 
ATOM      3  N   LIG A   1      -2.291   0.622   2.207  0.00  0.00    -0.289 N 
ATOM      4  N   LIG A   1      -0.372  -0.269   1.266  0.00  0.00    -0.256 N 
ATOM      5  H   LIG A   1      -0.906   1.814   3.620  0.00  0.00    +0.306 HD
ATOM      6  H   LIG A   1      -2.709   1.363   2.753  0.00  0.00    +0.255 HD
ATOM      7  H   LIG A   1      -2.739   0.529   1.308  0.00  0.00    +0.255 HD
ENDROOT
BRANCH   4   8
ATOM      8  C   LIG A   1      -1.156  -1.082   0.329  0.00  0.00    +0.227 C 
BRANCH   8   9
ATOM      9  C   LIG A   1      -1.506  -0.253  -0.883  0.00  0.00    +0.008 C 
ATOM     10  C   LIG A   1      -2.216  -0.642  -1.960  0.00  0.00    -0.077 C 
ATOM     11  C   LIG A   1      -2.827  -2.004  -2.139  0.00  0.00    +0.038 C 
ATOM     12  C   LIG A   1      -2.446   0.296  -3.119  0.00  0.00    +0.038 C 
ENDBRANCH   8   9
ENDBRANCH   4   8
BRANCH   4  13
ATOM     13  C   LIG A   1       1.028  -0.689   1.451  0.00  0.00    +0.227 C 
BRANCH  13  14
ATOM     14  C   LIG A   1       1.888  -0.190   0.318  0.00  0.00    +0.008 C 
ATOM     15  C   LIG A   1       3.015   0.552   0.373  0.00  0.00    -0.077 C 
ATOM     16  C   LIG A   1       3.685   1.040   1.631  0.00  0.00    +0.038 C 
ATOM     17  C   LIG A   1       3.708   0.985  -0.894  0.00  0.00    +0.038 C 
ENDBRANCH  13  14
ENDBRANCH   4  13
TORSDOF 4
