@<TRIPOS>MOLECULE
NuBBE_163
 44 47 0 0 0
SMALL
GASTEIGER

@<TRIPOS>ATOM
      1 C          -2.0104   -4.7108   -1.2690 C.3     1  LIG1        0.0790
      2 O          -2.0981   -3.7234   -0.2488 O.3     1  LIG1       -0.4914
      3 C          -1.1675   -2.7136   -0.2971 C.ar    1  LIG1        0.1618
      4 C          -1.6667   -1.4818    0.1628 C.ar    1  LIG1       -0.0103
      5 C          -0.8067   -0.4013    0.1838 C.ar    1  LIG1       -0.0090
      6 C           0.4913   -0.5358   -0.2435 C.ar    1  LIG1       -0.0134
      7 C           0.8637    0.8303    0.0097 C.3     1  LIG1        0.0756
      8 C           0.6660    1.0288    1.9919 C.3     1  LIG1        0.0036
      9 C          -0.4047    2.5954    2.3582 C.3     1  LIG1        0.0760
     10 H          -1.2278    2.2823    3.0170 H       1  LIG1        0.0638
     11 O           0.3479    3.5433    3.1126 O.3     1  LIG1       -0.3877
     12 C          -1.1596    3.5047    0.9547 C.2     1  LIG1       -0.0555
     13 C          -1.1071    3.2532   -0.4791 C.2     1  LIG1       -0.0583
     14 C          -0.2062    1.9099   -1.2397 C.2     1  LIG1       -0.0256
     15 C           0.6425    2.2438   -2.2237 C.2     1  LIG1       -0.0648
     16 C           2.0115    1.9196   -1.6933 C.3     1  LIG1        0.0189
     17 N           1.9653    1.6147   -0.2276 N.3     1  LIG1       -0.2825
     18 C           0.7781    2.3344    0.4698 C.3     1  LIG1        0.0305
     19 C          -1.0074    1.1517    0.6470 C.3     1  LIG1        0.0933
     20 H          -1.3756    0.9492    1.6645 H       1  LIG1        0.0656
     21 O          -2.3098    1.3086   -0.0156 O.3     1  LIG1       -0.3859
     22 C           1.0368   -1.7167   -0.6646 C.ar    1  LIG1       -0.0107
     23 C           0.1996   -2.8427   -0.6736 C.ar    1  LIG1        0.1618
     24 O           0.6612   -4.0813   -1.0446 O.3     1  LIG1       -0.4914
     25 C           2.0355   -4.3384   -0.7701 C.3     1  LIG1        0.0790
     26 H          -1.2842   -5.4828   -1.0003 H       1  LIG1        0.0660
     27 H          -1.7941   -4.2769   -2.2512 H       1  LIG1        0.0660
     28 H          -2.9865   -5.2030   -1.3341 H       1  LIG1        0.0660
     29 H          -2.7018   -1.3814    0.4702 H       1  LIG1        0.0659
     30 H           1.6677    1.1437    2.4416 H       1  LIG1        0.0318
     31 H           0.2182    0.1332    2.4510 H       1  LIG1        0.0318
     32 H           0.8672    3.0487    3.7699 H       1  LIG1        0.2102
     33 H          -1.7139    4.3719    1.3146 H       1  LIG1        0.0598
     34 H          -1.5975    3.8890   -1.2134 H       1  LIG1        0.0619
     35 H           0.4941    3.0671   -2.9084 H       1  LIG1        0.0588
     36 H           2.6684    2.7855   -1.8340 H       1  LIG1        0.0470
     37 H           2.4508    1.0789   -2.2428 H       1  LIG1        0.0470
     38 H           0.8205    3.3699    0.0344 H       1  LIG1        0.0456
     39 H           1.3490    2.7206    1.3502 H       1  LIG1        0.0456
     40 H          -2.8728    1.8615    0.5500 H       1  LIG1        0.2103
     41 H           2.0768   -1.7435   -0.9606 H       1  LIG1        0.0659
     42 H           2.2233   -5.3983   -0.9649 H       1  LIG1        0.0660
     43 H           2.2730   -4.1419    0.2814 H       1  LIG1        0.0660
     44 H           2.6898   -3.7663   -1.4353 H       1  LIG1        0.0660
@<TRIPOS>BOND
     1     1     2    1
     2     2     3    1
     3     3     4   ar
     4     4     5   ar
     5     5     6   ar
     6     6     7    1
     7     7     8    1
     8     8     9    1
     9     9    12    1
    10    12    13    2
    11     7    14    1
    12    13    14    1
    13    14    15    2
    14    15    16    1
    15    16    17    1
    16     7    17    1
    17    17    18    1
    18    18    19    1
    19     5    19    1
    20     6    22   ar
    21    22    23   ar
    22     3    23   ar
    23    23    24    1
    24    24    25    1
    25     9    11    1
    26     9    10    1
    27    19    21    1
    28    19    20    1
    29     1    26    1
    30     1    27    1
    31     1    28    1
    32     4    29    1
    33     8    30    1
    34     8    31    1
    35    11    32    1
    36    12    33    1
    37    13    34    1
    38    15    35    1
    39    16    36    1
    40    16    37    1
    41    18    38    1
    42    18    39    1
    43    21    40    1
    44    22    41    1
    45    25    42    1
    46    25    43    1
    47    25    44    1
