REMARK  Name = NuBBE_1929
REMARK  6 active torsions:
REMARK  status: ('A' for Active; 'I' for Inactive)
REMARK    1  A    between atoms: C_1  and  C_2
REMARK    2  A    between atoms: C_1  and  C_3
REMARK    3  A    between atoms: C_1  and  C_4
REMARK    4  A    between atoms: C_10  and  C_13
REMARK    5  A    between atoms: C_10  and  O_14
REMARK    6  A    between atoms: C_17  and  C_19
REMARK                            x       y       z     vdW  Elec       q    Type
REMARK                         _______ _______ _______ _____ _____    ______ ____
ROOT
ATOM      1  C   LIG A   1       0.458   0.238  -1.459  0.00  0.00    -0.001 C 
ATOM      2  C   LIG A   1       0.954   0.698  -0.043  0.00  0.00    +0.021 C 
ATOM      3  C   LIG A   1       1.008  -0.361   1.101  0.00  0.00    +0.028 C 
ATOM      4  C   LIG A   1       1.490  -1.748   0.611  0.00  0.00    +0.067 C 
ATOM      5  C   LIG A   1       0.725  -2.199  -0.635  0.00  0.00    +0.035 C 
ATOM      6  C   LIG A   1       0.847  -1.215  -1.791  0.00  0.00    +0.007 C 
ATOM      7  C   LIG A   1       1.397  -2.836   1.689  0.00  0.00    +0.041 C 
ATOM      8  C   LIG A   1      -0.301  -0.399   1.905  0.00  0.00    +0.011 C 
ATOM      9  C   LIG A   1      -0.711   0.978   2.436  0.00  0.00    +0.030 C 
ATOM     10  C   LIG A   1      -0.422   2.130   1.513  0.00  0.00    -0.076 C 
ATOM     11  C   LIG A   1       0.324   1.993   0.405  0.00  0.00    -0.024 C 
ATOM     12  C   LIG A   1      -1.007   3.453   1.917  0.00  0.00    +0.038 C 
ENDROOT
BRANCH   1  13
ATOM     13  C   LIG A   1      -0.996   0.633  -1.897  0.00  0.00    -0.013 C 
ATOM     14  C   LIG A   1      -1.174   0.526  -3.423  0.00  0.00    +0.007 C 
ATOM     15  C   LIG A   1      -2.130  -0.128  -1.218  0.00  0.00    +0.007 C 
ENDBRANCH   1  13
BRANCH   4  16
ATOM     16  O   LIG A   1       2.890  -1.671   0.294  0.00  0.00    -0.389 OA
ATOM     17  H   LIG A   1       3.041  -0.941  -0.327  0.00  0.00    +0.210 HD
ENDBRANCH   4  16
TORSDOF 2
