@<TRIPOS>MOLECULE
NuBBE_2474
 63 65 0 0 0
SMALL
GASTEIGER

@<TRIPOS>ATOM
      1 C           5.4408   -4.3105    1.2634 C.3     1  LIG1        0.0790
      2 O           4.1821   -4.1189    0.6361 O.3     1  LIG1       -0.4914
      3 C           4.1211   -3.2702   -0.4390 C.ar    1  LIG1        0.1617
      4 C           2.8801   -2.6186   -0.5295 C.ar    1  LIG1       -0.0131
      5 C           2.5868   -1.6931   -1.5412 C.ar    1  LIG1       -0.0433
      6 C           1.3135   -0.8609   -1.5828 C.3     1  LIG1       -0.0222
      7 C           0.3213   -1.1020   -0.4236 C.3     1  LIG1       -0.0050
      8 H           0.1271   -2.1774   -0.3481 H       1  LIG1        0.0331
      9 C          -1.0103   -0.3535   -0.4716 C.3     1  LIG1        0.0289
     10 H          -1.6002   -0.8258    0.3159 H       1  LIG1        0.0366
     11 C          -1.8144   -0.4376   -1.7547 C.3     1  LIG1        0.0983
     12 O          -2.1591   -1.7949   -2.0925 O.3     1  LIG1       -0.4644
     13 C          -3.1689   -2.3257   -1.3249 C.2     1  LIG1        0.3040
     14 C          -3.9609   -3.2930   -2.1585 C.3     1  LIG1        0.0332
     15 O          -3.4804   -1.9818   -0.2094 O.2     1  LIG1       -0.2512
     16 C          -0.6471    1.0433    0.0145 C.3     1  LIG1        0.0900
     17 H          -0.2220    1.6257   -0.8139 H       1  LIG1        0.0650
     18 C          -1.6893    1.8838    0.7243 C.ar    1  LIG1       -0.0148
     19 C          -2.7573    1.3813    1.4688 C.ar    1  LIG1       -0.0524
     20 C          -3.5614    2.2348    2.2425 C.ar    1  LIG1       -0.0152
     21 C          -3.3472    3.6176    2.2406 C.ar    1  LIG1        0.1730
     22 O          -4.1332    4.5062    3.0317 O.3     1  LIG1       -0.4223
     23 C          -5.4514    4.2397    3.4251 C.2     1  LIG1        0.3093
     24 C          -6.0267    5.4175    4.1605 C.3     1  LIG1        0.0336
     25 O          -6.0881    3.2124    3.2238 O.2     1  LIG1       -0.2507
     26 C          -2.3100    4.1550    1.4604 C.ar    1  LIG1        0.1626
     27 O          -2.1215    5.5190    1.4332 O.3     1  LIG1       -0.4914
     28 C          -1.0530    5.9626    0.5874 C.3     1  LIG1        0.0790
     29 C          -1.4997    3.2728    0.7261 C.ar    1  LIG1       -0.0106
     30 O           0.4344    0.8377    0.9538 O.3     1  LIG1       -0.3713
     31 C           0.8451   -0.5369    0.8952 C.3     1  LIG1        0.0520
     32 C           3.5400   -1.5177   -2.5443 C.ar    1  LIG1       -0.0549
     33 C           4.7636   -2.1935   -2.4930 C.ar    1  LIG1       -0.0160
     34 C           5.0806   -3.0607   -1.4371 C.ar    1  LIG1        0.1615
     35 O           6.3004   -3.6701   -1.3306 O.3     1  LIG1       -0.4915
     36 C           6.9881   -3.9662   -2.5413 C.3     1  LIG1        0.0790
     37 H           5.2705   -4.9418    2.1429 H       1  LIG1        0.0660
     38 H           5.8629   -3.3629    1.6132 H       1  LIG1        0.0660
     39 H           6.1365   -4.8580    0.6267 H       1  LIG1        0.0660
     40 H           2.1558   -2.8464    0.2476 H       1  LIG1        0.0658
     41 H           0.8242   -1.0773   -2.5398 H       1  LIG1        0.0317
     42 H           1.6117    0.1967   -1.6059 H       1  LIG1        0.0317
     43 H          -2.7461    0.1352   -1.6889 H       1  LIG1        0.0701
     44 H          -1.2667   -0.0311   -2.6138 H       1  LIG1        0.0701
     45 H          -3.3253   -4.0016   -2.6635 H       1  LIG1        0.0342
     46 H          -4.5428   -2.6973   -2.8801 H       1  LIG1        0.0342
     47 H          -4.6629   -3.8197   -1.5053 H       1  LIG1        0.0342
     48 H          -2.9775    0.3171    1.4913 H       1  LIG1        0.0622
     49 H          -4.3419    1.7805    2.8455 H       1  LIG1        0.0656
     50 H          -5.7925    5.3592    5.2258 H       1  LIG1        0.0342
     51 H          -7.1157    5.4134    4.0331 H       1  LIG1        0.0342
     52 H          -5.6548    6.3521    3.7350 H       1  LIG1        0.0342
     53 H          -1.0117    7.0541    0.5888 H       1  LIG1        0.0660
     54 H          -1.2144    5.6491   -0.4528 H       1  LIG1        0.0660
     55 H          -0.0878    5.5941    0.9579 H       1  LIG1        0.0660
     56 H          -0.6670    3.6418    0.1371 H       1  LIG1        0.0659
     57 H           0.3833   -1.0686    1.7363 H       1  LIG1        0.0563
     58 H           1.9280   -0.5846    1.0228 H       1  LIG1        0.0563
     59 H           3.3524   -0.8437   -3.3776 H       1  LIG1        0.0621
     60 H           5.4603   -1.9879   -3.2967 H       1  LIG1        0.0655
     61 H           8.0129   -4.2489   -2.2836 H       1  LIG1        0.0660
     62 H           7.0753   -3.1127   -3.2168 H       1  LIG1        0.0660
     63 H           6.5108   -4.8113   -3.0465 H       1  LIG1        0.0660
@<TRIPOS>BOND
     1     1     2    1
     2     2     3    1
     3     3     4   ar
     4     4     5   ar
     5     5     6    1
     6     7     9    1
     7    11    12    1
     8    12    13    1
     9    13    14    1
    10    13    15    2
    11     9    16    1
    12    18    19   ar
    13    19    20   ar
    14    20    21   ar
    15    21    22    1
    16    22    23    1
    17    23    24    1
    18    23    25    2
    19    21    26   ar
    20    26    27    1
    21    27    28    1
    22    26    29   ar
    23    18    29   ar
    24    16    30    1
    25    30    31    1
    26     7    31    1
    27     5    32   ar
    28    32    33   ar
    29    33    34   ar
    30     3    34   ar
    31    34    35    1
    32    35    36    1
    33     9    11    1
    34     9    10    1
    35     7     8    1
    36     7     6    1
    37    16    18    1
    38    16    17    1
    39     1    37    1
    40     1    38    1
    41     1    39    1
    42     4    40    1
    43     6    41    1
    44     6    42    1
    45    11    43    1
    46    11    44    1
    47    14    45    1
    48    14    46    1
    49    14    47    1
    50    19    48    1
    51    20    49    1
    52    24    50    1
    53    24    51    1
    54    24    52    1
    55    28    53    1
    56    28    54    1
    57    28    55    1
    58    29    56    1
    59    31    57    1
    60    31    58    1
    61    32    59    1
    62    33    60    1
    63    36    61    1
    64    36    62    1
    65    36    63    1
