@<TRIPOS>MOLECULE
NuBBE_2363
 42 44 0 0 0
SMALL
GASTEIGER

@<TRIPOS>ATOM
      1 C          -3.0796   -1.1888    1.2766 C.3     1  LIG1       -0.0491
      2 C          -1.5327   -1.2401    1.1709 C.3     1  LIG1        0.0684
      3 C          -1.1150   -2.6892    0.8602 C.2     1  LIG1        0.3110
      4 O          -2.0209   -3.3873    0.1475 O.3     1  LIG1       -0.4802
      5 O          -0.0645   -3.2306    1.1643 O.2     1  LIG1       -0.2504
      6 C          -0.9853   -0.8929    2.5702 C.3     1  LIG1       -0.0372
      7 C           0.5245   -0.6758    2.6267 C.3     1  LIG1       -0.0512
      8 C           1.1695   -0.3049    1.2934 C.3     1  LIG1       -0.0433
      9 C           0.2813    0.5688    0.3771 C.3     1  LIG1       -0.0028
     10 C          -0.0746    1.9013    1.0975 C.3     1  LIG1       -0.0552
     11 C          -1.0649   -0.2079    0.0702 C.3     1  LIG1       -0.0158
     12 H          -1.8454    0.5680    0.0243 H       1  LIG1        0.0320
     13 C          -1.0686   -0.8484   -1.3315 C.3     1  LIG1       -0.0444
     14 C          -0.7880    0.1879   -2.4030 C.3     1  LIG1       -0.0271
     15 C           0.5595    0.8085   -2.1830 C.ar    1  LIG1       -0.0434
     16 C           1.0777    0.9840   -0.8855 C.ar    1  LIG1       -0.0345
     17 C           2.3404    1.6064   -0.7629 C.ar    1  LIG1       -0.0162
     18 C           3.0497    2.0251   -1.8873 C.ar    1  LIG1        0.1172
     19 O           4.2697    2.6246   -1.7762 O.3     1  LIG1       -0.5068
     20 C           2.5288    1.8540   -3.1573 C.ar    1  LIG1       -0.0199
     21 C           1.2828    1.2533   -3.3048 C.ar    1  LIG1       -0.0549
     22 H          -3.4215   -0.2046    1.6172 H       1  LIG1        0.0240
     23 H          -3.4537   -1.9349    1.9878 H       1  LIG1        0.0240
     24 H          -3.5620   -1.3839    0.3125 H       1  LIG1        0.0240
     25 H          -1.5948   -4.2616    0.0228 H       1  LIG1        0.2951
     26 H          -1.2499   -1.6780    3.2920 H       1  LIG1        0.0276
     27 H          -1.4817    0.0106    2.9454 H       1  LIG1        0.0276
     28 H           1.0152   -1.5778    3.0131 H       1  LIG1        0.0266
     29 H           0.7352    0.1070    3.3665 H       1  LIG1        0.0266
     30 H           1.4476   -1.2185    0.7524 H       1  LIG1        0.0274
     31 H           2.1229    0.1826    1.5275 H       1  LIG1        0.0274
     32 H          -0.7456    1.7597    1.9473 H       1  LIG1        0.0238
     33 H          -0.5763    2.5958    0.4118 H       1  LIG1        0.0238
     34 H           0.8183    2.4099    1.4790 H       1  LIG1        0.0238
     35 H          -2.0446   -1.3007   -1.5408 H       1  LIG1        0.0272
     36 H          -0.3162   -1.6450   -1.3930 H       1  LIG1        0.0272
     37 H          -1.5528    0.9735   -2.3968 H       1  LIG1        0.0313
     38 H          -0.8252   -0.3039   -3.3824 H       1  LIG1        0.0313
     39 H           2.7659    1.7824    0.2201 H       1  LIG1        0.0657
     40 H           4.5152    2.6523   -0.8373 H       1  LIG1        0.2921
     41 H           3.0849    2.1899   -4.0269 H       1  LIG1        0.0654
     42 H           0.8745    1.1292   -4.3055 H       1  LIG1        0.0622
@<TRIPOS>BOND
     1     3     4    1
     2     3     5    2
     3     2     6    1
     4     6     7    1
     5     7     8    1
     6     8     9    1
     7     9    11    1
     8     2    11    1
     9    11    13    1
    10    13    14    1
    11    14    15    1
    12    15    16   ar
    13     9    16    1
    14    16    17   ar
    15    17    18   ar
    16    18    20   ar
    17    20    21   ar
    18    15    21   ar
    19     1     2    1
    20     2     3    1
    21     9    10    1
    22    11    12    1
    23    18    19    1
    24     1    22    1
    25     1    23    1
    26     1    24    1
    27     4    25    1
    28     6    26    1
    29     6    27    1
    30     7    28    1
    31     7    29    1
    32     8    30    1
    33     8    31    1
    34    10    32    1
    35    10    33    1
    36    10    34    1
    37    13    35    1
    38    13    36    1
    39    14    37    1
    40    14    38    1
    41    17    39    1
    42    19    40    1
    43    20    41    1
    44    21    42    1
