REMARK  Name = NuBBE_1095
REMARK  9 active torsions:
REMARK  status: ('A' for Active; 'I' for Inactive)
REMARK    1  A    between atoms: C_1  and  C_2
REMARK    2  A    between atoms: C_4  and  C_5
REMARK    3  A    between atoms: C_6  and  C_14
REMARK    4  A    between atoms: C_23  and  C_24
REMARK    5  A    between atoms: C_28  and  O_30
REMARK    6  A    between atoms: O_30  and  C_31
REMARK    7  A    between atoms: C_31  and  C_33
REMARK    8  A    between atoms: C_34  and  C_35
REMARK    9  A    between atoms: C_34  and  C_36
REMARK                            x       y       z     vdW  Elec       q    Type
REMARK                         _______ _______ _______ _____ _____    ______ ____
ROOT
ATOM      1  C   LIG A   1      -1.143   0.007   1.409  0.00  0.00    +0.018 C 
ATOM      2  C   LIG A   1       0.041  -0.135   0.429  0.00  0.00    +0.041 C 
ATOM      3  C   LIG A   1       0.555  -1.648   0.346  0.00  0.00    +0.125 C 
ATOM      4  C   LIG A   1      -0.326  -2.705  -0.288  0.00  0.00    +0.042 C 
ATOM      5  C   LIG A   1       0.511  -3.909  -0.855  0.00  0.00    +0.018 C 
ATOM      6  C   LIG A   1      -1.211  -3.306   0.899  0.00  0.00    +0.218 C 
ATOM      7  O   LIG A   1      -0.692  -3.018   2.275  0.00  0.00    -0.454 OA
ATOM      8  C   LIG A   1       0.520  -2.453   2.577  0.00  0.00    +0.340 C 
ATOM      9  O   LIG A   1       0.833  -2.095   3.690  0.00  0.00    -0.248 OA
ATOM     10  C   LIG A   1       1.463  -2.483   1.448  0.00  0.00    +0.260 C 
ATOM     11  O   LIG A   1       1.940  -1.666   0.412  0.00  0.00    -0.351 OA
ATOM     12  C   LIG A   1      -1.012  -2.157  -1.563  0.00  0.00    +0.014 C 
ATOM     13  C   LIG A   1      -1.488  -0.710  -1.543  0.00  0.00    +0.006 C 
ATOM     14  C   LIG A   1      -0.370   0.245  -1.046  0.00  0.00    +0.011 C 
ATOM     15  C   LIG A   1      -0.632   1.771  -1.351  0.00  0.00    -0.006 C 
ATOM     16  C   LIG A   1      -1.964   2.287  -0.741  0.00  0.00    +0.016 C 
ATOM     17  C   LIG A   1       0.537   2.680  -0.824  0.00  0.00    +0.016 C 
ATOM     18  C   LIG A   1       0.905   2.320   0.630  0.00  0.00    +0.050 C 
ATOM     19  C   LIG A   1       1.180   0.836   0.911  0.00  0.00    +0.186 C 
ATOM     20  C   LIG A   1       1.757   2.890  -1.803  0.00  0.00    +0.031 C 
ATOM     21  C   LIG A   1       2.643   4.057  -1.301  0.00  0.00    +0.019 C 
ATOM     22  C   LIG A   1       2.680   1.686  -2.036  0.00  0.00    +0.019 C 
ATOM     23  C   LIG A   1       1.228   3.289  -3.187  0.00  0.00    +0.162 C 
ATOM     24  O   LIG A   1       1.836   4.025  -3.962  0.00  0.00    -0.292 OA
ATOM     25  C   LIG A   1      -0.026   2.675  -3.665  0.00  0.00    +0.043 C 
ATOM     26  C   LIG A   1      -0.823   1.978  -2.850  0.00  0.00    -0.016 C 
ENDROOT
BRANCH   6  27
ATOM     27  C   LIG A   1      -2.697  -3.034   0.910  0.00  0.00    +0.031 A 
ATOM     28  C   LIG A   1      -3.437  -2.389   1.956  0.00  0.00    +0.048 A 
ATOM     29  C   LIG A   1      -4.759  -2.412   1.592  0.00  0.00    +0.195 A 
ATOM     30  O   LIG A   1      -4.905  -3.072   0.418  0.00  0.00    -0.471 OA
ATOM     31  C   LIG A   1      -3.665  -3.469   0.025  0.00  0.00    +0.202 A 
ENDBRANCH   6  27
BRANCH  19  32
ATOM     32  O   LIG A   1       1.326   0.689   2.347  0.00  0.00    -0.461 OA
BRANCH  32  33
ATOM     33  C   LIG A   1       2.562   0.899   2.873  0.00  0.00    +0.304 C 
ATOM     34  O   LIG A   1       3.558   1.203   2.237  0.00  0.00    -0.251 OA
ATOM     35  C   LIG A   1       2.536   0.748   4.367  0.00  0.00    +0.136 C 
ENDBRANCH  32  33
ENDBRANCH  19  32
TORSDOF 3
