REMARK  Name = NuBBE_1542
REMARK  4 active torsions:
REMARK  status: ('A' for Active; 'I' for Inactive)
REMARK    1  A    between atoms: C_1  and  C_2
REMARK    2  A    between atoms: C_2  and  C_3
REMARK    3  A    between atoms: C_9  and  C_10
REMARK    4  A    between atoms: C_14  and  C_17
REMARK                            x       y       z     vdW  Elec       q    Type
REMARK                         _______ _______ _______ _____ _____    ______ ____
ROOT
ATOM      1  C   LIG A   1      -3.606   1.211   0.383  0.00  0.00    +0.012 C 
ATOM      2  C   LIG A   1      -2.325   0.561   0.850  0.00  0.00    -0.025 C 
ATOM      3  C   LIG A   1      -2.486  -0.141   2.181  0.00  0.00    +0.012 C 
ATOM      4  C   LIG A   1      -1.490  -0.009  -0.299  0.00  0.00    +0.003 C 
ATOM      5  C   LIG A   1      -1.002   1.197   0.539  0.00  0.00    +0.021 C 
ATOM      6  C   LIG A   1       0.320   1.006   1.139  0.00  0.00    -0.024 C 
ATOM      7  C   LIG A   1       1.480   1.378   0.545  0.00  0.00    -0.076 C 
ATOM      8  C   LIG A   1       1.546   2.233  -0.694  0.00  0.00    +0.038 C 
ATOM      9  C   LIG A   1       2.799   0.757   0.972  0.00  0.00    +0.034 C 
ATOM     10  C   LIG A   1       3.131  -0.503   0.133  0.00  0.00    +0.031 C 
ATOM     11  C   LIG A   1       1.917  -1.398  -0.013  0.00  0.00    -0.027 C 
ATOM     12  C   LIG A   1       1.143  -1.547  -1.093  0.00  0.00    -0.076 C 
ATOM     13  C   LIG A   1      -0.203  -2.229  -0.983  0.00  0.00    +0.030 C 
ATOM     14  C   LIG A   1      -1.305  -1.506  -0.197  0.00  0.00    +0.009 C 
ATOM     15  C   LIG A   1       1.444  -1.049  -2.483  0.00  0.00    +0.038 C 
ENDROOT
TORSDOF 0
