REMARK  Name = NuBBE_1059
REMARK  11 active torsions:
REMARK  status: ('A' for Active; 'I' for Inactive)
REMARK    1  A    between atoms: C_1  and  C_2
REMARK    2  A    between atoms: C_6  and  C_8
REMARK    3  A    between atoms: C_8  and  C_10
REMARK    4  A    between atoms: C_8  and  C_19
REMARK    5  A    between atoms: C_11  and  C_12
REMARK    6  A    between atoms: C_12  and  C_14
REMARK    7  A    between atoms: C_12  and  C_17
REMARK    8  A    between atoms: C_14  and  C_15
REMARK    9  A    between atoms: C_14  and  C_16
REMARK   10  A    between atoms: C_17  and  C_18
REMARK   11  A    between atoms: C_24  and  C_34
REMARK                            x       y       z     vdW  Elec       q    Type
REMARK                         _______ _______ _______ _____ _____    ______ ____
ROOT
ATOM      1  C   LIG A   1      -0.070  -1.970  -1.721  0.00  0.00    +0.012 C 
ATOM      2  C   LIG A   1      -0.757  -0.642  -1.372  0.00  0.00    -0.026 C 
ATOM      3  C   LIG A   1      -0.865   0.319  -2.582  0.00  0.00    -0.001 C 
ATOM      4  C   LIG A   1      -1.999   1.286  -2.171  0.00  0.00    +0.004 C 
ATOM      5  C   LIG A   1      -2.915   0.501  -1.229  0.00  0.00    +0.005 C 
ATOM      6  C   LIG A   1      -2.277  -0.892  -1.100  0.00  0.00    +0.002 C 
ATOM      7  C   LIG A   1       0.419   1.066  -3.000  0.00  0.00    -0.004 C 
ATOM      8  C   LIG A   1       1.217   1.672  -1.818  0.00  0.00    -0.001 C 
ATOM      9  C   LIG A   1       2.586   2.283  -2.316  0.00  0.00    -0.025 C 
ATOM     10  C   LIG A   1       3.503   1.184  -2.953  0.00  0.00    +0.002 C 
ATOM     11  C   LIG A   1       4.603   0.602  -2.045  0.00  0.00    +0.078 C 
ATOM     12  C   LIG A   1       5.240   1.644  -1.177  0.00  0.00    +0.134 C 
ATOM     13  C   LIG A   1       4.294   2.423  -0.317  0.00  0.00    +0.075 C 
ATOM     14  C   LIG A   1       3.294   3.133  -1.210  0.00  0.00    +0.015 C 
ATOM     15  O   LIG A   1       6.464   1.780  -1.101  0.00  0.00    -0.297 OA
ATOM     16  C   LIG A   1       2.726  -0.008  -3.555  0.00  0.00    +0.005 C 
ATOM     17  C   LIG A   1       1.288   0.254  -3.986  0.00  0.00    +0.004 C 
ATOM     18  C   LIG A   1       2.266   3.334  -3.436  0.00  0.00    +0.012 C 
ATOM     19  C   LIG A   1       1.333   0.687  -0.639  0.00  0.00    +0.005 C 
ATOM     20  C   LIG A   1      -0.001   0.051  -0.222  0.00  0.00    +0.007 C 
ENDROOT
BRANCH   6  21
ATOM     21  C   LIG A   1      -2.729  -1.743   0.120  0.00  0.00    +0.012 C 
ATOM     22  C   LIG A   1      -4.237  -2.033   0.013  0.00  0.00    +0.012 C 
BRANCH  21  23
ATOM     23  C   LIG A   1      -2.468  -1.166   1.495  0.00  0.00    -0.027 C 
ATOM     24  C   LIG A   1      -2.172  -1.903   2.583  0.00  0.00    -0.027 C 
BRANCH  24  25
ATOM     25  C   LIG A   1      -1.970  -1.317   3.973  0.00  0.00    +0.014 C 
BRANCH  25  26
ATOM     26  C   LIG A   1      -0.540  -1.634   4.518  0.00  0.00    -0.010 C 
ATOM     27  C   LIG A   1       0.568  -1.183   3.557  0.00  0.00    +0.008 C 
ATOM     28  C   LIG A   1      -0.287  -0.987   5.887  0.00  0.00    +0.008 C 
ENDBRANCH  25  26
BRANCH  25  29
ATOM     29  C   LIG A   1      -3.055  -1.811   4.965  0.00  0.00    +0.004 C 
ATOM     30  C   LIG A   1      -4.491  -1.569   4.518  0.00  0.00    +0.004 C 
ENDBRANCH  25  29
ENDBRANCH  24  25
ENDBRANCH  21  23
ENDBRANCH   6  21
TORSDOF 5
