REMARK  Name = NuBBE_2311
REMARK  10 active torsions:
REMARK  status: ('A' for Active; 'I' for Inactive)
REMARK    1  A    between atoms: C_5  and  C_6
REMARK    2  A    between atoms: C_8  and  C_27
REMARK    3  A    between atoms: C_10  and  C_24
REMARK    4  A    between atoms: C_12  and  O_13
REMARK    5  A    between atoms: O_13  and  C_14
REMARK    6  A    between atoms: C_15  and  O_22
REMARK    7  A    between atoms: C_17  and  O_20
REMARK    8  A    between atoms: C_18  and  O_19
REMARK    9  A    between atoms: O_20  and  C_21
REMARK   10  A    between atoms: C_24  and  C_25
REMARK                            x       y       z     vdW  Elec       q    Type
REMARK                         _______ _______ _______ _____ _____    ______ ____
ROOT
ATOM      1  C   LIG A   1      -1.126   0.327   0.128  0.00  0.00    +0.000 C 
ATOM      2  C   LIG A   1      -0.853  -1.115  -0.372  0.00  0.00    +0.000 C 
ATOM      3  C   LIG A   1       0.663  -1.387   0.019  0.00  0.00    +0.000 C 
ATOM      4  C   LIG A   1       0.748  -2.298   1.236  0.00  0.00    +0.000 C 
ATOM      5  C   LIG A   1       0.172  -1.946   2.396  0.00  0.00    +0.000 C 
ATOM      6  C   LIG A   1      -0.513  -0.614   2.535  0.00  0.00    +0.000 C 
ATOM      7  C   LIG A   1      -0.166   0.443   1.369  0.00  0.00    +0.000 C 
ATOM      8  C   LIG A   1       1.160   0.002   0.618  0.00  0.00    +0.000 C 
ATOM      9  C   LIG A   1      -1.831  -2.259   0.002  0.00  0.00    +0.000 C 
ENDROOT
BRANCH   1  14
ATOM     10  C   LIG A   1       0.868   3.062  -1.907  0.00  0.00    +0.000 A 
ATOM     11  C   LIG A   1      -0.112   3.446  -2.798  0.00  0.00    +0.000 A 
ATOM     12  C   LIG A   1      -1.319   2.872  -2.818  0.00  0.00    +0.000 A 
ATOM     13  C   LIG A   1      -1.684   1.845  -1.937  0.00  0.00    +0.000 A 
ATOM     14  C   LIG A   1      -0.729   1.406  -0.970  0.00  0.00    +0.000 A 
ATOM     15  C   LIG A   1       0.568   2.049  -0.996  0.00  0.00    +0.000 A 
ATOM     16  O   LIG A   1      -2.051   3.464  -3.770  0.00  0.00    +0.000 OA
ATOM     17  C   LIG A   1      -1.275   4.464  -4.372  0.00  0.00    +0.000 C 
ATOM     18  O   LIG A   1      -0.044   4.401  -3.716  0.00  0.00    +0.000 OA
ENDBRANCH   1  14
BRANCH   5  19
ATOM     19  O   LIG A   1       0.252  -2.741   3.492  0.00  0.00    +0.000 OA
ATOM     20  C   LIG A   1      -0.714  -2.803   4.468  0.00  0.00    +0.000 C 
ENDBRANCH   5  19
BRANCH   8  21
ATOM     21  O   LIG A   1       2.257  -0.083   1.493  0.00  0.00    +0.000 OA
ATOM     22  H   LIG A   1       3.049  -0.282   0.931  0.00  0.00    +0.000 HD
ENDBRANCH   8  21
BRANCH   7  23
ATOM     23  O   LIG A   1      -0.130   1.813   1.821  0.00  0.00    +0.000 OA
ATOM     24  C   LIG A   1       0.172   2.808   0.845  0.00  0.00    +0.000 C 
ENDBRANCH   7  23
BRANCH   6  25
ATOM     25  O   LIG A   1      -1.892  -0.817   2.720  0.00  0.00    +0.000 OA
ATOM     26 AC   LIG A   1      -3.049   1.342   2.953  0.00  0.00    +0.000 Ac
ENDBRANCH   6  25
BRANCH   3  27
ATOM     27  C   LIG A   1       1.329  -2.158  -1.192  0.00  0.00    +0.000 C 
BRANCH  27  28
ATOM     28  C   LIG A   1       2.764  -2.583  -1.177  0.00  0.00    +0.000 C 
ATOM     29  C   LIG A   1       3.048  -3.799  -0.681  0.00  0.00    +0.000 C 
ENDBRANCH  27  28
ENDBRANCH   3  27
TORSDOF 7
