@<TRIPOS>MOLECULE
NuBBE_2030
 30 30 0 0 0
SMALL
GASTEIGER

@<TRIPOS>ATOM
      1 C          -3.9515   -0.8383    0.2119 C.3     1  LIG1       -0.0396
      2 C          -2.4613   -0.7797    0.0540 C.ar    1  LIG1       -0.0470
      3 C          -1.7526    0.3689    0.4206 C.ar    1  LIG1       -0.0160
      4 C          -0.3618    0.4191    0.2719 C.ar    1  LIG1        0.1353
      5 O           0.3738    1.5541    0.6895 O.3     1  LIG1       -0.4257
      6 C          -0.1135    2.8521    0.5403 C.2     1  LIG1        0.3092
      7 C           0.8730    3.8139    1.1330 C.3     1  LIG1        0.0336
      8 O          -1.1475    3.1934   -0.0200 O.2     1  LIG1       -0.2507
      9 C           0.3623   -0.6903   -0.2005 C.ar    1  LIG1       -0.0024
     10 C           1.8758   -0.6617   -0.3517 C.3     1  LIG1       -0.0180
     11 C           2.5544   -1.7202    0.5237 C.3     1  LIG1       -0.0585
     12 C           2.2936   -0.8233   -1.8170 C.3     1  LIG1       -0.0585
     13 C          -0.3630   -1.8465   -0.5378 C.ar    1  LIG1       -0.0546
     14 C          -1.7546   -1.8917   -0.4105 C.ar    1  LIG1       -0.0583
     15 H          -4.3883    0.1660    0.2092 H       1  LIG1        0.0278
     16 H          -4.2102   -1.3302    1.1544 H       1  LIG1        0.0278
     17 H          -4.4057   -1.3910   -0.6172 H       1  LIG1        0.0278
     18 H          -2.2961    1.2202    0.8211 H       1  LIG1        0.0657
     19 H           1.3851    3.3597    1.9860 H       1  LIG1        0.0342
     20 H           0.3398    4.6959    1.4991 H       1  LIG1        0.0342
     21 H           1.6002    4.1063    0.3724 H       1  LIG1        0.0342
     22 H           2.2606    0.3102   -0.0214 H       1  LIG1        0.0345
     23 H           2.2880   -2.7387    0.2213 H       1  LIG1        0.0235
     24 H           2.2715   -1.5980    1.5751 H       1  LIG1        0.0235
     25 H           3.6444   -1.6315    0.4578 H       1  LIG1        0.0235
     26 H           1.9849   -1.7900   -2.2296 H       1  LIG1        0.0235
     27 H           3.3822   -0.7532   -1.9177 H       1  LIG1        0.0235
     28 H           1.8486   -0.0379   -2.4381 H       1  LIG1        0.0235
     29 H           0.1511   -2.7328   -0.9033 H       1  LIG1        0.0622
     30 H          -2.2830   -2.8048   -0.6764 H       1  LIG1        0.0620
@<TRIPOS>BOND
     1     1     2    1
     2     2     3   ar
     3     3     4   ar
     4     4     5    1
     5     5     6    1
     6     6     7    1
     7     6     8    2
     8     4     9   ar
     9     9    10    1
    10    10    11    1
    11    10    12    1
    12     9    13   ar
    13    13    14   ar
    14     2    14   ar
    15     1    15    1
    16     1    16    1
    17     1    17    1
    18     3    18    1
    19     7    19    1
    20     7    20    1
    21     7    21    1
    22    10    22    1
    23    11    23    1
    24    11    24    1
    25    11    25    1
    26    12    26    1
    27    12    27    1
    28    12    28    1
    29    13    29    1
    30    14    30    1
