REMARK  Name = NuBBE_141
REMARK  8 active torsions:
REMARK  status: ('A' for Active; 'I' for Inactive)
REMARK    1  A    between atoms: O_1  and  C_2
REMARK    2  A    between atoms: C_6  and  O_7
REMARK    3  A    between atoms: C_9  and  O_10
REMARK    4  A    between atoms: C_14  and  C_16
REMARK    5  A    between atoms: C_18  and  O_19
REMARK    6  A    between atoms: C_20  and  O_21
REMARK    7  A    between atoms: O_21  and  C_22
REMARK    8  A    between atoms: C_23  and  O_24
REMARK                            x       y       z     vdW  Elec       q    Type
REMARK                         _______ _______ _______ _____ _____    ______ ____
ROOT
ATOM      1  C   LIG A   1      -0.835   1.622   0.181  0.00  0.00    +0.164 C 
ATOM      2  C   LIG A   1      -0.208   2.775   0.969  0.00  0.00    +0.078 C 
ATOM      3  C   LIG A   1       1.270   2.573   1.190  0.00  0.00    +0.038 A 
ATOM      4  C   LIG A   1       2.106   3.606   1.642  0.00  0.00    +0.127 A 
ATOM      5  C   LIG A   1       3.474   3.403   1.825  0.00  0.00    +0.091 A 
ATOM      6  C   LIG A   1       4.022   2.157   1.559  0.00  0.00    +0.124 A 
ATOM      7  C   LIG A   1       3.219   1.111   1.123  0.00  0.00    +0.091 A 
ATOM      8  C   LIG A   1       1.849   1.316   0.957  0.00  0.00    +0.132 A 
ATOM      9  O   LIG A   1       1.149   0.227   0.507  0.00  0.00    -0.481 OA
ATOM     10  C   LIG A   1      -0.273   0.292   0.715  0.00  0.00    +0.233 C 
ENDROOT
BRANCH  10  11
ATOM     11  C   LIG A   1      -0.928  -0.916   0.062  0.00  0.00    +0.002 A 
ATOM     12  C   LIG A   1      -0.380  -1.527  -1.081  0.00  0.00    +0.056 A 
ATOM     13  C   LIG A   1      -0.997  -2.635  -1.679  0.00  0.00    +0.163 A 
ATOM     14  C   LIG A   1      -2.181  -3.152  -1.153  0.00  0.00    +0.203 A 
ATOM     15  C   LIG A   1      -2.712  -2.546  -0.007  0.00  0.00    +0.163 A 
ATOM     16  C   LIG A   1      -2.113  -1.442   0.594  0.00  0.00    +0.056 A 
BRANCH  13  17
ATOM     17  O   LIG A   1      -0.397  -3.205  -2.768  0.00  0.00    -0.503 OA
ATOM     18  H   LIG A   1       0.436  -2.740  -2.949  0.00  0.00    +0.292 HD
ENDBRANCH  13  17
BRANCH  14  19
ATOM     19  O   LIG A   1      -2.897  -4.236  -1.597  0.00  0.00    -0.488 OA
ATOM     20  C   LIG A   1      -2.813  -4.519  -2.989  0.00  0.00    +0.277 C 
ENDBRANCH  14  19
BRANCH  15  21
ATOM     21  O   LIG A   1      -3.864  -3.033   0.555  0.00  0.00    -0.503 OA
ATOM     22  H   LIG A   1      -4.096  -3.808   0.005  0.00  0.00    +0.292 HD
ENDBRANCH  15  21
ENDBRANCH  10  11
BRANCH   1  23
ATOM     23  O   LIG A   1      -0.544   1.813  -1.214  0.00  0.00    -0.388 OA
ATOM     24  H   LIG A   1       0.403   1.618  -1.336  0.00  0.00    +0.210 HD
ENDBRANCH   1  23
BRANCH   4  25
ATOM     25  O   LIG A   1       1.654   4.864   1.927  0.00  0.00    -0.506 OA
ATOM     26  H   LIG A   1       0.703   4.928   1.756  0.00  0.00    +0.292 HD
ENDBRANCH   4  25
BRANCH   6  27
ATOM     27  O   LIG A   1       5.354   1.915   1.714  0.00  0.00    -0.506 OA
ATOM     28  H   LIG A   1       5.784   2.730   2.024  0.00  0.00    +0.292 HD
ENDBRANCH   6  27
TORSDOF 7
