REMARK  Name = NuBBE_2170
REMARK  8 active torsions:
REMARK  status: ('A' for Active; 'I' for Inactive)
REMARK    1  A    between atoms: C_1  and  O_2
REMARK    2  A    between atoms: O_2  and  C_3
REMARK    3  A    between atoms: C_4  and  O_5
REMARK    4  A    between atoms: O_5  and  C_6
REMARK    5  A    between atoms: C_11  and  O_12
REMARK    6  A    between atoms: C_13  and  C_14
REMARK    7  A    between atoms: C_15  and  C_16
REMARK    8  A    between atoms: C_17  and  C_18
REMARK                            x       y       z     vdW  Elec       q    Type
REMARK                         _______ _______ _______ _____ _____    ______ ____
ROOT
ATOM      1  C   LIG A   1      -1.973   1.158   1.885  0.00  0.00    +0.162 A 
ATOM      2  C   LIG A   1      -2.032   2.498   1.526  0.00  0.00    +0.162 A 
ATOM      3  C   LIG A   1      -1.243   2.934   0.462  0.00  0.00    +0.061 A 
ATOM      4  C   LIG A   1      -1.134   0.285   1.169  0.00  0.00    +0.058 A 
ATOM      5  C   LIG A   1      -0.358   0.694   0.037  0.00  0.00    -0.003 A 
ATOM      6  C   LIG A   1      -0.433   2.058  -0.292  0.00  0.00    +0.028 A 
ATOM      7  C   LIG A   1       0.325   2.576  -1.360  0.00  0.00    +0.128 A 
ATOM      8  C   LIG A   1       1.202   1.786  -2.100  0.00  0.00    -0.005 A 
ATOM      9  C   LIG A   1       2.037   2.426  -3.179  0.00  0.00    +0.048 C 
ATOM     10  C   LIG A   1       1.251   0.393  -1.837  0.00  0.00    -0.036 A 
ATOM     11  C   LIG A   1       2.167  -0.453  -2.701  0.00  0.00    +0.045 C 
ATOM     12  C   LIG A   1       0.483  -0.185  -0.760  0.00  0.00    -0.007 A 
ENDROOT
BRANCH  12  13
ATOM     13  C   LIG A   1       0.552  -1.660  -0.459  0.00  0.00    -0.013 A 
ATOM     14  C   LIG A   1       1.785  -2.331  -0.327  0.00  0.00    +0.058 A 
ATOM     15  C   LIG A   1       1.801  -3.686  -0.056  0.00  0.00    +0.167 A 
ATOM     16  C   LIG A   1       0.650  -4.395   0.172  0.00  0.00    +0.166 A 
ATOM     17  O   LIG A   1       0.889  -5.698   0.471  0.00  0.00    -0.453 OA
ATOM     18  C   LIG A   1       2.326  -5.745   0.344  0.00  0.00    +0.466 C 
ATOM     19  O   LIG A   1       2.914  -4.466   0.026  0.00  0.00    -0.453 OA
ATOM     20  C   LIG A   1      -0.583  -3.795   0.086  0.00  0.00    +0.050 A 
ATOM     21  C   LIG A   1      -0.626  -2.441  -0.280  0.00  0.00    +0.012 A 
ENDBRANCH  12  13
BRANCH   1  23
ATOM     22  C   LIG A   1      -2.339  -0.363   3.672  0.00  0.00    +0.277 C 
ATOM     23  O   LIG A   1      -2.792   0.750   2.911  0.00  0.00    -0.491 OA
ENDBRANCH   1  23
BRANCH   2  24
ATOM     24  O   LIG A   1      -2.835   3.336   2.263  0.00  0.00    -0.491 OA
ATOM     25  C   LIG A   1      -2.852   4.709   1.887  0.00  0.00    +0.277 C 
ENDBRANCH   2  24
BRANCH   7  26
ATOM     26  O   LIG A   1       0.217   3.897  -1.723  0.00  0.00    -0.506 OA
ATOM     27  H   LIG A   1      -0.733   4.104  -1.766  0.00  0.00    +0.292 HD
ENDBRANCH   7  26
TORSDOF 4
