REMARK  Name = NuBBE_1853
REMARK  4 active torsions:
REMARK  status: ('A' for Active; 'I' for Inactive)
REMARK    1  A    between atoms: C_1  and  N_2
REMARK    2  A    between atoms: N_2  and  C_3
REMARK    3  A    between atoms: C_3  and  C_4
REMARK    4  A    between atoms: C_4  and  C_5
REMARK                            x       y       z     vdW  Elec       q    Type
REMARK                         _______ _______ _______ _____ _____    ______ ____
ROOT
ATOM      1  C   LIG A   1       0.839   0.612  -0.105  0.00  0.00    -0.021 A 
ATOM      2  C   LIG A   1       1.269   1.580  -0.993  0.00  0.00    +0.087 A 
ATOM      3  N   LIG A   1       1.630   0.966  -2.162  0.00  0.00    -0.360 N 
ATOM      4  C   LIG A   1       1.445  -0.393  -2.061  0.00  0.00    +0.047 A 
ATOM      5  C   LIG A   1       0.951  -0.647  -0.781  0.00  0.00    +0.003 A 
ATOM      6  C   LIG A   1       0.678  -1.983  -0.421  0.00  0.00    +0.010 A 
ATOM      7  C   LIG A   1       0.908  -3.008  -1.346  0.00  0.00    +0.001 A 
ATOM      8  C   LIG A   1       1.400  -2.721  -2.617  0.00  0.00    +0.002 A 
ATOM      9  C   LIG A   1       1.679  -1.406  -3.000  0.00  0.00    +0.026 A 
ATOM     10  H   LIG A   1       1.984   1.436  -2.982  0.00  0.00    +0.165 HD
ENDROOT
BRANCH   1  11
ATOM     11  C   LIG A   1       0.354   0.845   1.294  0.00  0.00    +0.052 C 
BRANCH  11  12
ATOM     12  C   LIG A   1      -1.163   1.080   1.352  0.00  0.00    +0.085 C 
BRANCH  12  14
ATOM     13  C   LIG A   1      -3.054   1.528   2.777  0.00  0.00    +0.101 C 
ATOM     14  N   LIG A   1      -1.614   1.305   2.733  0.00  0.00    -0.319 NA
ATOM     15  H   LIG A   1      -1.384   0.491   3.302  0.00  0.00    +0.122 HD
ENDBRANCH  12  14
ENDBRANCH  11  12
ENDBRANCH   1  11
TORSDOF 3
