@<TRIPOS>MOLECULE
NuBBE_858
 34 35 0 0 0
SMALL
GASTEIGER

@<TRIPOS>ATOM
      1 C          -1.6746    4.6412   -3.8685 C.3     1  LIG1       -0.0644
      2 C          -1.7822    4.6074   -2.3475 C.3     1  LIG1       -0.0442
      3 C          -1.4718    3.2256   -1.7688 C.3     1  LIG1        0.0277
      4 S          -1.6641    3.2150    0.0520 S.O     1  LIG1        0.0538
      5 C          -1.2158    1.4806    0.3790 C.ar    1  LIG1        0.0410
      6 C          -2.0008    0.4535   -0.1682 C.ar    1  LIG1       -0.0439
      7 C          -1.7320   -0.8956    0.0864 C.ar    1  LIG1       -0.0351
      8 C          -0.6551   -1.1670    0.9239 C.ar    1  LIG1        0.0675
      9 C           0.1271   -0.1852    1.5227 C.ar    1  LIG1        0.0918
     10 N           1.0868   -0.7562    2.3339 N.ar    1  LIG1       -0.2142
     11 C           0.9850   -2.0517    2.1193 C.ar    1  LIG1        0.2029
     12 N           1.8626   -2.9870    2.5822 N.am    1  LIG1       -0.2212
     13 C           2.2599   -4.0019    1.7280 C.2     1  LIG1        0.4065
     14 O           3.3900   -4.5636    2.2671 O.3     1  LIG1       -0.4534
     15 C           3.8141   -5.7845    1.6573 C.3     1  LIG1        0.0833
     16 O           1.7243   -4.3395    0.6953 O.2     1  LIG1       -0.2260
     17 N          -0.1013   -2.3428    1.3472 N.ar    1  LIG1       -0.3257
     18 C          -0.1454    1.1658    1.2399 C.ar    1  LIG1       -0.0184
     19 O          -0.5563    4.0422    0.6352 O.2     1  LIG1       -0.2521
     20 H          -1.7969    5.6680   -4.2312 H       1  LIG1        0.0230
     21 H          -2.4517    4.0292   -4.3387 H       1  LIG1        0.0230
     22 H          -0.6991    4.2806   -4.2093 H       1  LIG1        0.0230
     23 H          -2.7929    4.9238   -2.0611 H       1  LIG1        0.0271
     24 H          -1.0900    5.3491   -1.9326 H       1  LIG1        0.0271
     25 H          -0.4433    2.9323   -2.0000 H       1  LIG1        0.0404
     26 H          -2.1602    2.4866   -2.1878 H       1  LIG1        0.0404
     27 H          -2.8489    0.6895   -0.8067 H       1  LIG1        0.0630
     28 H          -2.3325   -1.6882   -0.3463 H       1  LIG1        0.0639
     29 H           2.4847   -2.7480    3.3187 H       1  LIG1        0.1610
     30 H           3.3330   -6.0107    0.7032 H       1  LIG1        0.0661
     31 H           3.5835   -6.5773    2.3734 H       1  LIG1        0.0661
     32 H           4.8988   -5.7545    1.5089 H       1  LIG1        0.0661
     33 H          -0.4044   -3.2787    1.1081 H       1  LIG1        0.1686
     34 H           0.4693    1.9421    1.6853 H       1  LIG1        0.0651
@<TRIPOS>BOND
     1     1     2    1
     2     2     3    1
     3     3     4    1
     4     4     5    1
     5     5     6   ar
     6     6     7   ar
     7     7     8   ar
     8     8     9   ar
     9     9    10   ar
    10    10    11   ar
    11    11    12    1
    12    12    13   am
    13    13    14    1
    14    14    15    1
    15    13    16    2
    16    11    17   ar
    17     8    17   ar
    18     9    18   ar
    19     5    18   ar
    20     4    19    2
    21     1    20    1
    22     1    21    1
    23     1    22    1
    24     2    23    1
    25     2    24    1
    26     3    25    1
    27     3    26    1
    28     6    27    1
    29     7    28    1
    30    12    29    1
    31    15    30    1
    32    15    31    1
    33    15    32    1
    34    17    33    1
    35    18    34    1
