REMARK  Name = NuBBE_424
REMARK  16 active torsions:
REMARK  status: ('A' for Active; 'I' for Inactive)
REMARK    1  A    between atoms: N_4  and  C_5
REMARK    2  A    between atoms: N_4  and  C_15
REMARK    3  A    between atoms: C_5  and  C_6
REMARK    4  A    between atoms: C_7  and  C_8
REMARK    5  A    between atoms: C_7  and  C_14
REMARK    6  A    between atoms: C_8  and  C_9
REMARK    7  A    between atoms: C_9  and  C_10
REMARK    8  A    between atoms: C_11  and  C_12
REMARK    9  A    between atoms: C_11  and  C_13
REMARK   10  A    between atoms: C_15  and  C_16
REMARK   11  A    between atoms: C_17  and  C_18
REMARK   12  A    between atoms: C_17  and  C_24
REMARK   13  A    between atoms: C_18  and  C_19
REMARK   14  A    between atoms: C_19  and  C_20
REMARK   15  A    between atoms: C_21  and  C_22
REMARK   16  A    between atoms: C_21  and  C_23
REMARK                            x       y       z     vdW  Elec       q    Type
REMARK                         _______ _______ _______ _____ _____    ______ ____
ROOT
ATOM      1  N   LIG A   1       2.299  -2.509   0.919  0.00  0.00    -0.130 NA
ATOM      2  C   LIG A   1       1.143  -1.876   0.644  0.00  0.00    +0.379 C 
ATOM      3  N   LIG A   1      -0.029  -2.545   0.550  0.00  0.00    -0.289 N 
ATOM      4  N   LIG A   1       0.928  -0.574   0.492  0.00  0.00    -0.256 N 
ATOM      5  H   LIG A   1       2.110  -3.580   0.935  0.00  0.00    +0.306 HD
ATOM      6  H   LIG A   1      -0.073  -3.372   1.142  0.00  0.00    +0.255 HD
ATOM      7  H   LIG A   1      -0.816  -1.892   0.811  0.00  0.00    +0.255 HD
ENDROOT
BRANCH   4   8
ATOM      8  C   LIG A   1       1.435   0.413   1.537  0.00  0.00    +0.227 C 
BRANCH   8   9
ATOM      9  C   LIG A   1       0.549   1.665   1.781  0.00  0.00    +0.009 C 
ATOM     10  C   LIG A   1      -0.708   1.733   2.333  0.00  0.00    -0.073 C 
ATOM     11  C   LIG A   1      -1.340   0.383   2.647  0.00  0.00    +0.038 C 
BRANCH  10  12
ATOM     12  C   LIG A   1      -1.742   2.956   2.407  0.00  0.00    +0.034 C 
BRANCH  12  13
ATOM     13  C   LIG A   1      -1.802   4.427   3.183  0.00  0.00    +0.031 C 
BRANCH  13  14
ATOM     14  C   LIG A   1      -2.156   4.672   4.694  0.00  0.00    -0.028 C 
ATOM     15  C   LIG A   1      -2.998   5.568   5.317  0.00  0.00    -0.080 C 
ATOM     16  C   LIG A   1      -3.769   6.723   4.704  0.00  0.00    +0.038 C 
ATOM     17  C   LIG A   1      -3.379   5.518   6.813  0.00  0.00    +0.038 C 
ENDBRANCH  13  14
ENDBRANCH  12  13
ENDBRANCH  10  12
ENDBRANCH   8   9
ENDBRANCH   4   8
BRANCH   4  18
ATOM     18  C   LIG A   1       0.829   0.010  -0.914  0.00  0.00    +0.227 C 
BRANCH  18  19
ATOM     19  C   LIG A   1       2.020  -0.341  -1.770  0.00  0.00    +0.009 C 
ATOM     20  C   LIG A   1       2.417  -0.921  -2.950  0.00  0.00    -0.073 C 
ATOM     21  C   LIG A   1       3.925  -0.599  -3.167  0.00  0.00    +0.038 C 
BRANCH  20  22
ATOM     22  C   LIG A   1       1.859  -1.677  -4.213  0.00  0.00    +0.034 C 
BRANCH  22  23
ATOM     23  C   LIG A   1       0.670  -2.643  -4.666  0.00  0.00    +0.031 C 
BRANCH  23  24
ATOM     24  C   LIG A   1       0.393  -4.111  -4.270  0.00  0.00    -0.028 C 
ATOM     25  C   LIG A   1       0.768  -5.312  -4.799  0.00  0.00    -0.080 C 
ATOM     26  C   LIG A   1       1.804  -5.547  -5.871  0.00  0.00    +0.038 C 
ATOM     27  C   LIG A   1       0.129  -6.634  -4.355  0.00  0.00    +0.038 C 
ENDBRANCH  23  24
ENDBRANCH  22  23
ENDBRANCH  20  22
ENDBRANCH  18  19
ENDBRANCH   4  18
TORSDOF 10
