REMARK  Name = NuBBE_2038
REMARK  11 active torsions:
REMARK  status: ('A' for Active; 'I' for Inactive)
REMARK    1  A    between atoms: O_1  and  C_2
REMARK    2  A    between atoms: O_1  and  C_3
REMARK    3  A    between atoms: C_4  and  C_5
REMARK    4  A    between atoms: C_5  and  C_7
REMARK    5  A    between atoms: C_7  and  C_8
REMARK    6  A    between atoms: C_8  and  C_9
REMARK    7  A    between atoms: C_12  and  O_15
REMARK    8  A    between atoms: O_15  and  C_16
REMARK    9  A    between atoms: C_17  and  O_18
REMARK   10  A    between atoms: C_20  and  O_22
REMARK   11  A    between atoms: O_22  and  C_23
REMARK                            x       y       z     vdW  Elec       q    Type
REMARK                         _______ _______ _______ _____ _____    ______ ____
ROOT
ATOM      1  C   LIG A   1      -2.431  -1.122  -0.899  0.00  0.00    +0.138 A 
ATOM      2  C   LIG A   1      -1.578  -1.265   0.259  0.00  0.00    +0.101 A 
ATOM      3  C   LIG A   1      -1.718  -2.505   0.924  0.00  0.00    +0.134 A 
ATOM      4  C   LIG A   1      -2.485  -3.564   0.421  0.00  0.00    +0.092 A 
ATOM      5  C   LIG A   1      -3.230  -3.409  -0.739  0.00  0.00    +0.127 A 
ATOM      6  C   LIG A   1      -3.239  -2.180  -1.355  0.00  0.00    +0.092 A 
ENDROOT
BRANCH   1   7
ATOM      7  O   LIG A   1      -2.694  -0.060  -1.750  0.00  0.00    -0.494 OA
ATOM      8  C   LIG A   1      -2.643   1.133  -1.048  0.00  0.00    +0.277 C 
ENDBRANCH   1   7
BRANCH   2   9
ATOM      9  C   LIG A   1      -0.511  -0.304   0.848  0.00  0.00    +0.171 C 
ATOM     10  O   LIG A   1       0.576  -0.822   1.332  0.00  0.00    -0.292 OA
BRANCH   9  11
ATOM     11  C   LIG A   1      -0.671   1.224   0.996  0.00  0.00    +0.084 C 
BRANCH  11  12
ATOM     12  C   LIG A   1      -0.034   2.104  -0.168  0.00  0.00    +0.043 C 
BRANCH  12  13
ATOM     13  C   LIG A   1       1.447   2.135  -0.231  0.00  0.00    -0.047 A 
ATOM     14  C   LIG A   1       2.105   2.080   0.977  0.00  0.00    +0.007 A 
ATOM     15  C   LIG A   1       3.423   2.416   1.048  0.00  0.00    +0.046 A 
ATOM     16  C   LIG A   1       4.144   2.695  -0.107  0.00  0.00    +0.120 A 
ATOM     17  C   LIG A   1       3.530   2.582  -1.358  0.00  0.00    +0.046 A 
ATOM     18  C   LIG A   1       2.163   2.323  -1.427  0.00  0.00    +0.007 A 
BRANCH  16  19
ATOM     19  O   LIG A   1       5.454   3.086  -0.078  0.00  0.00    -0.495 OA
ATOM     20  C   LIG A   1       5.981   3.205   1.245  0.00  0.00    +0.277 C 
ENDBRANCH  16  19
ENDBRANCH  12  13
ENDBRANCH  11  12
ENDBRANCH   9  11
ENDBRANCH   2   9
BRANCH   3  21
ATOM     21  O   LIG A   1      -1.175  -2.698   2.175  0.00  0.00    -0.506 OA
ATOM     22  H   LIG A   1      -1.497  -3.536   2.546  0.00  0.00    +0.292 HD
ENDBRANCH   3  21
BRANCH   5  23
ATOM     23  O   LIG A   1      -4.038  -4.365  -1.282  0.00  0.00    -0.495 OA
ATOM     24  C   LIG A   1      -3.541  -5.691  -1.138  0.00  0.00    +0.277 C 
ENDBRANCH   5  23
TORSDOF 8
