@<TRIPOS>MOLECULE
NuBBE_1785
 54 59 0 0 0
SMALL
GASTEIGER

@<TRIPOS>ATOM
      1 C          -2.8930    0.6685    0.4726 C.2     1  LIG1        0.2170
      2 O          -3.5133   -0.3953    0.4327 O.2     1  LIG1       -0.2755
      3 C          -3.5828    1.9034    0.9912 C.3     1  LIG1        0.0127
      4 N          -1.5643    0.7611    0.1282 N.am    1  LIG1       -0.2668
      5 C          -0.7299   -0.4012   -0.2144 C.3     1  LIG1        0.0502
      6 H          -1.0279   -0.4975   -1.2786 H       1  LIG1        0.0518
      7 C           0.7480    0.1907   -0.2608 C.3     1  LIG1        0.0336
      8 C           0.4094    1.4947   -0.8991 C.ar    1  LIG1       -0.0162
      9 C          -0.9142    1.8576   -0.5422 C.ar    1  LIG1        0.0439
     10 C          -1.4262    3.0688   -0.9707 C.ar    1  LIG1        0.0018
     11 C          -0.6190    3.9137   -1.7488 C.ar    1  LIG1        0.1219
     12 C           0.6978    3.5462   -2.0751 C.ar    1  LIG1       -0.0196
     13 C           1.2228    2.3247   -1.6494 C.ar    1  LIG1       -0.0527
     14 O          -1.2316    5.0790   -2.1321 O.3     1  LIG1       -0.4951
     15 C          -0.6129    5.8038   -3.1883 C.3     1  LIG1        0.0788
     16 C           1.5643   -0.9681   -0.7726 C.3     1  LIG1        0.0227
     17 H           1.1932   -1.3185    0.1681 H       1  LIG1        0.0472
     18 N           2.8783   -1.2290   -0.1634 N.3     1  LIG1       -0.2946
     19 C           2.9213   -0.2090    0.9276 C.3     1  LIG1        0.0004
     20 C           1.5259    0.4949    1.0696 C.3     1  LIG1       -0.0273
     21 C           2.8400   -2.6743    0.3233 C.3     1  LIG1        0.0207
     22 C           1.4049   -3.2682    0.6363 C.2     1  LIG1       -0.0537
     23 C           1.1752   -3.8495    1.8277 C.2     1  LIG1       -0.0579
     24 C          -0.1391   -4.2096    2.4529 C.3     1  LIG1        0.0691
     25 O          -1.2987   -3.6866    1.8229 O.3     1  LIG1       -0.3472
     26 C          -1.3409   -2.2721    1.6319 C.3     1  LIG1        0.1616
     27 H          -2.3913   -1.9999    1.7608 H       1  LIG1        0.0911
     28 C          -0.9369   -1.9460    0.1937 C.3     1  LIG1        0.0364
     29 H          -1.8050   -2.2686   -0.4055 H       1  LIG1        0.0374
     30 C           0.2437   -2.9253   -0.3840 C.3     1  LIG1       -0.0080
     31 H          -0.1921   -3.8565   -0.7642 H       1  LIG1        0.0351
     32 C           0.9217   -2.1350   -1.5422 C.3     1  LIG1       -0.0294
     33 O          -0.6177   -1.5408    2.6003 O.3     1  LIG1       -0.3666
     34 H          -4.2610    1.6099    1.7992 H       1  LIG1        0.0323
     35 H          -4.1707    2.3627    0.1935 H       1  LIG1        0.0323
     36 H          -2.8728    2.6171    1.4158 H       1  LIG1        0.0323
     37 H          -2.4433    3.3787   -0.7765 H       1  LIG1        0.0673
     38 H           1.3411    4.2014   -2.6538 H       1  LIG1        0.0654
     39 H           2.2450    2.0457   -1.8872 H       1  LIG1        0.0622
     40 H          -1.2902    6.6133   -3.4783 H       1  LIG1        0.0660
     41 H          -0.4560    5.1705   -4.0680 H       1  LIG1        0.0660
     42 H           0.3253    6.2578   -2.8546 H       1  LIG1        0.0660
     43 H           3.6567    0.5482    0.6307 H       1  LIG1        0.0427
     44 H           3.2537   -0.6206    1.8867 H       1  LIG1        0.0427
     45 H           1.6721    1.5639    1.2631 H       1  LIG1        0.0287
     46 H           0.9998    0.0801    1.9322 H       1  LIG1        0.0287
     47 H           3.5124   -2.7854    1.1823 H       1  LIG1        0.0473
     48 H           3.2720   -3.2915   -0.4751 H       1  LIG1        0.0473
     49 H           2.0223   -4.0130    2.4918 H       1  LIG1        0.0595
     50 H          -0.2349   -5.3005    2.4613 H       1  LIG1        0.0605
     51 H          -0.1433   -3.8893    3.5014 H       1  LIG1        0.0605
     52 H           0.2119   -1.8062   -2.3070 H       1  LIG1        0.0286
     53 H           1.6695   -2.7430   -2.0650 H       1  LIG1        0.0286
     54 H          -1.2192   -1.4559    3.3590 H       1  LIG1        0.2125
@<TRIPOS>BOND
     1     1     2    2
     2     1     3    1
     3     1     4   am
     4     4     5    1
     5     5     6    1
     6     5     7    1
     7     7     8    1
     8     8     9   ar
     9     4     9    1
    10     9    10   ar
    11    10    11   ar
    12    11    12   ar
    13    12    13   ar
    14     8    13   ar
    15    11    14    1
    16    14    15    1
    17     7    16    1
    18    16    17    1
    19    16    18    1
    20    18    19    1
    21    19    20    1
    22     7    20    1
    23    18    21    1
    24    21    22    1
    25    22    23    2
    26    23    24    1
    27    24    25    1
    28    25    26    1
    29    26    28    1
    30    28    29    1
    31     5    28    1
    32    28    30    1
    33    30    31    1
    34    22    30    1
    35    30    32    1
    36    16    32    1
    37    26    33    1
    38    26    27    1
    39     3    34    1
    40     3    35    1
    41     3    36    1
    42    10    37    1
    43    12    38    1
    44    13    39    1
    45    15    40    1
    46    15    41    1
    47    15    42    1
    48    19    43    1
    49    19    44    1
    50    20    45    1
    51    20    46    1
    52    21    47    1
    53    21    48    1
    54    23    49    1
    55    24    50    1
    56    24    51    1
    57    32    52    1
    58    32    53    1
    59    33    54    1
