@<TRIPOS>MOLECULE
NuBBE_1759
 58 58 0 0 0
SMALL
GASTEIGER

@<TRIPOS>ATOM
      1 C          -2.6929   -2.8606    1.9864 C.3     1  LIG1       -0.0438
      2 C          -2.4467   -1.8903    0.8633 C.2     1  LIG1       -0.0759
      3 C          -3.6381   -1.6083   -0.0338 C.3     1  LIG1       -0.0286
      4 C          -4.1430   -2.8550   -0.7691 C.3     1  LIG1       -0.0308
      5 C          -5.3043   -2.5296   -1.6636 C.2     1  LIG1       -0.0850
      6 C          -5.2450   -2.1565   -2.9554 C.2     1  LIG1       -0.0796
      7 C          -3.9712   -1.9634   -3.7311 C.3     1  LIG1       -0.0440
      8 C          -6.5049   -1.8718   -3.7256 C.3     1  LIG1       -0.0440
      9 C          -1.2745   -1.2614    0.6396 C.2     1  LIG1       -0.0806
     10 C          -0.0002   -1.3978    1.4310 C.3     1  LIG1       -0.0058
     11 C           1.1008   -0.4996    0.8994 C.ar    1  LIG1       -0.0012
     12 C           1.9172   -0.9503   -0.1450 C.ar    1  LIG1       -0.0408
     13 C           2.9227   -0.1256   -0.6694 C.ar    1  LIG1        0.0597
     14 C           3.7573   -0.5937   -1.7986 C.2     1  LIG1        0.3389
     15 O           3.0148   -1.4199   -2.5697 O.3     1  LIG1       -0.4645
     16 C           3.6584   -1.9373   -3.7328 C.3     1  LIG1        0.0820
     17 O           4.9104   -0.2277   -2.0074 O.2     1  LIG1       -0.2450
     18 C           3.1224    1.1603   -0.1450 C.ar    1  LIG1       -0.0408
     19 C           2.2866    1.6571    0.8708 C.ar    1  LIG1       -0.0012
     20 C           2.4548    3.0948    1.3365 C.3     1  LIG1       -0.0058
     21 C           3.5000    3.2617    2.4098 C.2     1  LIG1       -0.0809
     22 C           3.8560    4.4135    3.0181 C.2     1  LIG1       -0.0793
     23 C           3.2679    5.7714    2.7404 C.3     1  LIG1       -0.0440
     24 C           4.9378    4.4353    4.0675 C.3     1  LIG1       -0.0440
     25 C           1.2988    0.8009    1.3909 C.ar    1  LIG1        0.1238
     26 O           0.4887    1.2133    2.4112 O.3     1  LIG1       -0.5062
     27 H          -3.0198   -3.8281    1.5931 H       1  LIG1        0.0274
     28 H          -3.4768   -2.4790    2.6495 H       1  LIG1        0.0274
     29 H          -1.8028   -3.0495    2.5912 H       1  LIG1        0.0274
     30 H          -3.3742   -0.8423   -0.7763 H       1  LIG1        0.0313
     31 H          -4.4440   -1.1735    0.5711 H       1  LIG1        0.0313
     32 H          -4.4902   -3.6102   -0.0540 H       1  LIG1        0.0310
     33 H          -3.3307   -3.3309   -1.3303 H       1  LIG1        0.0310
     34 H          -6.2792   -2.6195   -1.1851 H       1  LIG1        0.0572
     35 H          -3.0708   -2.1051   -3.1278 H       1  LIG1        0.0274
     36 H          -3.9284   -0.9460   -4.1337 H       1  LIG1        0.0274
     37 H          -3.9266   -2.6702   -4.5656 H       1  LIG1        0.0274
     38 H          -7.4036   -2.0194   -3.1170 H       1  LIG1        0.0274
     39 H          -6.5770   -2.5360   -4.5923 H       1  LIG1        0.0274
     40 H          -6.5075   -0.8344   -4.0749 H       1  LIG1        0.0274
     41 H          -1.2246   -0.5574   -0.1910 H       1  LIG1        0.0575
     42 H           0.3474   -2.4386    1.3959 H       1  LIG1        0.0357
     43 H          -0.1781   -1.1682    2.4878 H       1  LIG1        0.0357
     44 H           1.7660   -1.9484   -0.5525 H       1  LIG1        0.0630
     45 H           3.5930   -1.2059   -4.5430 H       1  LIG1        0.0661
     46 H           3.1207   -2.8403   -4.0343 H       1  LIG1        0.0661
     47 H           4.7000   -2.2083   -3.5353 H       1  LIG1        0.0661
     48 H           3.9120    1.7896   -0.5548 H       1  LIG1        0.0630
     49 H           1.4886    3.4783    1.6877 H       1  LIG1        0.0357
     50 H           2.7263    3.7066    0.4666 H       1  LIG1        0.0357
     51 H           4.0267    2.3518    2.6968 H       1  LIG1        0.0575
     52 H           2.5078    5.7633    1.9557 H       1  LIG1        0.0274
     53 H           4.0579    6.4650    2.4292 H       1  LIG1        0.0274
     54 H           2.8095    6.1730    3.6510 H       1  LIG1        0.0274
     55 H           5.4018    3.4547    4.2107 H       1  LIG1        0.0274
     56 H           4.5224    4.7562    5.0285 H       1  LIG1        0.0274
     57 H           5.7278    5.1380    3.7810 H       1  LIG1        0.0274
     58 H           1.0529    1.6755    3.0536 H       1  LIG1        0.2922
@<TRIPOS>BOND
     1     1     2    1
     2     2     3    1
     3     3     4    1
     4     4     5    1
     5     5     6    2
     6     6     7    1
     7     6     8    1
     8     2     9    2
     9     9    10    1
    10    10    11    1
    11    11    12   ar
    12    12    13   ar
    13    13    14    1
    14    14    15    1
    15    15    16    1
    16    14    17    2
    17    13    18   ar
    18    18    19   ar
    19    19    20    1
    20    20    21    1
    21    21    22    2
    22    22    23    1
    23    22    24    1
    24    19    25   ar
    25    11    25   ar
    26    25    26    1
    27     1    27    1
    28     1    28    1
    29     1    29    1
    30     3    30    1
    31     3    31    1
    32     4    32    1
    33     4    33    1
    34     5    34    1
    35     7    35    1
    36     7    36    1
    37     7    37    1
    38     8    38    1
    39     8    39    1
    40     8    40    1
    41     9    41    1
    42    10    42    1
    43    10    43    1
    44    12    44    1
    45    16    45    1
    46    16    46    1
    47    16    47    1
    48    18    48    1
    49    20    49    1
    50    20    50    1
    51    21    51    1
    52    23    52    1
    53    23    53    1
    54    23    54    1
    55    24    55    1
    56    24    56    1
    57    24    57    1
    58    26    58    1
