REMARK  Name = NuBBE_475
REMARK  10 active torsions:
REMARK  status: ('A' for Active; 'I' for Inactive)
REMARK    1  A    between atoms: C_2  and  C_3
REMARK    2  A    between atoms: C_2  and  O_26
REMARK    3  A    between atoms: C_6  and  O_22
REMARK    4  A    between atoms: C_11  and  O_16
REMARK    5  A    between atoms: C_13  and  C_15
REMARK    6  A    between atoms: O_16  and  C_17
REMARK    7  A    between atoms: C_17  and  C_18
REMARK    8  A    between atoms: O_22  and  C_23
REMARK    9  A    between atoms: C_23  and  C_24
REMARK   10  A    between atoms: O_26  and  C_27
REMARK                            x       y       z     vdW  Elec       q    Type
REMARK                         _______ _______ _______ _____ _____    ______ ____
ROOT
ATOM      1  C   LIG A   1       0.590   1.540  -0.835  0.00  0.00    +0.074 C 
ATOM      2  C   LIG A   1       1.930   1.533  -0.791  0.00  0.00    +0.202 C 
ATOM      3  O   LIG A   1       2.698   0.620  -0.113  0.00  0.00    -0.460 OA
ATOM      4  C   LIG A   1       2.006  -0.138   0.893  0.00  0.00    +0.370 C 
ATOM      5  C   LIG A   1       0.648  -0.654   0.394  0.00  0.00    +0.085 C 
ATOM      6  C   LIG A   1      -0.238   0.496  -0.124  0.00  0.00    +0.043 C 
ATOM      7  C   LIG A   1      -1.281  -0.210  -1.027  0.00  0.00    +0.054 C 
ATOM      8  C   LIG A   1      -0.807  -1.658  -1.227  0.00  0.00    +0.180 C 
ATOM      9  C   LIG A   1       0.678  -1.598  -0.824  0.00  0.00    +0.037 C 
ATOM     10  C   LIG A   1       1.324  -2.947  -0.571  0.00  0.00    +0.012 C 
ENDROOT
BRANCH   1  12
ATOM     11  O   LIG A   1       0.518   3.458  -2.301  0.00  0.00    -0.245 OA
ATOM     12  C   LIG A   1      -0.048   2.675  -1.567  0.00  0.00    +0.338 C 
BRANCH  12  13
ATOM     13  O   LIG A   1      -1.353   2.729  -1.170  0.00  0.00    -0.465 OA
ATOM     14  C   LIG A   1      -2.013   3.957  -1.453  0.00  0.00    +0.280 C 
ENDBRANCH  12  13
ENDBRANCH   1  12
BRANCH   8  15
ATOM     15  O   LIG A   1      -1.538  -2.558  -0.366  0.00  0.00    -0.461 OA
BRANCH  15  16
ATOM     16  C   LIG A   1      -2.834  -2.785  -0.712  0.00  0.00    +0.304 C 
ATOM     17  C   LIG A   1      -3.505  -3.708   0.270  0.00  0.00    +0.136 C 
ATOM     18  O   LIG A   1      -3.415  -2.293  -1.676  0.00  0.00    -0.251 OA
ENDBRANCH  15  16
ENDBRANCH   8  15
BRANCH   4  19
ATOM     19  O   LIG A   1       1.759   0.671   2.061  0.00  0.00    -0.425 OA
BRANCH  19  20
ATOM     20  C   LIG A   1       2.875   1.088   2.720  0.00  0.00    +0.307 C 
ATOM     21  C   LIG A   1       2.526   2.263   3.588  0.00  0.00    +0.136 C 
ATOM     22  O   LIG A   1       3.999   0.640   2.583  0.00  0.00    -0.251 OA
ENDBRANCH  19  20
ENDBRANCH   4  19
TORSDOF 6
