REMARK  Name = NuBBE_2477
REMARK  15 active torsions:
REMARK  status: ('A' for Active; 'I' for Inactive)
REMARK    1  A    between atoms: C_1  and  O_2
REMARK    2  A    between atoms: O_2  and  C_3
REMARK    3  A    between atoms: C_5  and  C_6
REMARK    4  A    between atoms: C_6  and  C_7
REMARK    5  A    between atoms: C_9  and  C_11
REMARK    6  A    between atoms: C_11  and  O_12
REMARK    7  A    between atoms: O_12  and  C_13
REMARK    8  A    between atoms: C_13  and  C_14
REMARK    9  A    between atoms: C_16  and  C_18
REMARK   10  A    between atoms: C_21  and  O_22
REMARK   11  A    between atoms: O_22  and  C_23
REMARK   12  A    between atoms: C_24  and  O_25
REMARK   13  A    between atoms: O_25  and  C_26
REMARK   14  A    between atoms: C_32  and  O_33
REMARK   15  A    between atoms: O_33  and  C_34
REMARK                            x       y       z     vdW  Elec       q    Type
REMARK                         _______ _______ _______ _____ _____    ______ ____
ROOT
ATOM      1  C   LIG A   1       0.502   0.192  -0.190  0.00  0.00    +0.028 C 
ATOM      2  C   LIG A   1      -0.900   0.459  -0.735  0.00  0.00    +0.066 C 
ATOM      3  C   LIG A   1      -1.779   0.192   0.484  0.00  0.00    +0.155 C 
ATOM      4  O   LIG A   1      -1.037  -0.791   1.264  0.00  0.00    -0.371 OA
ATOM      5  C   LIG A   1       0.198  -1.082   0.580  0.00  0.00    +0.165 C 
ENDROOT
BRANCH   3   6
ATOM      6  C   LIG A   1      -3.137  -0.375   0.157  0.00  0.00    -0.015 A 
ATOM      7  C   LIG A   1      -4.254   0.424  -0.036  0.00  0.00    +0.010 A 
ATOM      8  C   LIG A   1      -5.481  -0.158  -0.360  0.00  0.00    +0.050 A 
ATOM      9  C   LIG A   1      -5.622  -1.550  -0.517  0.00  0.00    +0.162 A 
ATOM     10  C   LIG A   1      -4.503  -2.373  -0.293  0.00  0.00    +0.162 A 
ATOM     11  C   LIG A   1      -3.290  -1.758   0.032  0.00  0.00    +0.055 A 
BRANCH   9  12
ATOM     12  O   LIG A   1      -6.832  -2.114  -0.858  0.00  0.00    -0.491 OA
ATOM     13  C   LIG A   1      -7.675  -1.284  -1.666  0.00  0.00    +0.277 C 
ENDBRANCH   9  12
BRANCH  10  14
ATOM     14  O   LIG A   1      -4.590  -3.745  -0.418  0.00  0.00    -0.491 OA
ATOM     15  C   LIG A   1      -3.354  -4.452  -0.207  0.00  0.00    +0.277 C 
ENDBRANCH  10  14
ENDBRANCH   3   6
BRANCH   1  16
ATOM     16  C   LIG A   1       1.057   1.233   0.814  0.00  0.00    +0.041 C 
BRANCH  16  19
ATOM     17  C   LIG A   1       4.354   1.420   2.775  0.00  0.00    +0.162 A 
ATOM     18  C   LIG A   1       2.978   1.432   2.468  0.00  0.00    +0.053 A 
ATOM     19  C   LIG A   1       2.512   1.032   1.198  0.00  0.00    -0.043 A 
ATOM     20  C   LIG A   1       3.444   0.569   0.265  0.00  0.00    +0.007 A 
ATOM     21  C   LIG A   1       4.798   0.527   0.566  0.00  0.00    +0.050 A 
ATOM     22  C   LIG A   1       5.262   0.966   1.802  0.00  0.00    +0.162 A 
BRANCH  17  24
ATOM     23  C   LIG A   1       6.075   1.909   4.343  0.00  0.00    +0.277 C 
ATOM     24  O   LIG A   1       4.682   1.897   4.027  0.00  0.00    -0.491 OA
ENDBRANCH  17  24
BRANCH  22  25
ATOM     25  O   LIG A   1       6.607   1.107   2.001  0.00  0.00    -0.491 OA
ATOM     26  C   LIG A   1       7.425   0.025   1.591  0.00  0.00    +0.277 C 
ENDBRANCH  22  25
ENDBRANCH  16  19
ENDBRANCH   1  16
BRANCH   2  27
ATOM     27  C   LIG A   1      -1.148   1.768  -1.479  0.00  0.00    +0.238 C 
BRANCH  27  28
ATOM     28  O   LIG A   1      -0.338   1.935  -2.663  0.00  0.00    -0.464 OA
BRANCH  28  29
ATOM     29  C   LIG A   1      -0.493   1.051  -3.675  0.00  0.00    +0.304 C 
ATOM     30  C   LIG A   1       0.065   1.514  -4.966  0.00  0.00    +0.136 C 
ATOM     31  O   LIG A   1      -1.089  -0.044  -3.589  0.00  0.00    -0.251 OA
ENDBRANCH  28  29
ENDBRANCH  27  28
ENDBRANCH   2  27
TORSDOF 10
