REMARK  Name = NuBBE_1940
REMARK  4 active torsions:
REMARK  status: ('A' for Active; 'I' for Inactive)
REMARK    1  A    between atoms: C_1  and  C_2
REMARK    2  A    between atoms: C_6  and  C_17
REMARK    3  A    between atoms: C_10  and  C_16
REMARK    4  A    between atoms: C_17  and  C_19
REMARK                            x       y       z     vdW  Elec       q    Type
REMARK                         _______ _______ _______ _____ _____    ______ ____
ROOT
ATOM      1  C   LIG A   1      -2.611   2.251   0.270  0.00  0.00    +0.012 C 
ATOM      2  C   LIG A   1      -1.144   2.194  -0.141  0.00  0.00    +0.012 C 
ATOM      3  C   LIG A   1      -0.415   0.876   0.068  0.00  0.00    -0.067 C 
ATOM      4  C   LIG A   1      -0.692   0.016   1.062  0.00  0.00    -0.019 C 
ATOM      5  C   LIG A   1      -0.102  -1.336   1.381  0.00  0.00    +0.037 C 
ATOM      6  C   LIG A   1       0.254  -2.271   0.209  0.00  0.00    +0.012 C 
ATOM      7  C   LIG A   1       1.177  -1.771  -0.898  0.00  0.00    +0.005 C 
ATOM      8  C   LIG A   1       0.651  -0.623  -1.773  0.00  0.00    -0.007 C 
ATOM      9  C   LIG A   1       0.640   0.712  -1.007  0.00  0.00    +0.018 C 
ATOM     10  C   LIG A   1       0.428   1.929  -1.927  0.00  0.00    +0.009 C 
ATOM     11  C   LIG A   1      -0.983   2.416  -1.642  0.00  0.00    +0.008 C 
ATOM     12  C   LIG A   1      -0.677  -0.974  -2.453  0.00  0.00    +0.008 C 
ENDROOT
BRANCH   5  13
ATOM     13  C   LIG A   1       0.955  -1.243   2.481  0.00  0.00    -0.073 C 
ATOM     14  C   LIG A   1       0.722  -1.739   3.711  0.00  0.00    +0.008 C 
ATOM     15  C   LIG A   1       2.264  -0.563   2.187  0.00  0.00    +0.039 C 
ENDBRANCH   5  13
TORSDOF 1
