REMARK  Name = NuBBE_1422
REMARK  6 active torsions:
REMARK  status: ('A' for Active; 'I' for Inactive)
REMARK    1  A    between atoms: C_3  and  C_5
REMARK    2  A    between atoms: C_17  and  C_19
REMARK    3  A    between atoms: C_22  and  O_27
REMARK    4  A    between atoms: C_23  and  O_24
REMARK    5  A    between atoms: O_24  and  C_25
REMARK    6  A    between atoms: O_27  and  C_28
REMARK                            x       y       z     vdW  Elec       q    Type
REMARK                         _______ _______ _______ _____ _____    ______ ____
ROOT
ATOM      1  C   LIG A   1      -2.380   0.413  -0.562  0.00  0.00    +0.056 C 
ATOM      2  C   LIG A   1      -2.014   1.883  -0.729  0.00  0.00    +0.154 C 
ATOM      3  O   LIG A   1      -0.802   1.922  -1.511  0.00  0.00    -0.371 OA
ATOM      4  C   LIG A   1      -0.353   0.582  -1.740  0.00  0.00    +0.167 C 
ATOM      5  C   LIG A   1      -1.590  -0.294  -1.639  0.00  0.00    +0.056 C 
ATOM      6  C   LIG A   1      -1.416  -1.717  -1.112  0.00  0.00    +0.154 C 
ATOM      7  O   LIG A   1      -1.766  -1.670   0.293  0.00  0.00    -0.371 OA
ATOM      8  C   LIG A   1      -1.900  -0.297   0.686  0.00  0.00    +0.167 C 
ENDROOT
BRANCH   2   9
ATOM      9  C   LIG A   1      -1.891   2.691   0.546  0.00  0.00    -0.015 A 
ATOM     10  C   LIG A   1      -3.007   2.829   1.405  0.00  0.00    +0.010 A 
ATOM     11  C   LIG A   1      -2.933   3.582   2.582  0.00  0.00    +0.050 A 
ATOM     12  C   LIG A   1      -1.730   4.192   2.877  0.00  0.00    +0.166 A 
ATOM     13  O   LIG A   1      -1.475   4.960   3.969  0.00  0.00    -0.453 OA
ATOM     14  C   LIG A   1      -0.085   5.281   3.752  0.00  0.00    +0.466 C 
ATOM     15  O   LIG A   1       0.444   4.745   2.523  0.00  0.00    -0.453 OA
ATOM     16  C   LIG A   1      -0.641   4.069   2.053  0.00  0.00    +0.167 A 
ATOM     17  C   LIG A   1      -0.686   3.336   0.888  0.00  0.00    +0.055 A 
ENDBRANCH   2   9
BRANCH   6  18
ATOM     18  C   LIG A   1      -0.046  -2.328  -1.318  0.00  0.00    -0.015 A 
ATOM     19  C   LIG A   1       0.476  -2.531  -2.600  0.00  0.00    +0.010 A 
ATOM     20  C   LIG A   1       1.777  -3.017  -2.768  0.00  0.00    +0.050 A 
ATOM     21  C   LIG A   1       2.583  -3.293  -1.655  0.00  0.00    +0.162 A 
ATOM     22  C   LIG A   1       2.053  -3.149  -0.363  0.00  0.00    +0.162 A 
ATOM     23  C   LIG A   1       0.745  -2.681  -0.214  0.00  0.00    +0.055 A 
BRANCH  22  24
ATOM     24  O   LIG A   1       2.873  -3.457   0.696  0.00  0.00    -0.491 OA
ATOM     25  C   LIG A   1       2.351  -3.205   1.998  0.00  0.00    +0.277 C 
ENDBRANCH  22  24
BRANCH  21  26
ATOM     26  O   LIG A   1       3.881  -3.731  -1.754  0.00  0.00    -0.491 OA
ATOM     27  C   LIG A   1       4.595  -3.293  -2.904  0.00  0.00    +0.277 C 
ENDBRANCH  21  26
ENDBRANCH   6  18
TORSDOF 4
