@<TRIPOS>MOLECULE
NuBBE_2481
 49 52 0 0 0
SMALL
GASTEIGER

@<TRIPOS>ATOM
      1 C          -4.2289   -1.9623   -1.2434 C.3     1  LIG1        0.0052
      2 C          -5.1833   -0.8955   -1.7458 C.2     1  LIG1       -0.0876
      3 C          -6.4149   -0.6775   -1.2629 C.2     1  LIG1       -0.1025
      4 C          -2.7026   -1.6319   -1.3513 C.3     1  LIG1        0.1528
      5 O          -2.3964   -1.4916   -2.7482 O.3     1  LIG1       -0.3643
      6 C          -1.0214   -1.2873   -3.0572 C.3     1  LIG1        0.0382
      7 C          -2.3859   -0.3186   -0.6749 C.2     1  LIG1       -0.0378
      8 C          -1.6476   -0.2410    0.4353 C.2     1  LIG1        0.0003
      9 C          -1.1097   -1.4019    1.0785 C.2     1  LIG1        0.1282
     10 C          -1.2315   -2.6389    0.6061 C.2     1  LIG1        0.0261
     11 C          -1.9605   -2.8542   -0.6769 C.2     1  LIG1        0.1953
     12 O          -1.9462   -3.9824   -1.1638 O.2     1  LIG1       -0.2891
     13 O          -0.3578   -1.0683    2.1939 O.2     1  LIG1       -0.4832
     14 C          -0.0498    0.3486    2.0577 C.3     1  LIG1        0.1320
     15 H          -0.1197    0.7638    3.0718 H       1  LIG1        0.0790
     16 C          -1.1920    0.9487    1.2054 C.3     1  LIG1        0.0258
     17 H          -2.0136    1.1997    1.8918 H       1  LIG1        0.0387
     18 C          -0.8886    2.1859    0.3704 C.3     1  LIG1       -0.0546
     19 C           1.3911    0.5306    1.5948 C.ar    1  LIG1        0.0004
     20 C           2.0377   -0.4176    0.7885 C.ar    1  LIG1       -0.0092
     21 C           3.3441   -0.1883    0.4100 C.ar    1  LIG1        0.1703
     22 C           4.0459    0.9283    0.8053 C.ar    1  LIG1        0.2075
     23 C           3.4598    1.8845    1.6150 C.ar    1  LIG1        0.1657
     24 C           2.1245    1.6718    2.0059 C.ar    1  LIG1       -0.0094
     25 O           4.0194    3.0338    2.0962 O.3     1  LIG1       -0.4913
     26 C           5.3542    3.3182    1.6924 C.3     1  LIG1        0.0790
     27 O           5.3115    0.9171    0.2993 O.3     1  LIG1       -0.4489
     28 C           5.3234   -0.3205   -0.4352 C.3     1  LIG1        0.2334
     29 O           4.0708   -1.0227   -0.3828 O.3     1  LIG1       -0.4525
     30 H          -4.4274   -2.8601   -1.8444 H       1  LIG1        0.0343
     31 H          -4.4793   -2.2134   -0.2032 H       1  LIG1        0.0343
     32 H          -4.8419   -0.2910   -2.5841 H       1  LIG1        0.0567
     33 H          -6.8400   -1.2693   -0.4580 H       1  LIG1        0.0532
     34 H          -7.0480    0.0930   -1.6961 H       1  LIG1        0.0532
     35 H          -0.9490   -1.0532   -4.1233 H       1  LIG1        0.0524
     36 H          -0.4358   -2.1888   -2.8610 H       1  LIG1        0.0524
     37 H          -0.5993   -0.4391   -2.5093 H       1  LIG1        0.0524
     38 H          -2.7577    0.5816   -1.1566 H       1  LIG1        0.0609
     39 H          -0.7704   -3.5005    1.0775 H       1  LIG1        0.0690
     40 H          -0.5189    3.0036    0.9953 H       1  LIG1        0.0237
     41 H          -1.8020    2.5452   -0.1207 H       1  LIG1        0.0237
     42 H          -0.1573    1.9866   -0.4204 H       1  LIG1        0.0237
     43 H           1.5538   -1.3328    0.4684 H       1  LIG1        0.0659
     44 H           1.6550    2.4118    2.6536 H       1  LIG1        0.0659
     45 H           5.6410    4.2769    2.1353 H       1  LIG1        0.0660
     46 H           5.4244    3.4284    0.6052 H       1  LIG1        0.0660
     47 H           6.0518    2.5630    2.0694 H       1  LIG1        0.0660
     48 H           6.1051   -0.9673   -0.0211 H       1  LIG1        0.1166
     49 H           5.5640   -0.1047   -1.4825 H       1  LIG1        0.1166
@<TRIPOS>BOND
     1     1     2    1
     2     2     3    2
     3     1     4    1
     4     4     5    1
     5     5     6    1
     6     4     7    1
     7     7     8    2
     8     8     9    1
     9     9    10    2
    10    10    11    1
    11     4    11    1
    12    11    12    2
    13     9    13    1
    14    13    14    1
    15    14    15    1
    16    14    16    1
    17    16    17    1
    18     8    16    1
    19    16    18    1
    20    14    19    1
    21    19    20   ar
    22    20    21   ar
    23    21    22   ar
    24    22    23   ar
    25    23    24   ar
    26    19    24   ar
    27    23    25    1
    28    25    26    1
    29    22    27    1
    30    27    28    1
    31    28    29    1
    32    21    29    1
    33     1    30    1
    34     1    31    1
    35     2    32    1
    36     3    33    1
    37     3    34    1
    38     6    35    1
    39     6    36    1
    40     6    37    1
    41     7    38    1
    42    10    39    1
    43    18    40    1
    44    18    41    1
    45    18    42    1
    46    20    43    1
    47    24    44    1
    48    26    45    1
    49    26    46    1
    50    26    47    1
    51    28    48    1
    52    28    49    1
