REMARK  Name = NuBBE_2258
REMARK  10 active torsions:
REMARK  status: ('A' for Active; 'I' for Inactive)
REMARK    1  A    between atoms: C_4  and  O_5
REMARK    2  A    between atoms: O_5  and  C_6
REMARK    3  A    between atoms: C_6  and  C_7
REMARK    4  A    between atoms: C_17  and  O_18
REMARK    5  A    between atoms: O_18  and  C_19
REMARK    6  A    between atoms: C_20  and  O_21
REMARK    7  A    between atoms: O_21  and  C_22
REMARK    8  A    between atoms: C_23  and  O_24
REMARK    9  A    between atoms: O_24  and  C_25
REMARK   10  A    between atoms: C_25  and  C_26
REMARK                            x       y       z     vdW  Elec       q    Type
REMARK                         _______ _______ _______ _____ _____    ______ ____
ROOT
ATOM      1  O   LIG A   1      -2.682   0.553   0.715  0.00  0.00    -0.286 OA
ATOM      2  C   LIG A   1      -1.473   0.597   0.526  0.00  0.00    +0.204 A 
ATOM      3  C   LIG A   1      -0.738   1.865   0.336  0.00  0.00    +0.107 A 
ATOM      4  C   LIG A   1      -1.351   3.123   0.212  0.00  0.00    +0.146 A 
ATOM      5  C   LIG A   1      -0.555   4.273   0.152  0.00  0.00    +0.047 A 
ATOM      6  C   LIG A   1       0.832   4.181   0.140  0.00  0.00    +0.007 A 
ATOM      7  C   LIG A   1       1.438   2.935   0.186  0.00  0.00    +0.047 A 
ATOM      8  C   LIG A   1       0.656   1.782   0.286  0.00  0.00    +0.143 A 
ATOM      9  O   LIG A   1       1.368   0.613   0.299  0.00  0.00    -0.451 OA
ATOM     10  C   LIG A   1       0.698  -0.576   0.351  0.00  0.00    +0.185 A 
ATOM     11  C   LIG A   1      -0.684  -0.653   0.479  0.00  0.00    +0.072 A 
ATOM     12  C   LIG A   1      -1.332  -1.891   0.443  0.00  0.00    +0.065 A 
ATOM     13  C   LIG A   1      -0.595  -3.065   0.239  0.00  0.00    +0.166 A 
ATOM     14  C   LIG A   1       0.811  -3.014   0.165  0.00  0.00    +0.208 A 
ATOM     15  C   LIG A   1       1.440  -1.758   0.194  0.00  0.00    +0.219 A 
ENDROOT
BRANCH  13  16
ATOM     16  O   LIG A   1      -1.184  -4.295   0.074  0.00  0.00    -0.491 OA
ATOM     17  C   LIG A   1      -2.506  -4.287  -0.460  0.00  0.00    +0.277 C 
ENDBRANCH  13  16
BRANCH  14  18
ATOM     18  O   LIG A   1       1.454  -4.205  -0.071  0.00  0.00    -0.488 OA
ATOM     19  C   LIG A   1       2.753  -4.359   0.494  0.00  0.00    +0.277 C 
ENDBRANCH  14  18
BRANCH   4  20
ATOM     20  O   LIG A   1      -2.764   3.191   0.063  0.00  0.00    -0.425 OA
BRANCH  20  21
ATOM     21  C   LIG A   1      -3.491   4.367  -0.143  0.00  0.00    +0.309 C 
ATOM     22  C   LIG A   1      -4.921   4.051  -0.434  0.00  0.00    +0.136 C 
ATOM     23  O   LIG A   1      -3.069   5.516  -0.115  0.00  0.00    -0.251 OA
ENDBRANCH  20  21
ENDBRANCH   4  20
BRANCH  15  24
ATOM     24  O   LIG A   1       2.773  -1.700  -0.297  0.00  0.00    -0.418 OA
BRANCH  24  25
ATOM     25  C   LIG A   1       3.782  -0.842   0.134  0.00  0.00    +0.309 C 
ATOM     26  C   LIG A   1       4.824  -0.814  -0.943  0.00  0.00    +0.136 C 
ATOM     27  O   LIG A   1       3.834  -0.247   1.207  0.00  0.00    -0.251 OA
ENDBRANCH  24  25
ENDBRANCH  15  24
TORSDOF 6
