REMARK  Name = NuBBE_1647
REMARK  5 active torsions:
REMARK  status: ('A' for Active; 'I' for Inactive)
REMARK    1  A    between atoms: C_1  and  C_2
REMARK    2  A    between atoms: C_4  and  C_17
REMARK    3  A    between atoms: C_9  and  C_11
REMARK    4  A    between atoms: C_14  and  O_16
REMARK    5  A    between atoms: C_20  and  O_23
REMARK                            x       y       z     vdW  Elec       q    Type
REMARK                         _______ _______ _______ _____ _____    ______ ____
ROOT
ATOM      1  C   LIG A   1      -0.960  -0.801  -2.925  0.00  0.00    +0.009 C 
ATOM      2  C   LIG A   1      -0.981  -0.909  -1.387  0.00  0.00    +0.001 C 
ATOM      3  C   LIG A   1      -0.449   0.414  -0.758  0.00  0.00    +0.052 C 
ATOM      4  C   LIG A   1       1.070   0.455  -0.623  0.00  0.00    -0.033 A 
ATOM      5  C   LIG A   1       1.872  -0.691  -0.776  0.00  0.00    -0.043 A 
ATOM      6  C   LIG A   1       1.296  -2.029  -1.167  0.00  0.00    +0.039 C 
ATOM      7  C   LIG A   1      -0.211  -2.167  -0.926  0.00  0.00    -0.006 C 
ATOM      8  C   LIG A   1      -0.500  -2.551   0.528  0.00  0.00    +0.008 C 
ATOM      9  C   LIG A   1       3.268  -0.581  -0.642  0.00  0.00    +0.007 A 
ATOM     10  C   LIG A   1       3.868   0.644  -0.350  0.00  0.00    +0.045 A 
ATOM     11  C   LIG A   1       3.073   1.771  -0.206  0.00  0.00    +0.117 A 
ATOM     12  C   LIG A   1       1.693   1.688  -0.344  0.00  0.00    +0.049 A 
ENDROOT
BRANCH   3  13
ATOM     13  C   LIG A   1      -1.234   0.792   0.506  0.00  0.00    -0.040 A 
ATOM     14  C   LIG A   1      -0.700   0.702   1.802  0.00  0.00    +0.008 A 
ATOM     15  C   LIG A   1      -1.460   1.059   2.921  0.00  0.00    +0.045 A 
ATOM     16  C   LIG A   1      -2.762   1.511   2.750  0.00  0.00    +0.117 A 
ATOM     17  C   LIG A   1      -3.316   1.612   1.482  0.00  0.00    +0.045 A 
ATOM     18  C   LIG A   1      -2.556   1.257   0.366  0.00  0.00    +0.008 A 
BRANCH  16  19
ATOM     19  O   LIG A   1      -3.536   1.869   3.814  0.00  0.00    -0.507 OA
ATOM     20  H   LIG A   1      -3.011   1.762   4.624  0.00  0.00    +0.292 HD
ENDBRANCH  16  19
ENDBRANCH   3  13
BRANCH  11  21
ATOM     21  O   LIG A   1       3.613   2.992   0.071  0.00  0.00    -0.507 OA
ATOM     22  H   LIG A   1       4.577   2.896   0.131  0.00  0.00    +0.292 HD
ENDBRANCH  11  21
TORSDOF 3
