@<TRIPOS>MOLECULE
NuBBE_248
 46 47 0 0 0
SMALL
GASTEIGER

@<TRIPOS>ATOM
      1 O          -0.3091   -0.6282    1.2078 O.2     1  LIG1       -0.2456
      2 C          -0.5993    0.4465    0.7234 C.2     1  LIG1        0.3323
      3 C          -1.9277    1.1518    0.8126 C.2     1  LIG1        0.0231
      4 C          -3.0378    0.7802    1.4882 C.2     1  LIG1       -0.0477
      5 C          -3.3064   -0.4271    2.2896 C.ar    1  LIG1       -0.0211
      6 C          -2.3370   -1.0317    3.0979 C.ar    1  LIG1       -0.0094
      7 C          -2.6146   -2.2219    3.7577 C.ar    1  LIG1        0.1588
      8 O          -1.6490   -2.8902    4.4598 O.3     1  LIG1       -0.5033
      9 C          -3.8882   -2.7703    3.7100 C.ar    1  LIG1        0.1582
     10 C          -4.8980   -2.1398    3.0018 C.ar    1  LIG1       -0.0160
     11 C          -4.6050   -0.9711    2.2868 C.ar    1  LIG1       -0.0509
     12 O          -4.1448   -3.9373    4.3681 O.3     1  LIG1       -0.5033
     13 O           0.2349    1.2875    0.0713 O.3     1  LIG1       -0.4555
     14 C           1.6585    1.1728    0.3033 C.3     1  LIG1        0.1346
     15 H           1.8220    1.5671    1.3140 H       1  LIG1        0.0762
     16 C           2.2885   -0.2286    0.2146 C.3     1  LIG1        0.1180
     17 H           1.8276   -0.9560    0.8836 H       1  LIG1        0.0656
     18 C           2.2554   -0.7608   -1.2207 C.3     1  LIG1        0.0877
     19 H           1.2247   -0.8866   -1.5688 H       1  LIG1        0.0621
     20 C           3.0334    0.1596   -2.1584 C.3     1  LIG1        0.0153
     21 C           2.5339    1.6092   -2.1123 C.3     1  LIG1        0.1678
     22 O           3.5577    2.4340   -2.7069 O.3     1  LIG1       -0.3772
     23 C           2.3638    2.1327   -0.6729 C.3     1  LIG1        0.0264
     24 C           1.2469    1.7004   -2.9747 C.2     1  LIG1        0.3391
     25 O           1.5835    2.0011   -4.2695 O.3     1  LIG1       -0.4659
     26 C           0.5284    1.7995   -5.2126 C.3     1  LIG1        0.0818
     27 O           0.1149    1.4070   -2.6119 O.2     1  LIG1       -0.2476
     28 O           2.8855   -2.0478   -1.2464 O.3     1  LIG1       -0.3890
     29 O           3.6557   -0.1492    0.6600 O.3     1  LIG1       -0.3856
     30 H          -1.9599    2.0939    0.2757 H       1  LIG1        0.0689
     31 H          -3.8905    1.4508    1.4143 H       1  LIG1        0.0626
     32 H          -1.3552   -0.5876    3.2052 H       1  LIG1        0.0661
     33 H          -0.8009   -2.4426    4.2856 H       1  LIG1        0.2923
     34 H          -5.8987   -2.5607    2.9918 H       1  LIG1        0.0655
     35 H          -5.4040   -0.4981    1.7191 H       1  LIG1        0.0625
     36 H          -3.2830   -4.1817    4.7625 H       1  LIG1        0.2923
     37 H           2.9834   -0.2381   -3.1812 H       1  LIG1        0.0324
     38 H           4.1046    0.1269   -1.9158 H       1  LIG1        0.0324
     39 H           3.6037    2.1894   -3.6508 H       1  LIG1        0.2109
     40 H           1.8398    3.0973   -0.6949 H       1  LIG1        0.0335
     41 H           3.3635    2.3447   -0.2680 H       1  LIG1        0.0335
     42 H          -0.2483    2.5611   -5.0969 H       1  LIG1        0.0661
     43 H           0.1082    0.7941   -5.1042 H       1  LIG1        0.0661
     44 H           0.9545    1.8797   -6.2167 H       1  LIG1        0.0661
     45 H           2.2964   -2.6626   -0.7704 H       1  LIG1        0.2099
     46 H           4.0880   -0.9694    0.3491 H       1  LIG1        0.2100
@<TRIPOS>BOND
     1     1     2    2
     2     2     3    1
     3     3     4    2
     4     4     5    1
     5     5     6   ar
     6     6     7   ar
     7     7     8    1
     8     7     9   ar
     9     9    10   ar
    10    10    11   ar
    11     5    11   ar
    12     9    12    1
    13     2    13    1
    14    13    14    1
    15    14    15    1
    16    14    16    1
    17    16    18    1
    18    18    19    1
    19    18    20    1
    20    20    21    1
    21    21    23    1
    22    14    23    1
    23    24    25    1
    24    25    26    1
    25    24    27    2
    26    18    28    1
    27    16    29    1
    28    16    17    1
    29    21    24    1
    30    21    22    1
    31     3    30    1
    32     4    31    1
    33     6    32    1
    34     8    33    1
    35    10    34    1
    36    11    35    1
    37    12    36    1
    38    20    37    1
    39    20    38    1
    40    22    39    1
    41    23    40    1
    42    23    41    1
    43    26    42    1
    44    26    43    1
    45    26    44    1
    46    28    45    1
    47    29    46    1
