REMARK  Name = NuBBE_1807
REMARK  19 active torsions:
REMARK  status: ('A' for Active; 'I' for Inactive)
REMARK    1  A    between atoms: O_1  and  C_2
REMARK    2  A    between atoms: C_2  and  C_3
REMARK    3  A    between atoms: C_3  and  O_4
REMARK    4  A    between atoms: C_3  and  C_5
REMARK    5  A    between atoms: C_5  and  C_6
REMARK    6  A    between atoms: C_6  and  C_7
REMARK    7  A    between atoms: C_6  and  C_20
REMARK    8  A    between atoms: C_7  and  C_8
REMARK    9  A    between atoms: C_8  and  C_9
REMARK   10  A    between atoms: C_8  and  O_19
REMARK   11  A    between atoms: C_9  and  C_10
REMARK   12  A    between atoms: C_10  and  C_11
REMARK   13  A    between atoms: C_11  and  C_12
REMARK   14  A    between atoms: C_12  and  C_13
REMARK   15  A    between atoms: C_13  and  C_14
REMARK   16  A    between atoms: C_14  and  C_15
REMARK   17  A    between atoms: C_15  and  C_16
REMARK   18  A    between atoms: C_16  and  C_17
REMARK   19  A    between atoms: C_20  and  O_21
REMARK                            x       y       z     vdW  Elec       q    Type
REMARK                         _______ _______ _______ _____ _____    ______ ____
ROOT
ATOM      1  C   LIG A   1       2.281   0.532   1.271  0.00  0.00    +0.115 C 
ENDROOT
BRANCH   1   2
ATOM      2  O   LIG A   1       2.769  -0.598   1.998  0.00  0.00    -0.392 OA
ATOM      3  H   LIG A   1       2.606  -1.370   1.440  0.00  0.00    +0.210 HD
ENDBRANCH   1   2
BRANCH   1   4
ATOM      4  C   LIG A   1       0.925   0.899   1.863  0.00  0.00    +0.031 C 
BRANCH   4   5
ATOM      5  C   LIG A   1      -0.203  -0.092   1.724  0.00  0.00    +0.002 C 
BRANCH   5   6
ATOM      6  C   LIG A   1      -0.025  -1.442   2.393  0.00  0.00    +0.000 C 
BRANCH   6   7
ATOM      7  C   LIG A   1      -1.228  -2.346   2.075  0.00  0.00    -0.000 C 
BRANCH   7   8
ATOM      8  C   LIG A   1      -1.438  -2.585   0.546  0.00  0.00    +0.000 C 
BRANCH   8   9
ATOM      9  C   LIG A   1      -2.663  -3.450   0.221  0.00  0.00    +0.001 C 
BRANCH   9  10
ATOM     10  C   LIG A   1      -2.958  -3.838  -1.255  0.00  0.00    +0.013 C 
BRANCH  10  11
ATOM     11  C   LIG A   1      -3.321  -2.834  -2.368  0.00  0.00    +0.088 C 
BRANCH  11  12
ATOM     12  C   LIG A   1      -4.602  -2.198  -2.152  0.00  0.00    -0.106 C 
ATOM     13  C   LIG A   1      -5.769  -1.795  -2.001  0.00  0.00    +0.004 C 
ENDBRANCH  11  12
ENDBRANCH  10  11
ENDBRANCH   9  10
ENDBRANCH   8   9
ENDBRANCH   7   8
ENDBRANCH   6   7
ENDBRANCH   5   6
ENDBRANCH   4   5
ENDBRANCH   1   4
BRANCH   1  14
ATOM     14  C   LIG A   1       2.529   0.282  -0.257  0.00  0.00    +0.037 C 
BRANCH  14  15
ATOM     15  C   LIG A   1       2.200   1.243  -1.449  0.00  0.00    +0.019 C 
BRANCH  15  16
ATOM     16  C   LIG A   1       0.707   1.376  -1.636  0.00  0.00    +0.159 C 
BRANCH  16  17
ATOM     17  O   LIG A   1       0.286   2.269  -2.650  0.00  0.00    -0.395 OA
ATOM     18  H   LIG A   1      -0.679   2.384  -2.554  0.00  0.00    +0.209 HD
ENDBRANCH  16  17
ENDBRANCH  15  16
BRANCH  15  19
ATOM     19  C   LIG A   1       2.888   2.636  -1.389  0.00  0.00    +0.039 C 
BRANCH  19  20
ATOM     20  C   LIG A   1       2.690   3.569  -0.170  0.00  0.00    +0.140 C 
BRANCH  20  21
ATOM     21  O   LIG A   1       3.353   3.001   0.938  0.00  0.00    -0.390 OA
ATOM     22  H   LIG A   1       3.313   3.566   1.724  0.00  0.00    +0.210 HD
ENDBRANCH  20  21
BRANCH  20  23
ATOM     23  C   LIG A   1       1.297   4.211   0.139  0.00  0.00    +0.187 C 
BRANCH  23  24
ATOM     24  O   LIG A   1       0.171   3.526   0.651  0.00  0.00    -0.393 OA
ATOM     25  H   LIG A   1      -0.296   3.013  -0.021  0.00  0.00    +0.209 HD
ENDBRANCH  23  24
ENDBRANCH  20  23
ENDBRANCH  19  20
ENDBRANCH  15  19
ENDBRANCH  14  15
ENDBRANCH   1  14
TORSDOF 19
