REMARK  Name = NuBBE_1420
REMARK  2 active torsions:
REMARK  status: ('A' for Active; 'I' for Inactive)
REMARK    1  A    between atoms: C_5  and  C_9
REMARK    2  A    between atoms: C_20  and  C_22
REMARK                            x       y       z     vdW  Elec       q    Type
REMARK                         _______ _______ _______ _____ _____    ______ ____
ROOT
ATOM      1  C   LIG A   1       0.460   0.017  -0.186  0.00  0.00    +0.056 C 
ATOM      2  C   LIG A   1       0.748  -1.454  -0.063  0.00  0.00    +0.056 C 
ATOM      3  C   LIG A   1      -0.556  -2.124  -0.467  0.00  0.00    +0.154 C 
ATOM      4  O   LIG A   1      -1.215  -1.202  -1.357  0.00  0.00    -0.371 OA
ATOM      5  C   LIG A   1      -0.509   0.051  -1.358  0.00  0.00    +0.167 C 
ATOM      6  C   LIG A   1       1.872  -1.639  -1.071  0.00  0.00    +0.167 C 
ATOM      7  O   LIG A   1       2.594  -0.399  -1.124  0.00  0.00    -0.371 OA
ATOM      8  C   LIG A   1       1.839   0.613  -0.423  0.00  0.00    +0.154 C 
ENDROOT
BRANCH   3   9
ATOM      9  C   LIG A   1      -1.440  -2.455   0.727  0.00  0.00    -0.015 A 
ATOM     10  C   LIG A   1      -0.981  -3.372   1.692  0.00  0.00    +0.055 A 
ATOM     11  C   LIG A   1      -1.792  -3.654   2.771  0.00  0.00    +0.167 A 
ATOM     12  C   LIG A   1      -3.031  -3.079   2.918  0.00  0.00    +0.166 A 
ATOM     13  C   LIG A   1      -3.529  -2.193   1.990  0.00  0.00    +0.050 A 
ATOM     14  C   LIG A   1      -2.725  -1.883   0.887  0.00  0.00    +0.010 A 
ATOM     15  O   LIG A   1      -3.664  -3.491   4.048  0.00  0.00    -0.453 OA
ATOM     16  C   LIG A   1      -2.678  -4.386   4.601  0.00  0.00    +0.466 C 
ATOM     17  O   LIG A   1      -1.488  -4.500   3.791  0.00  0.00    -0.453 OA
ENDBRANCH   3   9
BRANCH   8  18
ATOM     18  C   LIG A   1       1.858   1.952  -1.128  0.00  0.00    -0.015 A 
ATOM     19  C   LIG A   1       1.166   3.042  -0.569  0.00  0.00    +0.055 A 
ATOM     20  C   LIG A   1       1.213   4.255  -1.226  0.00  0.00    +0.167 A 
ATOM     21  C   LIG A   1       1.917   4.422  -2.393  0.00  0.00    +0.166 A 
ATOM     22  C   LIG A   1       2.615   3.386  -2.970  0.00  0.00    +0.050 A 
ATOM     23  C   LIG A   1       2.585   2.144  -2.327  0.00  0.00    +0.010 A 
ATOM     24  O   LIG A   1       1.837   5.692  -2.872  0.00  0.00    -0.453 OA
ATOM     25  C   LIG A   1       1.003   6.307  -1.868  0.00  0.00    +0.466 C 
ATOM     26  O   LIG A   1       0.599   5.400  -0.821  0.00  0.00    -0.453 OA
ENDBRANCH   8  18
TORSDOF 2
