REMARK  Name = NuBBE_2241
REMARK  7 active torsions:
REMARK  status: ('A' for Active; 'I' for Inactive)
REMARK    1  A    between atoms: C_1  and  C_2
REMARK    2  A    between atoms: C_2  and  C_3
REMARK    3  A    between atoms: C_11  and  O_12
REMARK    4  A    between atoms: C_14  and  C_15
REMARK    5  A    between atoms: C_16  and  O_18
REMARK    6  A    between atoms: C_20  and  C_21
REMARK    7  A    between atoms: C_20  and  C_22
REMARK                            x       y       z     vdW  Elec       q    Type
REMARK                         _______ _______ _______ _____ _____    ______ ____
ROOT
ATOM      1  C   LIG A   1      -1.874   0.106   4.084  0.00  0.00    +0.014 C 
ATOM      2  C   LIG A   1      -0.811  -0.566   3.189  0.00  0.00    +0.001 C 
ATOM      3  C   LIG A   1       0.606  -0.336   3.767  0.00  0.00    +0.014 C 
ATOM      4  C   LIG A   1      -1.095  -2.097   3.277  0.00  0.00    +0.010 C 
ATOM      5  C   LIG A   1      -0.218  -2.902   2.332  0.00  0.00    +0.003 C 
ATOM      6  C   LIG A   1      -0.570  -2.602   0.886  0.00  0.00    +0.039 C 
ATOM      7  C   LIG A   1      -0.697  -1.115   0.579  0.00  0.00    +0.116 C 
ATOM      8  O   LIG A   1      -2.014  -0.687   1.027  0.00  0.00    -0.355 OA
ATOM      9  C   LIG A   1      -0.921  -0.061   1.711  0.00  0.00    +0.133 C 
ATOM     10  C   LIG A   1      -0.627   1.379   1.353  0.00  0.00    +0.022 C 
ATOM     11  C   LIG A   1      -0.769   1.726  -0.070  0.00  0.00    +0.122 C 
ATOM     12  C   LIG A   1      -0.626   0.859  -1.087  0.00  0.00    -0.016 C 
ATOM     13  C   LIG A   1      -0.419  -0.654  -0.893  0.00  0.00    +0.051 C 
ATOM     14  C   LIG A   1      -1.400  -1.451  -1.802  0.00  0.00    +0.021 C 
ATOM     15  C   LIG A   1       1.071  -0.895  -1.333  0.00  0.00    +0.128 C 
ATOM     16  C   LIG A   1       1.376  -0.370  -2.757  0.00  0.00    +0.043 C 
ATOM     17  C   LIG A   1       0.966   1.095  -3.039  0.00  0.00    -0.008 C 
ATOM     18  C   LIG A   1       0.955   1.306  -4.570  0.00  0.00    +0.016 C 
ATOM     19  C   LIG A   1      -0.474   1.361  -2.514  0.00  0.00    +0.046 C 
ATOM     20  C   LIG A   1      -0.241   2.366   2.188  0.00  0.00    +0.019 C 
ENDROOT
BRANCH  11  21
ATOM     21  O   LIG A   1      -1.019   3.061  -0.350  0.00  0.00    -0.506 OA
ATOM     22  H   LIG A   1      -1.609   3.386   0.352  0.00  0.00    +0.292 HD
ENDBRANCH  11  21
BRANCH  15  23
ATOM     23  O   LIG A   1       1.417  -2.283  -1.360  0.00  0.00    -0.391 OA
ATOM     24  H   LIG A   1       2.365  -2.344  -1.569  0.00  0.00    +0.210 HD
ENDBRANCH  15  23
BRANCH  17  25
ATOM     25  C   LIG A   1       1.964   2.024  -2.337  0.00  0.00    -0.028 C 
ATOM     26  C   LIG A   1       2.848   2.860  -2.899  0.00  0.00    +0.004 C 
ENDBRANCH  17  25
TORSDOF 3
