REMARK  Name = NuBBE_1787
REMARK  7 active torsions:
REMARK  status: ('A' for Active; 'I' for Inactive)
REMARK    1  A    between atoms: C_6  and  C_9
REMARK    2  A    between atoms: C_7  and  O_8
REMARK    3  A    between atoms: C_11  and  O_12
REMARK    4  A    between atoms: O_12  and  C_13
REMARK    5  A    between atoms: C_14  and  O_17
REMARK    6  A    between atoms: C_19  and  O_23
REMARK    7  A    between atoms: C_21  and  O_22
REMARK                            x       y       z     vdW  Elec       q    Type
REMARK                         _______ _______ _______ _____ _____    ______ ____
ROOT
ATOM      1  O   LIG A   1      -3.206  -1.677  -0.156  0.00  0.00    -0.283 OA
ATOM      2  C   LIG A   1      -1.996  -1.563   0.026  0.00  0.00    +0.238 A 
ATOM      3  C   LIG A   1      -1.053  -2.675   0.226  0.00  0.00    +0.109 A 
ATOM      4  C   LIG A   1       0.294  -2.354   0.404  0.00  0.00    +0.146 A 
ATOM      5  O   LIG A   1       0.772  -1.065   0.405  0.00  0.00    -0.451 OA
ATOM      6  C   LIG A   1      -0.114  -0.009   0.220  0.00  0.00    +0.181 A 
ATOM      7  C   LIG A   1      -1.438  -0.188   0.044  0.00  0.00    +0.208 A 
ATOM      8  C   LIG A   1       1.243  -3.364   0.594  0.00  0.00    +0.092 A 
ATOM      9  C   LIG A   1       0.830  -4.692   0.605  0.00  0.00    +0.124 A 
ATOM     10  C   LIG A   1      -0.508  -5.028   0.433  0.00  0.00    +0.091 A 
ATOM     11  C   LIG A   1      -1.451  -4.017   0.243  0.00  0.00    +0.135 A 
ENDROOT
BRANCH   6  12
ATOM     12  C   LIG A   1       0.548   1.326   0.251  0.00  0.00    +0.025 A 
ATOM     13  C   LIG A   1       0.074   2.408  -0.517  0.00  0.00    +0.061 A 
ATOM     14  C   LIG A   1       0.696   3.659  -0.482  0.00  0.00    +0.162 A 
ATOM     15  C   LIG A   1       1.829   3.823   0.315  0.00  0.00    +0.159 A 
ATOM     16  C   LIG A   1       2.341   2.773   1.064  0.00  0.00    +0.050 A 
ATOM     17  C   LIG A   1       1.703   1.530   1.030  0.00  0.00    +0.015 A 
BRANCH  14  18
ATOM     18  O   LIG A   1       0.300   4.773  -1.180  0.00  0.00    -0.491 OA
ATOM     19  C   LIG A   1      -0.878   4.636  -1.969  0.00  0.00    +0.277 C 
ENDBRANCH  14  18
BRANCH  15  20
ATOM     20  O   LIG A   1       2.465   5.033   0.371  0.00  0.00    -0.503 OA
ATOM     21  H   LIG A   1       1.944   5.619  -0.212  0.00  0.00    +0.292 HD
ENDBRANCH  15  20
ENDBRANCH   6  12
BRANCH   7  22
ATOM     22  O   LIG A   1      -2.361   0.830  -0.123  0.00  0.00    -0.501 OA
ATOM     23  H   LIG A   1      -3.220   0.362  -0.228  0.00  0.00    +0.292 HD
ENDBRANCH   7  22
BRANCH  11  24
ATOM     24  O   LIG A   1      -2.762  -4.362   0.077  0.00  0.00    -0.506 OA
ATOM     25  H   LIG A   1      -2.868  -5.325   0.128  0.00  0.00    +0.292 HD
ENDBRANCH  11  24
BRANCH   9  26
ATOM     26  O   LIG A   1       1.715  -5.713   0.782  0.00  0.00    -0.506 OA
ATOM     27  H   LIG A   1       2.611  -5.350   0.878  0.00  0.00    +0.292 HD
ENDBRANCH   9  26
TORSDOF 6
