@<TRIPOS>MOLECULE
NuBBE_572
 52 54 0 0 0
SMALL
GASTEIGER

@<TRIPOS>ATOM
      1 C          -3.3924   -1.9900    2.0291 C.3     1  LIG1       -0.0363
      2 C          -1.9534   -1.7697    1.7880 C.2     1  LIG1       -0.0039
      3 C          -1.4309   -0.4383    1.4343 C.2     1  LIG1        0.1881
      4 O          -2.1460    0.5018    1.2120 O.2     1  LIG1       -0.2872
      5 C          -0.9170   -2.6008    1.8660 C.2     1  LIG1       -0.0345
      6 C           0.4091   -1.9347    1.6438 C.3     1  LIG1        0.1712
      7 O           1.2209   -2.1185    2.7977 O.3     1  LIG1       -0.3727
      8 C           0.0874   -0.4541    1.4783 C.2     1  LIG1        0.0407
      9 C           0.4494    0.5875    2.2642 C.2     1  LIG1       -0.0428
     10 C           0.6342    2.0420    1.8726 C.3     1  LIG1        0.0821
     11 O           1.8028    2.4540    2.6190 O.3     1  LIG1       -0.3848
     12 C          -0.5093    2.9489    2.3403 C.3     1  LIG1       -0.0324
     13 C           1.0304    2.3026    0.3978 C.3     1  LIG1       -0.0203
     14 C          -0.0287    2.0589   -0.6809 C.3     1  LIG1       -0.0466
     15 C           0.5443    1.4459   -1.9246 C.3     1  LIG1       -0.0322
     16 H           1.2495    2.1608   -2.3503 H       1  LIG1        0.0309
     17 C           0.8651   -0.0243   -2.2193 C.3     1  LIG1       -0.0317
     18 C          -0.3007    0.6732   -2.9287 C.3     1  LIG1       -0.0287
     19 C          -0.1059    0.9273   -4.4002 C.3     1  LIG1       -0.0593
     20 C          -1.7348    0.2962   -2.5994 C.3     1  LIG1       -0.0593
     21 H           1.7780   -0.1623   -2.7985 H       1  LIG1        0.0309
     22 C           0.5288   -1.3148   -1.5419 C.3     1  LIG1       -0.0400
     23 C           1.6393   -2.0241   -0.7583 C.3     1  LIG1        0.0186
     24 H           1.9905   -2.8380   -1.4150 H       1  LIG1        0.0376
     25 C           2.8989   -1.2639   -0.3834 C.3     1  LIG1       -0.0556
     26 C           1.0589   -2.7359    0.4574 C.2     1  LIG1        0.1760
     27 O           1.1268   -3.9759    0.4940 O.2     1  LIG1       -0.2933
     28 H          -3.5485   -2.8001    2.7478 H       1  LIG1        0.0279
     29 H          -3.8975   -2.2326    1.0930 H       1  LIG1        0.0279
     30 H          -3.8575   -1.0922    2.4537 H       1  LIG1        0.0279
     31 H          -1.0119   -3.6693    2.0193 H       1  LIG1        0.0612
     32 H           0.6615   -1.9888    3.5796 H       1  LIG1        0.2115
     33 H           0.6179    0.3768    3.3190 H       1  LIG1        0.0605
     34 H           1.5950    2.4045    3.5669 H       1  LIG1        0.2106
     35 H          -0.6839    2.8441    3.4185 H       1  LIG1        0.0260
     36 H          -1.4495    2.7506    1.8225 H       1  LIG1        0.0260
     37 H          -0.2563    4.0040    2.1784 H       1  LIG1        0.0260
     38 H           1.9436    1.7384    0.1728 H       1  LIG1        0.0296
     39 H           1.3519    3.3531    0.3174 H       1  LIG1        0.0296
     40 H          -0.4423    3.0379   -0.9640 H       1  LIG1        0.0269
     41 H          -0.8733    1.5010   -0.3102 H       1  LIG1        0.0269
     42 H           0.9076    1.2726   -4.6247 H       1  LIG1        0.0235
     43 H          -0.8127    1.6834   -4.7544 H       1  LIG1        0.0235
     44 H          -0.2801    0.0010   -4.9587 H       1  LIG1        0.0235
     45 H          -1.9960   -0.6472   -3.0926 H       1  LIG1        0.0235
     46 H          -2.4249    1.0672   -2.9564 H       1  LIG1        0.0235
     47 H          -1.9276    0.1611   -1.5331 H       1  LIG1        0.0235
     48 H           0.2734   -2.0028   -2.3653 H       1  LIG1        0.0275
     49 H          -0.3968   -1.2628   -0.9712 H       1  LIG1        0.0275
     50 H           2.6957   -0.4085    0.2594 H       1  LIG1        0.0236
     51 H           3.4330   -0.9208   -1.2751 H       1  LIG1        0.0236
     52 H           3.5843   -1.9247    0.1632 H       1  LIG1        0.0236
@<TRIPOS>BOND
     1     1     2    1
     2     2     3    1
     3     3     4    2
     4     2     5    2
     5     5     6    1
     6     6     7    1
     7     6     8    1
     8     3     8    1
     9     8     9    2
    10     9    10    1
    11    10    11    1
    12    10    12    1
    13    10    13    1
    14    13    14    1
    15    14    15    1
    16    15    16    1
    17    15    17    1
    18    17    18    1
    19    18    19    1
    20    15    18    1
    21    18    20    1
    22    17    21    1
    23    17    22    1
    24    22    23    1
    25    23    26    1
    26     6    26    1
    27    26    27    2
    28    23    25    1
    29    23    24    1
    30     1    28    1
    31     1    29    1
    32     1    30    1
    33     5    31    1
    34     7    32    1
    35     9    33    1
    36    11    34    1
    37    12    35    1
    38    12    36    1
    39    12    37    1
    40    13    38    1
    41    13    39    1
    42    14    40    1
    43    14    41    1
    44    19    42    1
    45    19    43    1
    46    19    44    1
    47    20    45    1
    48    20    46    1
    49    20    47    1
    50    22    48    1
    51    22    49    1
    52    25    50    1
    53    25    51    1
    54    25    52    1
