@<TRIPOS>MOLECULE
NuBBE_184
 49 48 0 0 0
SMALL
GASTEIGER

@<TRIPOS>ATOM
      1 C          -2.6056    0.3350   -1.4254 C.3     1  LIG1       -0.0438
      2 C          -1.7358    1.1274   -2.3509 C.2     1  LIG1       -0.0762
      3 C          -0.2861    1.1905   -1.8780 C.3     1  LIG1       -0.0286
      4 C          -0.2292    1.1705   -0.3439 C.3     1  LIG1       -0.0303
      5 C           1.1118    1.1166    0.3093 C.2     1  LIG1       -0.0738
      6 C           1.3879    0.4544    1.4731 C.2     1  LIG1        0.0328
      7 C           0.3288   -0.3373    2.1556 C.2     1  LIG1        0.3325
      8 O           0.4789   -0.4818    3.4379 O.3     1  LIG1       -0.4773
      9 O          -0.6690   -0.8974    1.6420 O.2     1  LIG1       -0.2455
     10 C           2.7507    0.5972    2.1081 C.3     1  LIG1       -0.0178
     11 C           3.3411   -0.5464    2.9552 C.3     1  LIG1       -0.0303
     12 C           3.4709   -1.8998    2.3004 C.2     1  LIG1       -0.0850
     13 C           4.5798   -2.6637    2.1986 C.2     1  LIG1       -0.0796
     14 C           5.9700   -2.2617    2.6127 C.3     1  LIG1       -0.0440
     15 C           4.4968   -4.0933    1.7198 C.3     1  LIG1       -0.0440
     16 C          -2.1500    1.7340   -3.4847 C.2     1  LIG1       -0.0846
     17 C          -3.5355    1.9046   -4.0962 C.3     1  LIG1       -0.0279
     18 C          -4.7931    1.3343   -3.4061 C.3     1  LIG1        0.0090
     19 C          -5.0701    1.9762   -2.0348 C.2     1  LIG1        0.1306
     20 C          -5.7329    1.1272   -0.9500 C.3     1  LIG1       -0.0061
     21 O          -4.7490    3.1415   -1.7909 O.2     1  LIG1       -0.2977
     22 H          -2.6231    0.7242   -0.4011 H       1  LIG1        0.0274
     23 H          -2.3535   -0.7260   -1.4476 H       1  LIG1        0.0274
     24 H          -3.6195    0.3599   -1.7145 H       1  LIG1        0.0274
     25 H           0.2197    2.0860   -2.2529 H       1  LIG1        0.0313
     26 H           0.2317    0.3053   -2.2636 H       1  LIG1        0.0313
     27 H          -0.7353    0.2522   -0.0754 H       1  LIG1        0.0311
     28 H          -0.8040    2.0086    0.0747 H       1  LIG1        0.0311
     29 H           1.8755    1.7047   -0.1849 H       1  LIG1        0.0577
     30 H          -0.2543   -1.1012    3.6463 H       1  LIG1        0.2954
     31 H           2.7133    1.4857    2.7569 H       1  LIG1        0.0318
     32 H           3.4860    0.8375    1.3265 H       1  LIG1        0.0318
     33 H           2.7488   -0.6790    3.8665 H       1  LIG1        0.0311
     34 H           4.3091   -0.1960    3.3259 H       1  LIG1        0.0311
     35 H           2.5240   -2.3340    1.9794 H       1  LIG1        0.0572
     36 H           6.0239   -1.2750    3.0735 H       1  LIG1        0.0274
     37 H           6.6387   -2.2568    1.7442 H       1  LIG1        0.0274
     38 H           6.3639   -2.9812    3.3382 H       1  LIG1        0.0274
     39 H           3.5001   -4.3634    1.3576 H       1  LIG1        0.0274
     40 H           4.7368   -4.7635    2.5544 H       1  LIG1        0.0274
     41 H           5.2136   -4.2837    0.9145 H       1  LIG1        0.0274
     42 H          -1.3760    2.2096   -4.0949 H       1  LIG1        0.0572
     43 H          -3.4912    1.4844   -5.1119 H       1  LIG1        0.0311
     44 H          -3.6823    2.9841   -4.2353 H       1  LIG1        0.0311
     45 H          -4.6874    0.2461   -3.3207 H       1  LIG1        0.0344
     46 H          -5.6734    1.4996   -4.0354 H       1  LIG1        0.0344
     47 H          -6.8150    1.0952   -1.0638 H       1  LIG1        0.0306
     48 H          -5.4691    1.5503    0.0269 H       1  LIG1        0.0306
     49 H          -5.3609    0.0983   -0.9353 H       1  LIG1        0.0306
@<TRIPOS>BOND
     1     1     2    1
     2     2     3    1
     3     3     4    1
     4     4     5    1
     5     5     6    2
     6     6     7    1
     7     7     8    1
     8     7     9    2
     9     6    10    1
    10    10    11    1
    11    11    12    1
    12    12    13    2
    13    13    14    1
    14    13    15    1
    15     2    16    2
    16    16    17    1
    17    17    18    1
    18    18    19    1
    19    19    20    1
    20    19    21    2
    21     1    22    1
    22     1    23    1
    23     1    24    1
    24     3    25    1
    25     3    26    1
    26     4    27    1
    27     4    28    1
    28     5    29    1
    29     8    30    1
    30    10    31    1
    31    10    32    1
    32    11    33    1
    33    11    34    1
    34    12    35    1
    35    14    36    1
    36    14    37    1
    37    14    38    1
    38    15    39    1
    39    15    40    1
    40    15    41    1
    41    16    42    1
    42    17    43    1
    43    17    44    1
    44    18    45    1
    45    18    46    1
    46    20    47    1
    47    20    48    1
    48    20    49    1
