@<TRIPOS>MOLECULE
NuBBE_1473
 57 59 0 0 0
SMALL
GASTEIGER

@<TRIPOS>ATOM
      1 O          -4.0601   -0.4980   -0.1682 O.3     1  LIG1       -0.5030
      2 C          -2.7004   -0.4369   -0.3188 C.ar    1  LIG1        0.1676
      3 C          -2.0982    0.8387   -0.3928 C.ar    1  LIG1        0.0436
      4 C          -2.8729    2.1135   -0.1073 C.3     1  LIG1       -0.0022
      5 C          -4.0069    2.4015   -1.0579 C.2     1  LIG1       -0.0807
      6 C          -5.3130    2.5582   -0.7557 C.2     1  LIG1       -0.0793
      7 C          -5.9216    2.4145    0.6157 C.3     1  LIG1       -0.0440
      8 C          -6.3095    2.9272   -1.8233 C.3     1  LIG1       -0.0440
      9 C          -0.7189    0.8920   -0.6306 C.ar    1  LIG1        0.1368
     10 O          -0.1334    2.1241   -0.7870 O.3     1  LIG1       -0.5056
     11 C          -1.9513   -1.6285   -0.4017 C.ar    1  LIG1        0.1858
     12 C          -0.5563   -1.5413   -0.5539 C.ar    1  LIG1        0.1001
     13 C           0.0392   -0.2844   -0.7009 C.ar    1  LIG1        0.0910
     14 C           1.5001   -0.2286   -0.9292 C.ar    1  LIG1        0.2011
     15 C           2.3426   -1.4186   -0.6013 C.ar    1  LIG1        0.0528
     16 C           3.7392   -1.3509   -0.4104 C.ar    1  LIG1       -0.0306
     17 C           4.4338   -2.5628   -0.1994 C.ar    1  LIG1       -0.0540
     18 C           3.7676   -3.7882   -0.1366 C.ar    1  LIG1       -0.0178
     19 C           2.3860   -3.8211   -0.2790 C.ar    1  LIG1        0.1408
     20 O           1.7059   -5.0074   -0.1954 O.3     1  LIG1       -0.5047
     21 C           1.6563   -2.6449   -0.4894 C.ar    1  LIG1        0.0929
     22 N           0.2548   -2.6929   -0.6344 N.ar    1  LIG1       -0.3481
     23 H           4.3414   -4.6931    0.0406 H       1  LIG1        0.0655
     24 C           4.5356   -0.0591   -0.4042 C.3     1  LIG1       -0.0085
     25 C           5.2635    0.1803    0.8972 C.2     1  LIG1       -0.0810
     26 C           5.1174    1.2200    1.7438 C.2     1  LIG1       -0.0793
     27 C           4.1368    2.3482    1.5670 C.3     1  LIG1       -0.0440
     28 C           5.9726    1.3276    2.9789 C.3     1  LIG1       -0.0440
     29 O           1.9534    0.7979   -1.4084 O.2     1  LIG1       -0.2864
     30 O          -2.4285   -2.9175   -0.3469 O.3     1  LIG1       -0.4895
     31 C          -3.8294   -3.1152   -0.2106 C.3     1  LIG1        0.0791
     32 H          -4.4366    0.0712   -0.8636 H       1  LIG1        0.2923
     33 H          -2.2126    2.9881   -0.1467 H       1  LIG1        0.0358
     34 H          -3.2017    2.0664    0.9351 H       1  LIG1        0.0358
     35 H          -3.6906    2.5227   -2.0947 H       1  LIG1        0.0575
     36 H          -5.1946    2.2309    1.4087 H       1  LIG1        0.0274
     37 H          -6.6279    1.5773    0.6217 H       1  LIG1        0.0274
     38 H          -6.4682    3.3248    0.8847 H       1  LIG1        0.0274
     39 H          -5.8363    3.0840   -2.7978 H       1  LIG1        0.0274
     40 H          -6.8204    3.8576   -1.5526 H       1  LIG1        0.0274
     41 H          -7.0595    2.1376   -1.9329 H       1  LIG1        0.0274
     42 H           0.7835    1.9783   -1.1215 H       1  LIG1        0.2922
     43 H           5.5150   -2.5543   -0.0668 H       1  LIG1        0.0622
     44 H           2.3499   -5.7292   -0.1019 H       1  LIG1        0.2922
     45 H          -0.1824   -3.5635   -0.3389 H       1  LIG1        0.1661
     46 H           3.9291    0.8118   -0.6247 H       1  LIG1        0.0356
     47 H           5.2607   -0.0980   -1.2267 H       1  LIG1        0.0356
     48 H           6.0157   -0.5684    1.1392 H       1  LIG1        0.0575
     49 H           3.3045    2.0962    0.9060 H       1  LIG1        0.0274
     50 H           4.6465    3.2301    1.1660 H       1  LIG1        0.0274
     51 H           3.6904    2.6195    2.5299 H       1  LIG1        0.0274
     52 H           6.6248    0.4577    3.1102 H       1  LIG1        0.0274
     53 H           5.3440    1.4045    3.8720 H       1  LIG1        0.0274
     54 H           6.6076    2.2175    2.9210 H       1  LIG1        0.0274
     55 H          -4.3766   -2.7047   -1.0663 H       1  LIG1        0.0660
     56 H          -4.1937   -2.7194    0.7429 H       1  LIG1        0.0660
     57 H          -4.0164   -4.1930   -0.2024 H       1  LIG1        0.0660
@<TRIPOS>BOND
     1     1     2    1
     2     2     3   ar
     3     3     4    1
     4     4     5    1
     5     5     6    2
     6     6     7    1
     7     6     8    1
     8     3     9   ar
     9     9    10    1
    10     2    11   ar
    11    11    12   ar
    12    12    13   ar
    13     9    13   ar
    14    13    14   ar
    15    14    15   ar
    16    15    16   ar
    17    16    17   ar
    18    17    18   ar
    19    18    19   ar
    20    19    20    1
    21    19    21   ar
    22    15    21   ar
    23    21    22   ar
    24    12    22   ar
    25    18    23    1
    26    16    24    1
    27    24    25    1
    28    25    26    2
    29    26    27    1
    30    26    28    1
    31    14    29    2
    32    11    30    1
    33    30    31    1
    34     1    32    1
    35     4    33    1
    36     4    34    1
    37     5    35    1
    38     7    36    1
    39     7    37    1
    40     7    38    1
    41     8    39    1
    42     8    40    1
    43     8    41    1
    44    10    42    1
    45    17    43    1
    46    20    44    1
    47    22    45    1
    48    24    46    1
    49    24    47    1
    50    25    48    1
    51    27    49    1
    52    27    50    1
    53    27    51    1
    54    28    52    1
    55    28    53    1
    56    28    54    1
    57    31    55    1
    58    31    56    1
    59    31    57    1
