REMARK  Name = NuBBE_177
REMARK  5 active torsions:
REMARK  status: ('A' for Active; 'I' for Inactive)
REMARK    1  A    between atoms: C_4  and  C_14
REMARK    2  A    between atoms: C_10  and  O_11
REMARK    3  A    between atoms: O_11  and  C_12
REMARK    4  A    between atoms: C_17  and  O_20
REMARK    5  A    between atoms: O_20  and  C_21
REMARK                            x       y       z     vdW  Elec       q    Type
REMARK                         _______ _______ _______ _____ _____    ______ ____
ROOT
ATOM      1  O   LIG A   1      -4.076  -1.047   0.041  0.00  0.00    -0.287 OA
ATOM      2  C   LIG A   1      -2.860  -0.982   0.074  0.00  0.00    +0.193 A 
ATOM      3  C   LIG A   1      -2.169   0.318   0.077  0.00  0.00    +0.098 A 
ATOM      4  C   LIG A   1      -0.830   0.358   0.122  0.00  0.00    +0.139 A 
ATOM      5  O   LIG A   1      -0.024  -0.764   0.182  0.00  0.00    -0.455 OA
ATOM      6  C   LIG A   1      -0.621  -1.994   0.155  0.00  0.00    +0.143 A 
ATOM      7  C   LIG A   1      -1.999  -2.173   0.103  0.00  0.00    +0.064 A 
ATOM      8  C   LIG A   1      -2.538  -3.458   0.072  0.00  0.00    +0.019 A 
ATOM      9  C   LIG A   1      -1.677  -4.560   0.088  0.00  0.00    +0.046 A 
ATOM     10  C   LIG A   1      -0.289  -4.382   0.138  0.00  0.00    +0.124 A 
ATOM     11  C   LIG A   1       0.235  -3.091   0.177  0.00  0.00    +0.092 A 
ENDROOT
BRANCH   4  12
ATOM     12  C   LIG A   1      -0.080   1.626   0.112  0.00  0.00    +0.018 A 
ATOM     13  C   LIG A   1      -0.573   2.743  -0.571  0.00  0.00    +0.015 A 
ATOM     14  C   LIG A   1       0.138   3.942  -0.592  0.00  0.00    +0.046 A 
ATOM     15  C   LIG A   1       1.371   4.041   0.050  0.00  0.00    +0.120 A 
ATOM     16  C   LIG A   1       1.879   2.932   0.727  0.00  0.00    +0.046 A 
ATOM     17  C   LIG A   1       1.163   1.732   0.755  0.00  0.00    +0.015 A 
BRANCH  15  18
ATOM     18  O   LIG A   1       2.157   5.160   0.075  0.00  0.00    -0.495 OA
ATOM     19  C   LIG A   1       1.665   6.275  -0.660  0.00  0.00    +0.277 C 
ENDBRANCH  15  18
ENDBRANCH   4  12
BRANCH  10  20
ATOM     20  O   LIG A   1       0.456  -5.530   0.141  0.00  0.00    -0.495 OA
ATOM     21  C   LIG A   1       1.871  -5.358   0.156  0.00  0.00    +0.277 C 
ENDBRANCH  10  20
TORSDOF 3
