REMARK  Name = NuBBE_658
REMARK  3 active torsions:
REMARK  status: ('A' for Active; 'I' for Inactive)
REMARK    1  A    between atoms: C_5  and  C_6
REMARK    2  A    between atoms: C_6  and  O_7
REMARK    3  A    between atoms: C_6  and  C_8
REMARK                            x       y       z     vdW  Elec       q    Type
REMARK                         _______ _______ _______ _____ _____    ______ ____
ROOT
ATOM      1  O   LIG A   1      -3.444  -0.041  -0.063  0.00  0.00    -0.297 OA
ATOM      2  C   LIG A   1      -2.214  -0.056  -0.051  0.00  0.00    +0.133 C 
ATOM      3  C   LIG A   1      -1.441  -1.347   0.049  0.00  0.00    +0.075 C 
ATOM      4  C   LIG A   1      -0.251  -1.357  -0.900  0.00  0.00    +0.013 C 
ATOM      5  C   LIG A   1       0.623  -0.091  -0.882  0.00  0.00    +0.018 C 
ATOM      6  C   LIG A   1      -0.237   1.186  -0.935  0.00  0.00    +0.013 C 
ATOM      7  C   LIG A   1      -1.412   1.218   0.030  0.00  0.00    +0.075 C 
ENDROOT
BRANCH   5   8
ATOM      8  C   LIG A   1       1.752  -0.112   0.178  0.00  0.00    +0.115 C 
ATOM      9  C   LIG A   1       1.357  -0.123   1.646  0.00  0.00    +0.038 C 
BRANCH   8  10
ATOM     10  O   LIG A   1       2.623   1.000  -0.046  0.00  0.00    -0.392 OA
ATOM     11  H   LIG A   1       2.233   1.790   0.365  0.00  0.00    +0.210 HD
ENDBRANCH   8  10
ENDBRANCH   5   8
TORSDOF 2
