@<TRIPOS>MOLECULE
NuBBE_16
 50 50 0 0 0
SMALL
GASTEIGER

@<TRIPOS>ATOM
      1 O           0.1217    1.7057   -5.5478 O.3     1  LIG1       -0.5050
      2 C          -0.4177    0.8216   -4.6620 C.ar    1  LIG1        0.1378
      3 C          -0.7937    1.1572   -3.3698 C.ar    1  LIG1        0.0797
      4 N          -1.3416    0.2440   -2.5492 N.ar    1  LIG1       -0.2532
      5 C          -1.5413   -1.0268   -2.9812 C.ar    1  LIG1        0.0418
      6 C          -1.1795   -1.4326   -4.2524 C.ar    1  LIG1       -0.0369
      7 C          -0.6076   -0.4875   -5.1020 C.ar    1  LIG1       -0.0167
      8 C          -2.2158   -1.9652   -2.0034 C.3     1  LIG1       -0.0104
      9 C          -2.0120   -1.4107   -0.6021 C.3     1  LIG1       -0.0476
     10 C          -2.5483   -2.2419    0.5438 C.3     1  LIG1       -0.0527
     11 C          -2.2957   -1.6058    1.9183 C.3     1  LIG1       -0.0527
     12 C          -0.8377   -1.5452    2.3910 C.3     1  LIG1       -0.0464
     13 C           0.1620   -0.7879    1.5201 C.3     1  LIG1        0.0058
     14 C          -0.0785    0.7188    1.4332 C.2     1  LIG1        0.1334
     15 C           0.9531    1.5540    0.6853 C.3     1  LIG1        0.0058
     16 C           2.0075    2.2883    1.5254 C.3     1  LIG1       -0.0464
     17 C           3.0580    1.4425    2.2686 C.3     1  LIG1       -0.0529
     18 C           2.5194    0.6138    3.4319 C.3     1  LIG1       -0.0559
     19 C           3.5191   -0.3314    4.0738 C.3     1  LIG1       -0.0653
     20 O          -1.1153    1.2808    1.9076 O.2     1  LIG1       -0.2974
     21 C          -0.6635    2.5247   -2.7782 C.3     1  LIG1       -0.0188
     22 H           0.1486    2.5855   -5.1384 H       1  LIG1        0.2922
     23 H          -1.3426   -2.4525   -4.5818 H       1  LIG1        0.0637
     24 H          -0.3260   -0.7673   -6.1125 H       1  LIG1        0.0655
     25 H          -1.7501   -2.9571   -2.0670 H       1  LIG1        0.0328
     26 H          -3.2783   -2.0470   -2.2357 H       1  LIG1        0.0328
     27 H          -2.3920   -0.3867   -0.5010 H       1  LIG1        0.0269
     28 H          -0.9404   -1.3501   -0.5572 H       1  LIG1        0.0269
     29 H          -2.1334   -3.2541    0.5178 H       1  LIG1        0.0265
     30 H          -3.6325   -2.3246    0.4090 H       1  LIG1        0.0265
     31 H          -2.8495   -2.1980    2.6592 H       1  LIG1        0.0265
     32 H          -2.7448   -0.6067    1.9509 H       1  LIG1        0.0265
     33 H          -0.4723   -2.5671    2.5320 H       1  LIG1        0.0269
     34 H          -0.8307   -1.0883    3.3954 H       1  LIG1        0.0269
     35 H           0.3114   -1.2180    0.5324 H       1  LIG1        0.0342
     36 H           1.1536   -1.0425    1.8863 H       1  LIG1        0.0342
     37 H           0.3824    2.3262    0.1495 H       1  LIG1        0.0342
     38 H           1.4218    0.9456   -0.1015 H       1  LIG1        0.0342
     39 H           1.5209    2.9772    2.2264 H       1  LIG1        0.0269
     40 H           2.5643    2.9240    0.8225 H       1  LIG1        0.0269
     41 H           3.8130    2.1290    2.6732 H       1  LIG1        0.0265
     42 H           3.5736    0.8059    1.5395 H       1  LIG1        0.0265
     43 H           1.7491   -0.0354    3.0869 H       1  LIG1        0.0263
     44 H           2.0038    1.2311    4.1732 H       1  LIG1        0.0263
     45 H           4.1430   -0.8374    3.3291 H       1  LIG1        0.0230
     46 H           2.9733   -1.1167    4.6134 H       1  LIG1        0.0230
     47 H           4.1556    0.1912    4.7891 H       1  LIG1        0.0230
     48 H           0.3834    2.8388   -2.7489 H       1  LIG1        0.0294
     49 H          -1.0409    2.5319   -1.7482 H       1  LIG1        0.0294
     50 H          -1.2572    3.2466   -3.3449 H       1  LIG1        0.0294
@<TRIPOS>BOND
     1     1     2    1
     2     2     3   ar
     3     3     4   ar
     4     4     5   ar
     5     5     6   ar
     6     6     7   ar
     7     2     7   ar
     8     5     8    1
     9     8     9    1
    10     9    10    1
    11    10    11    1
    12    11    12    1
    13    12    13    1
    14    13    14    1
    15    14    15    1
    16    15    16    1
    17    16    17    1
    18    17    18    1
    19    18    19    1
    20    14    20    2
    21     3    21    1
    22     1    22    1
    23     6    23    1
    24     7    24    1
    25     8    25    1
    26     8    26    1
    27     9    27    1
    28     9    28    1
    29    10    29    1
    30    10    30    1
    31    11    31    1
    32    11    32    1
    33    12    33    1
    34    12    34    1
    35    13    35    1
    36    13    36    1
    37    15    37    1
    38    15    38    1
    39    16    39    1
    40    16    40    1
    41    17    41    1
    42    17    42    1
    43    18    43    1
    44    18    44    1
    45    19    45    1
    46    19    46    1
    47    19    47    1
    48    21    48    1
    49    21    49    1
    50    21    50    1
