@<TRIPOS>MOLECULE
NuBBE_1333
 47 49 0 0 0
SMALL
GASTEIGER

@<TRIPOS>ATOM
      1 O          -3.4460    1.9856    0.2367 O.2     1  LIG1       -0.2869
      2 C          -2.2629    1.7092    0.1484 C.ar    1  LIG1        0.1966
      3 C          -1.8809    0.2930    0.0193 C.ar    1  LIG1        0.0288
      4 C          -0.5905   -0.0499   -0.0245 C.ar    1  LIG1        0.1395
      5 C          -0.1667   -1.4612   -0.1182 C.ar    1  LIG1        0.0245
      6 C           1.0343   -1.8128   -0.7344 C.ar    1  LIG1       -0.0054
      7 C           1.4273   -3.1532   -0.8327 C.ar    1  LIG1        0.1658
      8 O           2.6089   -3.5421   -1.4275 O.3     1  LIG1       -0.4913
      9 C           3.4747   -2.5103   -1.8948 C.3     1  LIG1        0.0790
     10 C           0.5930   -4.1769   -0.3109 C.ar    1  LIG1        0.2035
     11 O           1.0688   -5.4546   -0.5038 O.3     1  LIG1       -0.4885
     12 C           0.2192   -6.5521   -0.2005 C.3     1  LIG1        0.0791
     13 C          -0.5998   -3.8218    0.3538 C.ar    1  LIG1        0.1658
     14 O          -1.3826   -4.7937    0.9235 O.3     1  LIG1       -0.4913
     15 C          -2.5794   -4.3939    1.5862 C.3     1  LIG1        0.0790
     16 C          -0.9513   -2.4721    0.4390 C.ar    1  LIG1       -0.0054
     17 O           0.4505    0.8480    0.0325 O.2     1  LIG1       -0.4544
     18 C          -1.1516    2.6876    0.1586 C.ar    1  LIG1        0.1057
     19 C           0.1507    2.1837    0.1032 C.ar    1  LIG1        0.1462
     20 C           1.2530    3.0340    0.1108 C.ar    1  LIG1        0.0233
     21 C           1.0603    4.4067    0.1831 C.ar    1  LIG1        0.1271
     22 O           2.0683    5.3310    0.2061 O.3     1  LIG1       -0.4949
     23 C           3.2884    4.8779    0.7884 C.3     1  LIG1        0.0788
     24 C          -0.2387    4.9223    0.2011 C.ar    1  LIG1        0.0227
     25 C          -1.3547    4.0722    0.1910 C.ar    1  LIG1        0.1379
     26 O          -2.6392    4.5351    0.2599 O.3     1  LIG1       -0.4942
     27 C          -2.8852    5.8180   -0.2996 C.3     1  LIG1        0.0788
     28 H          -2.7067   -0.4044   -0.0364 H       1  LIG1        0.0693
     29 H           1.6515   -1.0204   -1.1446 H       1  LIG1        0.0662
     30 H           4.3851   -2.9728   -2.2872 H       1  LIG1        0.0660
     31 H           3.7736   -1.8390   -1.0811 H       1  LIG1        0.0660
     32 H           3.0099   -1.9499   -2.7138 H       1  LIG1        0.0660
     33 H          -0.7263   -6.4958   -0.7518 H       1  LIG1        0.0660
     34 H           0.0620   -6.6400    0.8791 H       1  LIG1        0.0660
     35 H           0.7236   -7.4694   -0.5186 H       1  LIG1        0.0660
     36 H          -3.0409   -5.2835    2.0219 H       1  LIG1        0.0660
     37 H          -3.2910   -3.9600    0.8747 H       1  LIG1        0.0660
     38 H          -2.3690   -3.7007    2.4088 H       1  LIG1        0.0660
     39 H          -1.8532   -2.1793    0.9623 H       1  LIG1        0.0662
     40 H           2.2425    2.5952    0.0454 H       1  LIG1        0.0691
     41 H           3.9720    5.7295    0.8417 H       1  LIG1        0.0660
     42 H           3.7691    4.1126    0.1710 H       1  LIG1        0.0660
     43 H           3.1209    4.5115    1.8075 H       1  LIG1        0.0660
     44 H          -0.3533    6.0001    0.2531 H       1  LIG1        0.0691
     45 H          -3.9686    5.9675   -0.3289 H       1  LIG1        0.0660
     46 H          -2.5077    5.8822   -1.3258 H       1  LIG1        0.0660
     47 H          -2.4609    6.6070    0.3280 H       1  LIG1        0.0660
@<TRIPOS>BOND
     1     1     2    2
     2     2     3   ar
     3     3     4   ar
     4     4     5    1
     5     5     6   ar
     6     6     7   ar
     7     7     8    1
     8     8     9    1
     9     7    10   ar
    10    10    11    1
    11    11    12    1
    12    10    13   ar
    13    13    14    1
    14    14    15    1
    15    13    16   ar
    16     5    16   ar
    17     4    17   ar
    18     2    18   ar
    19    18    19   ar
    20    17    19   ar
    21    19    20   ar
    22    20    21   ar
    23    21    22    1
    24    22    23    1
    25    21    24   ar
    26    24    25   ar
    27    18    25   ar
    28    25    26    1
    29    26    27    1
    30     3    28    1
    31     6    29    1
    32     9    30    1
    33     9    31    1
    34     9    32    1
    35    12    33    1
    36    12    34    1
    37    12    35    1
    38    15    36    1
    39    15    37    1
    40    15    38    1
    41    16    39    1
    42    20    40    1
    43    23    41    1
    44    23    42    1
    45    23    43    1
    46    24    44    1
    47    27    45    1
    48    27    46    1
    49    27    47    1
