REMARK  Name = NuBBE_1783
REMARK  3 active torsions:
REMARK  status: ('A' for Active; 'I' for Inactive)
REMARK    1  A    between atoms: O_1  and  C_2
REMARK    2  A    between atoms: O_1  and  C_3
REMARK    3  A    between atoms: C_5  and  C_10
REMARK                            x       y       z     vdW  Elec       q    Type
REMARK                         _______ _______ _______ _____ _____    ______ ____
ROOT
ATOM      1  C   LIG A   1      -1.485  -1.429   0.175  0.00  0.00    +0.130 A 
ATOM      2  C   LIG A   1      -0.918  -0.110   0.100  0.00  0.00    +0.092 A 
ATOM      3  C   LIG A   1       0.409   0.049   0.015  0.00  0.00    +0.144 A 
ATOM      4  O   LIG A   1       1.276  -1.071  -0.019  0.00  0.00    -0.422 OA
ATOM      5  C   LIG A   1       0.779  -2.341   0.051  0.00  0.00    +0.341 A 
ATOM      6  O   LIG A   1       1.503  -3.332   0.032  0.00  0.00    -0.245 OA
ATOM      7  C   LIG A   1      -0.681  -2.501   0.150  0.00  0.00    +0.137 A 
ENDROOT
BRANCH   3   8
ATOM      8  C   LIG A   1       1.081   1.358  -0.073  0.00  0.00    +0.036 A 
ATOM      9  C   LIG A   1       2.301   1.504  -0.743  0.00  0.00    +0.014 A 
ATOM     10  C   LIG A   1       2.922   2.752  -0.808  0.00  0.00    +0.020 A 
ATOM     11  C   LIG A   1       2.307   3.827  -0.191  0.00  0.00    +0.111 A 
ATOM     12  N   LIG A   1       1.137   3.735   0.474  0.00  0.00    -0.263 NA
ATOM     13  C   LIG A   1       0.560   2.509   0.520  0.00  0.00    +0.122 A 
ENDBRANCH   3   8
BRANCH   1  14
ATOM     14  O   LIG A   1      -2.853  -1.411   0.267  0.00  0.00    -0.495 OA
ATOM     15  C   LIG A   1      -3.531  -2.660   0.341  0.00  0.00    +0.277 C 
ENDBRANCH   1  14
TORSDOF 2
