@<TRIPOS>MOLECULE
NuBBE_204
 84 87 0 0 0
SMALL
GASTEIGER

@<TRIPOS>ATOM
      1 C           1.7566   -1.0317   -5.0270 C.3     1  LIG1        0.0790
      2 O           2.1766   -2.3895   -4.8836 O.3     1  LIG1       -0.4913
      3 C           2.4878   -2.7702   -3.6025 C.ar    1  LIG1        0.1658
      4 C           2.9818   -1.8815   -2.6586 C.ar    1  LIG1       -0.0021
      5 C           3.2204   -2.3078   -1.3570 C.ar    1  LIG1        0.0661
      6 C           3.6166   -1.3522   -0.3006 C.2     1  LIG1        0.3395
      7 O           3.0802   -0.1509   -0.6465 O.3     1  LIG1       -0.4581
      8 C           3.3041    0.9036    0.2853 C.3     1  LIG1        0.1262
      9 C           3.9053    2.1226   -0.4313 C.3     1  LIG1        0.1534
     10 C           4.1387    3.2495    0.5719 C.3     1  LIG1        0.1398
     11 H           4.4987    2.8800    1.5359 H       1  LIG1        0.0675
     12 C           2.7461    3.9015    0.6355 C.3     1  LIG1        0.1880
     13 H           2.8129    4.9532    0.9334 H       1  LIG1        0.0937
     14 O           2.2334    3.8199   -0.7079 O.3     1  LIG1       -0.3456
     15 C           2.9759    2.8147   -1.4258 C.3     1  LIG1        0.0853
     16 O           1.9126    3.1791    1.5484 O.3     1  LIG1       -0.3460
     17 C           0.6012    3.7444    1.6673 C.3     1  LIG1        0.0796
     18 C          -0.2980    2.9378    2.6351 C.3     1  LIG1        0.1144
     19 H          -1.2175    3.5259    2.7608 H       1  LIG1        0.0647
     20 O          -0.6557    1.6732    2.0418 O.3     1  LIG1       -0.3313
     21 C          -1.6818    0.9900    2.7853 C.3     1  LIG1        0.2308
     22 H          -2.5650    1.6294    2.9037 H       1  LIG1        0.1084
     23 C          -1.1345    0.6298    4.1928 C.3     1  LIG1        0.1454
     24 H          -0.3513   -0.1344    4.1134 H       1  LIG1        0.0683
     25 C          -0.5787    1.8789    4.8914 C.3     1  LIG1        0.1152
     26 H          -1.4083    2.5093    5.2376 H       1  LIG1        0.0648
     27 C           0.3587    2.7040    4.0012 C.3     1  LIG1        0.1120
     28 H           1.3110    2.1721    3.8936 H       1  LIG1        0.0647
     29 O           0.6392    3.9489    4.6518 O.3     1  LIG1       -0.3865
     30 O           0.1155    1.4974    6.0967 O.3     1  LIG1       -0.3864
     31 O          -2.1567    0.0667    5.0345 O.3     1  LIG1       -0.3829
     32 O          -2.0861   -0.2301    2.1319 O.3     1  LIG1       -0.4606
     33 C          -2.9881   -0.1543    1.1000 C.ar    1  LIG1        0.1312
     34 C          -3.7081   -1.3221    0.8503 C.ar    1  LIG1        0.0258
     35 C          -4.5929   -1.4381   -0.2387 C.ar    1  LIG1        0.1686
     36 O          -5.3638   -2.5540   -0.4551 O.3     1  LIG1       -0.4912
     37 C          -4.9040   -3.7309    0.1914 C.3     1  LIG1        0.0790
     38 C          -4.7598   -0.3648   -1.1201 C.ar    1  LIG1        0.2037
     39 C          -4.0722    0.8405   -0.8580 C.ar    1  LIG1        0.1686
     40 O          -4.1313    2.0021   -1.5903 O.3     1  LIG1       -0.4912
     41 C          -4.8940    2.1006   -2.7877 C.3     1  LIG1        0.0790
     42 C          -3.2022    0.9354    0.2638 C.ar    1  LIG1        0.0258
     43 O          -5.6828   -0.3907   -2.1244 O.3     1  LIG1       -0.4885
     44 C          -5.8191   -1.5016   -2.9994 C.3     1  LIG1        0.0791
     45 O           5.1508    4.1341    0.0481 O.3     1  LIG1       -0.3837
     46 O           5.1259    1.7345   -1.0801 O.3     1  LIG1       -0.3801
     47 O           4.2038   -1.6482    0.6979 O.2     1  LIG1       -0.2450
     48 C           3.0663   -3.6336   -0.9935 C.ar    1  LIG1       -0.0021
     49 C           2.6012   -4.5621   -1.9251 C.ar    1  LIG1        0.1658
     50 O           2.4530   -5.8935   -1.6218 O.3     1  LIG1       -0.4913
     51 C           2.2330   -6.1802   -0.2357 C.3     1  LIG1        0.0790
     52 C           2.2889   -4.1086   -3.2233 C.ar    1  LIG1        0.2011
     53 O           1.6585   -4.9400   -4.1141 O.3     1  LIG1       -0.5009
     54 H           0.8713   -0.8381   -4.4110 H       1  LIG1        0.0660
     55 H           1.4878   -0.8614   -6.0729 H       1  LIG1        0.0660
     56 H           2.5562   -0.3211   -4.7905 H       1  LIG1        0.0660
     57 H           3.1771   -0.8435   -2.9041 H       1  LIG1        0.0663
     58 H           3.9961    0.5948    1.0761 H       1  LIG1        0.0728
     59 H           2.3376    1.1002    0.7498 H       1  LIG1        0.0728
     60 H           3.5565    3.3399   -2.1972 H       1  LIG1        0.0591
     61 H           2.2881    2.1479   -1.9535 H       1  LIG1        0.0591
     62 H           0.1245    3.7515    0.6806 H       1  LIG1        0.0587
     63 H           0.6981    4.7753    2.0256 H       1  LIG1        0.0587
     64 H           0.8512    3.7372    5.5828 H       1  LIG1        0.2100
     65 H           0.8522    0.9088    5.8469 H       1  LIG1        0.2100
     66 H          -1.7879    0.0311    5.9386 H       1  LIG1        0.2102
     67 H          -3.5839   -2.1402    1.5507 H       1  LIG1        0.0692
     68 H          -5.0593   -3.6612    1.2726 H       1  LIG1        0.0660
     69 H          -3.8511   -3.9114   -0.0513 H       1  LIG1        0.0660
     70 H          -5.4878   -4.5778   -0.1734 H       1  LIG1        0.0660
     71 H          -4.2238    2.1835   -3.6473 H       1  LIG1        0.0660
     72 H          -5.5370    2.9798   -2.7140 H       1  LIG1        0.0660
     73 H          -5.5888    1.3143   -3.0336 H       1  LIG1        0.0660
     74 H          -2.6815    1.8687    0.4585 H       1  LIG1        0.0692
     75 H          -4.8758   -2.0038   -3.2341 H       1  LIG1        0.0660
     76 H          -6.2260   -1.1210   -3.9481 H       1  LIG1        0.0660
     77 H          -6.5686   -2.1853   -2.5987 H       1  LIG1        0.0660
     78 H           4.7948    4.5725   -0.7479 H       1  LIG1        0.2101
     79 H           5.8127    2.3627   -0.7780 H       1  LIG1        0.2105
     80 H           3.2936   -3.9082    0.0285 H       1  LIG1        0.0663
     81 H           1.2594   -5.7776    0.0605 H       1  LIG1        0.0660
     82 H           3.0198   -5.8056    0.4299 H       1  LIG1        0.0660
     83 H           2.2242   -7.2636   -0.0937 H       1  LIG1        0.0660
     84 H           0.8676   -5.2566   -3.6444 H       1  LIG1        0.2924
@<TRIPOS>BOND
     1     1     2    1
     2     2     3    1
     3     3     4   ar
     4     4     5   ar
     5     5     6    1
     6     6     7    1
     7     7     8    1
     8     8     9    1
     9     9    10    1
    10    10    11    1
    11    10    12    1
    12    12    14    1
    13    14    15    1
    14    16    17    1
    15    17    18    1
    16    18    19    1
    17    18    20    1
    18    20    21    1
    19    21    23    1
    20    23    24    1
    21    23    25    1
    22    25    27    1
    23    27    28    1
    24    18    27    1
    25    27    29    1
    26    23    31    1
    27    32    33    1
    28    33    34   ar
    29    34    35   ar
    30    35    36    1
    31    36    37    1
    32    35    38   ar
    33    38    39   ar
    34    39    40    1
    35    40    41    1
    36    39    42   ar
    37    33    42   ar
    38    38    43    1
    39    43    44    1
    40    10    45    1
    41    15     9    1
    42     9    46    1
    43     6    47    2
    44     5    48   ar
    45    48    49   ar
    46    49    50    1
    47    50    51    1
    48    49    52   ar
    49     3    52   ar
    50    52    53    1
    51    12    16    1
    52    12    13    1
    53    21    32    1
    54    21    22    1
    55    25    30    1
    56    25    26    1
    57     1    54    1
    58     1    55    1
    59     1    56    1
    60     4    57    1
    61     8    58    1
    62     8    59    1
    63    15    60    1
    64    15    61    1
    65    17    62    1
    66    17    63    1
    67    29    64    1
    68    30    65    1
    69    31    66    1
    70    34    67    1
    71    37    68    1
    72    37    69    1
    73    37    70    1
    74    41    71    1
    75    41    72    1
    76    41    73    1
    77    42    74    1
    78    44    75    1
    79    44    76    1
    80    44    77    1
    81    45    78    1
    82    46    79    1
    83    48    80    1
    84    51    81    1
    85    51    82    1
    86    51    83    1
    87    53    84    1
