@<TRIPOS>MOLECULE
NuBBE_583
 46 48 0 0 0
SMALL
GASTEIGER

@<TRIPOS>ATOM
      1 O          -0.1209    0.2318    3.8454 O.3     1  LIG1       -0.3891
      2 C           0.9852   -0.3703    3.1603 C.3     1  LIG1        0.0861
      3 H           1.7527   -0.5466    3.9234 H       1  LIG1        0.0621
      4 C           0.5615   -1.6851    2.5255 C.3     1  LIG1        0.0022
      5 C          -0.3216   -1.4966    1.2892 C.3     1  LIG1        0.0654
      6 H          -0.3564   -2.4789    0.8057 H       1  LIG1        0.0598
      7 C          -1.7756   -1.0767    1.5640 C.3     1  LIG1        0.0111
      8 C          -2.6350   -0.8902    0.2930 C.3     1  LIG1        0.1091
      9 H          -2.2331   -0.0401   -0.2709 H       1  LIG1        0.0738
     10 O          -3.9759   -0.4850    0.6956 O.3     1  LIG1       -0.4579
     11 C          -4.9223   -1.3994    1.0254 C.2     1  LIG1        0.3319
     12 C          -4.6293   -2.8090    0.6953 C.2     1  LIG1        0.0187
     13 C          -3.6120   -3.1406   -0.1078 C.2     1  LIG1       -0.0738
     14 C          -2.7036   -2.0896   -0.6538 C.3     1  LIG1        0.0032
     15 O          -5.9817   -1.0926    1.5518 O.2     1  LIG1       -0.2456
     16 O           0.3253   -0.6352    0.3607 O.3     1  LIG1       -0.3665
     17 C           0.6496    0.6709    0.8543 C.3     1  LIG1        0.1057
     18 H          -0.2766    1.2195    1.0638 H       1  LIG1        0.0667
     19 C           1.5320    0.6190    2.1216 C.3     1  LIG1        0.1107
     20 H           2.5491    0.3111    1.8491 H       1  LIG1        0.0648
     21 O           1.6146    1.9145    2.7394 O.3     1  LIG1       -0.3863
     22 C           1.3527    1.4293   -0.2534 C.2     1  LIG1       -0.0525
     23 C           1.6585    0.9399   -1.4687 C.2     1  LIG1       -0.0560
     24 C           2.3135    1.6937   -2.5465 C.ar    1  LIG1       -0.0252
     25 C           3.0531    0.9942   -3.5105 C.ar    1  LIG1       -0.0546
     26 C           3.6664    1.6707   -4.5680 C.ar    1  LIG1       -0.0612
     27 C           3.5375    3.0532   -4.6787 C.ar    1  LIG1       -0.0617
     28 C           2.7848    3.7569   -3.7417 C.ar    1  LIG1       -0.0612
     29 C           2.1698    3.0796   -2.6864 C.ar    1  LIG1       -0.0546
     30 H          -0.3342   -0.3397    4.6062 H       1  LIG1        0.2099
     31 H           0.0552   -2.3288    3.2524 H       1  LIG1        0.0316
     32 H           1.4767   -2.2015    2.2046 H       1  LIG1        0.0316
     33 H          -2.2441   -1.8010    2.2407 H       1  LIG1        0.0326
     34 H          -1.8094   -0.1223    2.1012 H       1  LIG1        0.0326
     35 H          -5.3300   -3.5420    1.0749 H       1  LIG1        0.0686
     36 H          -3.4557   -4.1746   -0.4009 H       1  LIG1        0.0575
     37 H          -3.1073   -1.7730   -1.6247 H       1  LIG1        0.0343
     38 H          -1.7132   -2.5062   -0.8500 H       1  LIG1        0.0343
     39 H           0.8009    1.9869    3.2816 H       1  LIG1        0.2100
     40 H           1.6171    2.4529    0.0049 H       1  LIG1        0.0599
     41 H           1.4209   -0.0949   -1.7068 H       1  LIG1        0.0621
     42 H           3.1631   -0.0860   -3.4440 H       1  LIG1        0.0623
     43 H           4.2431    1.1175   -5.3044 H       1  LIG1        0.0618
     44 H           4.0174    3.5818   -5.4977 H       1  LIG1        0.0618
     45 H           2.6692    4.8336   -3.8315 H       1  LIG1        0.0618
     46 H           1.5681    3.6490   -1.9831 H       1  LIG1        0.0623
@<TRIPOS>BOND
     1     1     2    1
     2     2     3    1
     3     2     4    1
     4     4     5    1
     5     7     8    1
     6     8     9    1
     7     8    10    1
     8    10    11    1
     9    11    12    1
    10    12    13    2
    11    13    14    1
    12     8    14    1
    13    11    15    2
    14     5    16    1
    15    16    17    1
    16    17    18    1
    17    17    19    1
    18     2    19    1
    19    17    22    1
    20    22    23    2
    21    23    24    1
    22    24    25   ar
    23    25    26   ar
    24    26    27   ar
    25    27    28   ar
    26    28    29   ar
    27    24    29   ar
    28     5     7    1
    29     5     6    1
    30    19    21    1
    31    19    20    1
    32     1    30    1
    33     4    31    1
    34     4    32    1
    35     7    33    1
    36     7    34    1
    37    12    35    1
    38    13    36    1
    39    14    37    1
    40    14    38    1
    41    21    39    1
    42    22    40    1
    43    23    41    1
    44    25    42    1
    45    26    43    1
    46    27    44    1
    47    28    45    1
    48    29    46    1
