@<TRIPOS>MOLECULE
NuBBE_1610
 34 36 0 0 0
SMALL
GASTEIGER

@<TRIPOS>ATOM
      1 O          -0.4862    0.3565   -0.1407 O.3     1  LIG1       -0.4865
      2 C          -1.1004   -0.9271    0.0909 C.3     1  LIG1        0.1081
      3 C          -2.4155   -1.0185   -0.6482 C.2     1  LIG1       -0.0484
      4 C          -2.7946   -1.9112   -1.5930 C.2     1  LIG1       -0.0765
      5 C          -1.9925   -3.0876   -2.0908 C.3     1  LIG1       -0.0439
      6 C          -4.1184   -1.7673   -2.3069 C.3     1  LIG1       -0.0439
      7 C           0.7183    0.6181    0.5371 C.ar    1  LIG1        0.1423
      8 C           1.1725    1.9737    0.5712 C.ar    1  LIG1        0.0600
      9 C           2.3300    2.3081    1.3003 C.ar    1  LIG1        0.1461
     10 C           3.0552    1.3831    2.0332 C.ar    1  LIG1        0.0245
     11 C           2.6256    0.0724    1.9374 C.ar    1  LIG1        0.1418
     12 C           1.5384   -0.3616    1.1655 C.ar    1  LIG1        0.0626
     13 C           1.6429   -1.7872    1.2228 C.ar    1  LIG1       -0.0126
     14 C           2.6186   -2.0960    2.1399 C.ar    1  LIG1        0.0933
     15 O           3.2271   -0.9678    2.5681 O.2     1  LIG1       -0.4627
     16 O           2.8460    3.6266    1.3356 O.2     1  LIG1       -0.4219
     17 C           2.2506    4.6718    0.6584 C.ar    1  LIG1        0.3372
     18 O           2.6805    5.8119    0.6792 O.2     1  LIG1       -0.2452
     19 C           1.0376    4.3279   -0.0925 C.ar    1  LIG1        0.0237
     20 C           0.5252    3.0870   -0.1378 C.ar    1  LIG1       -0.0408
     21 H          -1.2862   -1.0755    1.1633 H       1  LIG1        0.0742
     22 H          -0.4453   -1.7026   -0.2914 H       1  LIG1        0.0742
     23 H          -3.1320   -0.2538   -0.3516 H       1  LIG1        0.0605
     24 H          -0.9973   -3.1647   -1.6510 H       1  LIG1        0.0274
     25 H          -1.8681   -3.0269   -3.1777 H       1  LIG1        0.0274
     26 H          -2.5203   -4.0232   -1.8678 H       1  LIG1        0.0274
     27 H          -4.7335   -0.9618   -1.8951 H       1  LIG1        0.0274
     28 H          -4.6990   -2.6948   -2.2566 H       1  LIG1        0.0274
     29 H          -3.9361   -1.5380   -3.3636 H       1  LIG1        0.0274
     30 H           3.9410    1.6507    2.6037 H       1  LIG1        0.0692
     31 H           1.0944   -2.5304    0.6694 H       1  LIG1        0.0656
     32 H           3.0064   -3.0206    2.5384 H       1  LIG1        0.1030
     33 H           0.5839    5.1537   -0.6339 H       1  LIG1        0.0689
     34 H          -0.3688    2.8750   -0.7156 H       1  LIG1        0.0628
@<TRIPOS>BOND
     1     1     2    1
     2     2     3    1
     3     3     4    2
     4     4     5    1
     5     4     6    1
     6     1     7    1
     7     7     8   ar
     8     8     9   ar
     9     9    10   ar
    10    10    11   ar
    11    11    12   ar
    12     7    12   ar
    13    12    13   ar
    14    13    14   ar
    15    14    15   ar
    16    11    15   ar
    17     9    16   ar
    18    16    17   ar
    19    17    18    2
    20    17    19   ar
    21    19    20   ar
    22     8    20   ar
    23     2    21    1
    24     2    22    1
    25     3    23    1
    26     5    24    1
    27     5    25    1
    28     5    26    1
    29     6    27    1
    30     6    28    1
    31     6    29    1
    32    10    30    1
    33    13    31    1
    34    14    32    1
    35    19    33    1
    36    20    34    1
