REMARK  Name = NuBBE_1120
REMARK  10 active torsions:
REMARK  status: ('A' for Active; 'I' for Inactive)
REMARK    1  A    between atoms: C_1  and  C_2
REMARK    2  A    between atoms: C_5  and  C_26
REMARK    3  A    between atoms: C_6  and  O_22
REMARK    4  A    between atoms: C_10  and  C_11
REMARK    5  A    between atoms: C_10  and  C_21
REMARK    6  A    between atoms: C_15  and  C_19
REMARK    7  A    between atoms: O_22  and  C_23
REMARK    8  A    between atoms: C_23  and  C_24
REMARK    9  A    between atoms: C_31  and  C_33
REMARK   10  A    between atoms: C_35  and  O_39
REMARK                            x       y       z     vdW  Elec       q    Type
REMARK                         _______ _______ _______ _____ _____    ______ ____
ROOT
ATOM      1  C   LIG A   1      -1.976   2.566   0.519  0.00  0.00    +0.018 C 
ATOM      2  C   LIG A   1      -1.051   2.154  -0.673  0.00  0.00    +0.042 C 
ATOM      3  C   LIG A   1       0.191   1.439  -0.136  0.00  0.00    +0.125 C 
ATOM      4  O   LIG A   1       0.522   1.781   1.224  0.00  0.00    -0.351 OA
ATOM      5  C   LIG A   1       0.464  -0.085  -0.453  0.00  0.00    +0.041 C 
ATOM      6  C   LIG A   1       1.494  -0.696   0.575  0.00  0.00    +0.186 C 
ATOM      7  C   LIG A   1       0.919  -1.234   1.894  0.00  0.00    +0.050 C 
ATOM      8  C   LIG A   1      -0.606  -1.430   1.933  0.00  0.00    +0.016 C 
ATOM      9  C   LIG A   1      -1.092  -2.155   3.243  0.00  0.00    +0.031 C 
ATOM     10  C   LIG A   1      -0.391  -3.491   3.556  0.00  0.00    +0.019 C 
ATOM     11  C   LIG A   1      -2.599  -2.434   3.186  0.00  0.00    +0.162 C 
ATOM     12  C   LIG A   1      -3.278  -2.506   1.876  0.00  0.00    +0.043 C 
ATOM     13  C   LIG A   1      -2.619  -2.346   0.724  0.00  0.00    -0.016 C 
ATOM     14  C   LIG A   1      -1.139  -2.014   0.591  0.00  0.00    -0.006 C 
ATOM     15  C   LIG A   1      -0.870  -0.945  -0.569  0.00  0.00    +0.011 C 
ATOM     16  C   LIG A   1      -2.130  -0.106  -0.930  0.00  0.00    +0.006 C 
ATOM     17  C   LIG A   1      -1.854   1.231  -1.601  0.00  0.00    +0.014 C 
ATOM     18  C   LIG A   1      -0.501  -3.377   0.209  0.00  0.00    +0.016 C 
ATOM     19  O   LIG A   1      -3.271  -2.673   4.190  0.00  0.00    -0.292 OA
ATOM     20  C   LIG A   1      -0.862  -1.225   4.459  0.00  0.00    +0.019 C 
ATOM     21  C   LIG A   1       1.144  -0.153  -1.852  0.00  0.00    +0.018 C 
ATOM     22  C   LIG A   1       1.332   2.394   0.212  0.00  0.00    +0.260 C 
ATOM     23  C   LIG A   1       1.182   3.865   0.167  0.00  0.00    +0.340 C 
ATOM     24  O   LIG A   1       0.161   4.354  -0.587  0.00  0.00    -0.454 OA
ATOM     25  C   LIG A   1      -0.655   3.490  -1.414  0.00  0.00    +0.222 C 
ATOM     26  O   LIG A   1       1.951   4.592   0.777  0.00  0.00    -0.248 OA
ENDROOT
BRANCH  25  27
ATOM     27  C   LIG A   1      -0.045   3.481  -2.782  0.00  0.00    +0.079 C 
ATOM     28  C   LIG A   1       1.006   2.870  -3.328  0.00  0.00    +0.061 C 
ATOM     29  C   LIG A   1       1.135   3.194  -4.757  0.00  0.00    +0.334 C 
ATOM     30  O   LIG A   1       0.194   4.228  -4.967  0.00  0.00    -0.428 OA
ATOM     31  C   LIG A   1      -0.596   4.326  -3.861  0.00  0.00    +0.341 C 
ATOM     32  O   LIG A   1      -1.591   5.006  -3.773  0.00  0.00    -0.245 OA
BRANCH  29  33
ATOM     33  O   LIG A   1       2.450   3.590  -5.070  0.00  0.00    -0.354 OA
ATOM     34  H   LIG A   1       2.849   3.986  -4.280  0.00  0.00    +0.214 HD
ENDBRANCH  29  33
ENDBRANCH  25  27
BRANCH   6  35
ATOM     35  O   LIG A   1       2.261  -1.786   0.004  0.00  0.00    -0.461 OA
BRANCH  35  36
ATOM     36  C   LIG A   1       3.600  -1.577  -0.164  0.00  0.00    +0.304 C 
ATOM     37  C   LIG A   1       4.292  -2.885  -0.383  0.00  0.00    +0.136 C 
ATOM     38  O   LIG A   1       4.159  -0.489  -0.155  0.00  0.00    -0.251 OA
ENDBRANCH  35  36
ENDBRANCH   6  35
TORSDOF 4
