@<TRIPOS>MOLECULE
NuBBE_448
 50 52 0 0 0
SMALL
GASTEIGER

@<TRIPOS>ATOM
      1 H          -1.2759   -3.1469    0.5730 H       1  LIG1        0.0399
      2 C          -0.9393   -3.0001   -0.4648 C.3     1  LIG1        0.0214
      3 C          -0.9704   -1.5235   -0.8846 C.3     1  LIG1        0.0485
      4 C          -0.1322   -0.6698    0.0762 C.3     1  LIG1        0.2082
      5 H          -0.6162   -0.6200    1.0576 H       1  LIG1        0.1059
      6 O           1.1842   -1.2451    0.2623 O.2     1  LIG1       -0.4701
      7 C           1.4073   -2.5415   -0.1329 C.2     1  LIG1        0.0984
      8 C           0.4778   -3.4204   -0.5720 C.2     1  LIG1        0.0780
      9 C           0.8855   -4.7551   -1.0994 C.2     1  LIG1        0.3384
     10 O           2.1608   -4.6121   -1.5781 O.3     1  LIG1       -0.4646
     11 C           2.8557   -5.8161   -1.8946 C.3     1  LIG1        0.0820
     12 O           0.1943   -5.7461   -1.1325 O.2     1  LIG1       -0.2452
     13 O          -0.0477    0.6607   -0.4709 O.3     1  LIG1       -0.3095
     14 C           0.8027    1.5619    0.2604 C.3     1  LIG1        0.1918
     15 H           1.8050    1.1244    0.3516 H       1  LIG1        0.0939
     16 O           0.2537    1.7666    1.5751 O.3     1  LIG1       -0.3404
     17 C           0.8555    2.8913    2.2445 C.3     1  LIG1        0.1130
     18 H           1.9492    2.7847    2.2227 H       1  LIG1        0.0647
     19 C           0.4170    4.2203    1.5883 C.3     1  LIG1        0.1119
     20 H          -0.4197    4.6813    2.1264 H       1  LIG1        0.0647
     21 C           0.0154    3.9987    0.1193 C.3     1  LIG1        0.1141
     22 H           0.1554    4.9439   -0.4205 H       1  LIG1        0.0648
     23 O          -1.3720    3.6706    0.0156 O.3     1  LIG1       -0.3864
     24 O           1.5235    5.1396    1.6368 O.3     1  LIG1       -0.3865
     25 C           0.4179    2.8519    3.7128 C.3     1  LIG1        0.0730
     26 O          -1.0052    2.8908    3.8136 O.3     1  LIG1       -0.3924
     27 C           0.9095    2.9174   -0.5221 C.3     1  LIG1        0.1342
     28 H           0.6155    2.7678   -1.5666 H       1  LIG1        0.0671
     29 O           2.2833    3.3616   -0.5412 O.3     1  LIG1       -0.3841
     30 H          -0.4923   -1.4234   -1.8784 H       1  LIG1        0.0381
     31 C          -2.0023   -3.5483   -1.3652 C.2     1  LIG1       -0.0789
     32 C          -2.8828   -2.5772   -1.6618 C.2     1  LIG1       -0.0733
     33 C          -2.4571   -1.2496   -1.0644 C.3     1  LIG1        0.0837
     34 H          -2.9887   -1.0951   -0.1188 H       1  LIG1        0.0461
     35 C          -2.7338   -0.0983   -2.0112 C.2     1  LIG1        0.3121
     36 O          -2.9948    1.0444   -1.3406 O.3     1  LIG1       -0.4802
     37 O          -2.7529   -0.1239   -3.2260 O.2     1  LIG1       -0.2503
     38 H           2.4655   -2.7658   -0.0732 H       1  LIG1        0.1029
     39 H           3.6016   -5.5854   -2.6593 H       1  LIG1        0.0661
     40 H           2.1971   -6.6054   -2.2678 H       1  LIG1        0.0661
     41 H           3.3776   -6.1461   -0.9925 H       1  LIG1        0.0661
     42 H          -1.4995    2.7766    0.3881 H       1  LIG1        0.2100
     43 H           1.2516    5.8814    2.2117 H       1  LIG1        0.2100
     44 H           0.7516    1.9265    4.1916 H       1  LIG1        0.0584
     45 H           0.8248    3.7024    4.2684 H       1  LIG1        0.0584
     46 H          -1.3293    2.1170    3.3152 H       1  LIG1        0.2095
     47 H           2.3401    4.2427   -0.1167 H       1  LIG1        0.2101
     48 H          -2.1142   -4.5879   -1.6481 H       1  LIG1        0.0575
     49 H          -3.7783   -2.7154   -2.2549 H       1  LIG1        0.0577
     50 H          -3.1744    1.6941   -2.0523 H       1  LIG1        0.2951
@<TRIPOS>BOND
     1     2     3    1
     2     3     4    1
     3     4     6    1
     4     6     7    1
     5     7     8    2
     6     9    10    1
     7    10    11    1
     8     9    12    2
     9    13    14    1
    10    14    15    1
    11    14    16    1
    12    16    17    1
    13    17    19    1
    14    19    20    1
    15    19    21    1
    16    19    24    1
    17    25    26    1
    18    14    27    1
    19    21    27    1
    20     8     2    1
    21     2    31    1
    22    31    32    2
    23    32    33    1
    24     3    33    1
    25    35    36    1
    26    35    37    2
    27     1     2    1
    28     3    30    1
    29     8     9    1
    30     4    13    1
    31     4     5    1
    32    17    25    1
    33    17    18    1
    34    33    35    1
    35    33    34    1
    36    21    23    1
    37    21    22    1
    38    27    29    1
    39    27    28    1
    40     7    38    1
    41    11    39    1
    42    11    40    1
    43    11    41    1
    44    23    42    1
    45    24    43    1
    46    25    44    1
    47    25    45    1
    48    26    46    1
    49    29    47    1
    50    31    48    1
    51    32    49    1
    52    36    50    1
