REMARK  Name = NuBBE_1151
REMARK  15 active torsions:
REMARK  status: ('A' for Active; 'I' for Inactive)
REMARK    1  A    between atoms: C_1  and  C_2
REMARK    2  A    between atoms: C_2  and  C_4
REMARK    3  A    between atoms: C_2  and  C_28
REMARK    4  A    between atoms: C_8  and  C_9
REMARK    5  A    between atoms: C_14  and  C_15
REMARK    6  A    between atoms: C_14  and  C_25
REMARK    7  A    between atoms: C_26  and  C_27
REMARK    8  A    between atoms: C_28  and  C_29
REMARK    9  A    between atoms: C_29  and  C_30
REMARK   10  A    between atoms: C_30  and  C_31
REMARK   11  A    between atoms: C_31  and  C_32
REMARK   12  A    between atoms: C_31  and  C_33
REMARK   13  A    between atoms: C_33  and  O_34
REMARK   14  A    between atoms: O_34  and  C_35
REMARK   15  A    between atoms: C_35  and  C_36
REMARK                            x       y       z     vdW  Elec       q    Type
REMARK                         _______ _______ _______ _____ _____    ______ ____
ROOT
ATOM      1  C   LIG A   1       0.535   1.047  -1.774  0.00  0.00    -0.002 C 
ATOM      2  C   LIG A   1       1.218  -0.284  -2.113  0.00  0.00    +0.005 C 
ATOM      3  C   LIG A   1       1.309  -0.964  -0.757  0.00  0.00    +0.008 C 
ATOM      4  C   LIG A   1       1.781   0.136   0.231  0.00  0.00    -0.023 C 
ATOM      5  C   LIG A   1       3.311  -0.037   0.406  0.00  0.00    +0.012 C 
ATOM      6  C   LIG A   1       1.048  -0.047   1.605  0.00  0.00    +0.002 C 
ATOM      7  C   LIG A   1       1.293  -1.399   2.291  0.00  0.00    +0.005 C 
ATOM      8  C   LIG A   1       0.436  -1.500   3.548  0.00  0.00    +0.005 C 
ATOM      9  C   LIG A   1       0.921  -0.518   4.627  0.00  0.00    +0.009 C 
ATOM     10  C   LIG A   1       0.112  -0.637   5.951  0.00  0.00    +0.027 C 
ATOM     11  C   LIG A   1       0.453  -1.970   6.660  0.00  0.00    +0.019 C 
ATOM     12  C   LIG A   1       0.550   0.512   6.855  0.00  0.00    +0.139 C 
ATOM     13  C   LIG A   1       0.399   1.915   6.335  0.00  0.00    +0.075 C 
ATOM     14  C   LIG A   1       0.340   2.016   4.824  0.00  0.00    +0.015 C 
ATOM     15  C   LIG A   1       1.063   0.920   4.064  0.00  0.00    -0.019 C 
ATOM     16  C   LIG A   1       2.437   1.216   3.504  0.00  0.00    +0.015 C 
ATOM     17  C   LIG A   1       1.277   1.149   2.533  0.00  0.00    -0.019 C 
ATOM     18  C   LIG A   1       0.948   2.485   1.869  0.00  0.00    +0.008 C 
ATOM     19  C   LIG A   1       0.429   2.348   0.438  0.00  0.00    +0.008 C 
ATOM     20  O   LIG A   1       0.956   0.332   8.006  0.00  0.00    -0.297 OA
ATOM     21  C   LIG A   1      -1.414  -0.589   5.774  0.00  0.00    +0.019 C 
ATOM     22  C   LIG A   1       1.350   1.513  -0.490  0.00  0.00    -0.023 C 
ATOM     23  C   LIG A   1       2.579   2.370  -0.878  0.00  0.00    +0.012 C 
ENDROOT
BRANCH   1  25
ATOM     24  C   LIG A   1      -0.292   3.337  -2.662  0.00  0.00    +0.008 C 
ATOM     25  C   LIG A   1       0.387   2.005  -3.004  0.00  0.00    -0.010 C 
BRANCH  25  26
ATOM     26  C   LIG A   1      -0.384   1.379  -4.209  0.00  0.00    +0.008 C 
BRANCH  26  27
ATOM     27  C   LIG A   1      -1.887   1.152  -3.985  0.00  0.00    +0.031 C 
BRANCH  27  28
ATOM     28  C   LIG A   1      -2.502   0.226  -5.024  0.00  0.00    -0.071 C 
ATOM     29  C   LIG A   1      -3.062   0.751  -6.130  0.00  0.00    +0.008 C 
BRANCH  28  30
ATOM     30  C   LIG A   1      -2.448  -1.270  -4.711  0.00  0.00    +0.049 C 
ATOM     31  C   LIG A   1      -3.260  -1.574  -3.438  0.00  0.00    +0.015 C 
BRANCH  30  32
ATOM     32  C   LIG A   1      -2.911  -2.199  -5.859  0.00  0.00    +0.239 C 
BRANCH  32  33
ATOM     33  O   LIG A   1      -2.833  -3.579  -5.458  0.00  0.00    -0.464 OA
BRANCH  33  34
ATOM     34  C   LIG A   1      -1.653  -4.210  -5.700  0.00  0.00    +0.304 C 
ATOM     35  C   LIG A   1      -1.696  -5.568  -5.063  0.00  0.00    +0.136 C 
ATOM     36  O   LIG A   1      -0.690  -3.743  -6.269  0.00  0.00    -0.251 OA
ENDBRANCH  33  34
ENDBRANCH  32  33
ENDBRANCH  30  32
ENDBRANCH  28  30
ENDBRANCH  27  28
ENDBRANCH  26  27
ENDBRANCH  25  26
ENDBRANCH   1  25
TORSDOF 8
