REMARK  Name = NuBBE_1732
REMARK  7 active torsions:
REMARK  status: ('A' for Active; 'I' for Inactive)
REMARK    1  A    between atoms: C_1  and  C_2
REMARK    2  A    between atoms: C_1  and  C_7
REMARK    3  A    between atoms: C_2  and  C_3
REMARK    4  A    between atoms: C_4  and  C_5
REMARK    5  A    between atoms: C_4  and  C_6
REMARK    6  A    between atoms: C_7  and  C_8
REMARK    7  A    between atoms: C_14  and  C_15
REMARK                            x       y       z     vdW  Elec       q    Type
REMARK                         _______ _______ _______ _____ _____    ______ ____
ROOT
ATOM      1  C   LIG A   1       1.204  -0.089   1.288  0.00  0.00    -0.022 C 
ATOM      2  C   LIG A   1       1.232   0.313   2.780  0.00  0.00    +0.012 C 
ATOM      3  C   LIG A   1       1.907   0.965   0.314  0.00  0.00    +0.021 C 
ATOM      4  C   LIG A   1       3.265   0.307   0.761  0.00  0.00    +0.012 C 
ATOM      5  C   LIG A   1       2.428  -1.012   0.837  0.00  0.00    -0.000 C 
ATOM      6  C   LIG A   1       2.325  -1.633  -0.575  0.00  0.00    +0.031 C 
ATOM      7  C   LIG A   1       1.897  -0.563  -1.560  0.00  0.00    -0.027 C 
ATOM      8  C   LIG A   1       1.674   0.702  -1.151  0.00  0.00    -0.073 C 
ATOM      9  C   LIG A   1       1.265   1.836  -2.029  0.00  0.00    +0.039 C 
ENDROOT
BRANCH   1  10
ATOM     10  C   LIG A   1      -0.198  -0.648   0.944  0.00  0.00    +0.011 C 
BRANCH  10  11
ATOM     11  C   LIG A   1      -1.295   0.419   1.004  0.00  0.00    +0.028 C 
BRANCH  11  12
ATOM     12  C   LIG A   1      -2.646  -0.173   0.699  0.00  0.00    -0.028 C 
ATOM     13  C   LIG A   1      -3.251  -0.254  -0.501  0.00  0.00    -0.080 C 
ATOM     14  C   LIG A   1      -2.656   0.208  -1.803  0.00  0.00    +0.038 C 
ATOM     15  C   LIG A   1      -4.623  -0.862  -0.634  0.00  0.00    +0.038 C 
ENDBRANCH  11  12
ENDBRANCH  10  11
ENDBRANCH   1  10
TORSDOF 3
