@<TRIPOS>MOLECULE
NuBBE_2131
 45 45 0 0 0
SMALL
GASTEIGER

@<TRIPOS>ATOM
      1 C           2.2521    2.6735    4.1737 C.3     1  LIG1       -0.0653
      2 C           1.7072    1.6265    3.2218 C.3     1  LIG1       -0.0559
      3 C           2.5517    0.3577    3.1563 C.3     1  LIG1       -0.0533
      4 C           2.0253   -0.7093    2.1827 C.3     1  LIG1       -0.0531
      5 C           0.7286   -1.4239    2.5917 C.3     1  LIG1       -0.0531
      6 C          -0.5758   -0.6198    2.5973 C.3     1  LIG1       -0.0531
      7 C          -0.8656    0.1911    1.3264 C.3     1  LIG1       -0.0530
      8 C          -1.2845   -0.6961    0.1507 C.3     1  LIG1       -0.0528
      9 C          -1.5465    0.1420   -1.1062 C.3     1  LIG1       -0.0502
     10 C          -2.0536   -0.6807   -2.3113 C.3     1  LIG1       -0.0410
     11 C          -2.3784    0.2230   -3.5049 C.3     1  LIG1       -0.0502
     12 C          -1.1339    0.8784   -4.1134 C.3     1  LIG1       -0.0528
     13 C          -0.0003   -0.1065   -4.4002 C.3     1  LIG1       -0.0530
     14 C           0.2254   -1.1691   -3.3249 C.3     1  LIG1       -0.0528
     15 C          -1.0703   -1.7609   -2.7795 C.3     1  LIG1       -0.0502
     16 H           1.5723    3.5341    4.1883 H       1  LIG1        0.0230
     17 H           3.2436    3.0168    3.8682 H       1  LIG1        0.0230
     18 H           2.3105    2.2777    5.1924 H       1  LIG1        0.0230
     19 H           1.6032    2.0583    2.2211 H       1  LIG1        0.0263
     20 H           0.7107    1.4055    3.5888 H       1  LIG1        0.0263
     21 H           2.6525   -0.0851    4.1551 H       1  LIG1        0.0265
     22 H           3.5660    0.6304    2.8353 H       1  LIG1        0.0265
     23 H           2.8030   -1.4843    2.1106 H       1  LIG1        0.0265
     24 H           1.9386   -0.2960    1.1716 H       1  LIG1        0.0265
     25 H           0.8692   -1.8505    3.5957 H       1  LIG1        0.0265
     26 H           0.5929   -2.2828    1.9249 H       1  LIG1        0.0265
     27 H          -0.5991    0.0447    3.4664 H       1  LIG1        0.0265
     28 H          -1.4086   -1.3083    2.7794 H       1  LIG1        0.0265
     29 H          -0.0057    0.7991    1.0410 H       1  LIG1        0.0265
     30 H          -1.6770    0.8953    1.5439 H       1  LIG1        0.0265
     31 H          -2.1899   -1.2537    0.4190 H       1  LIG1        0.0265
     32 H          -0.4924   -1.4257   -0.0454 H       1  LIG1        0.0265
     33 H          -0.6252    0.6753   -1.3652 H       1  LIG1        0.0268
     34 H          -2.2913    0.9139   -0.8706 H       1  LIG1        0.0268
     35 H          -2.9855   -1.1808   -2.0072 H       1  LIG1        0.0301
     36 H          -3.0925    1.0043   -3.2178 H       1  LIG1        0.0268
     37 H          -2.8745   -0.3702   -4.2879 H       1  LIG1        0.0268
     38 H          -0.7733    1.6656   -3.4412 H       1  LIG1        0.0265
     39 H          -1.4097    1.3839   -5.0472 H       1  LIG1        0.0265
     40 H           0.9306    0.4557   -4.5456 H       1  LIG1        0.0265
     41 H          -0.2055   -0.6098   -5.3525 H       1  LIG1        0.0265
     42 H           0.8085   -0.7409   -2.5016 H       1  LIG1        0.0265
     43 H           0.8396   -1.9751   -3.7443 H       1  LIG1        0.0265
     44 H          -0.8456   -2.4621   -1.9688 H       1  LIG1        0.0268
     45 H          -1.5468   -2.3615   -3.5669 H       1  LIG1        0.0268
@<TRIPOS>BOND
     1     1     2    1
     2     2     3    1
     3     3     4    1
     4     4     5    1
     5     5     6    1
     6     6     7    1
     7     7     8    1
     8     8     9    1
     9     9    10    1
    10    10    11    1
    11    11    12    1
    12    12    13    1
    13    13    14    1
    14    14    15    1
    15    10    15    1
    16     1    16    1
    17     1    17    1
    18     1    18    1
    19     2    19    1
    20     2    20    1
    21     3    21    1
    22     3    22    1
    23     4    23    1
    24     4    24    1
    25     5    25    1
    26     5    26    1
    27     6    27    1
    28     6    28    1
    29     7    29    1
    30     7    30    1
    31     8    31    1
    32     8    32    1
    33     9    33    1
    34     9    34    1
    35    10    35    1
    36    11    36    1
    37    11    37    1
    38    12    38    1
    39    12    39    1
    40    13    40    1
    41    13    41    1
    42    14    42    1
    43    14    43    1
    44    15    44    1
    45    15    45    1
