@<TRIPOS>MOLECULE
NuBBE_2395
 41 43 0 0 0
SMALL
GASTEIGER

@<TRIPOS>ATOM
      1 O          -0.8555   -0.4279   -0.4345 O.3     1  LIG1       -0.5053
      2 C           0.5101   -0.3743   -0.3073 C.ar    1  LIG1        0.1382
      3 C           1.2623   -1.5729   -0.2987 C.ar    1  LIG1        0.0586
      4 C           2.6601   -1.5007   -0.2741 C.ar    1  LIG1        0.1324
      5 O           3.4910   -2.5877   -0.2972 O.3     1  LIG1       -0.4815
      6 C           2.9247   -3.9080   -0.4252 C.3     1  LIG1        0.1235
      7 C           1.4192   -3.9734   -0.3684 C.2     1  LIG1       -0.0408
      8 C           0.6372   -2.8937   -0.2973 C.2     1  LIG1       -0.0478
      9 C           3.4058   -4.4833   -1.7630 C.3     1  LIG1       -0.0215
     10 C           3.4907   -4.7363    0.7357 C.3     1  LIG1       -0.0215
     11 C           3.2963   -0.2603   -0.2242 C.ar    1  LIG1       -0.0184
     12 C           2.5430    0.9188   -0.2043 C.ar    1  LIG1       -0.0439
     13 C           1.1395    0.8796   -0.2405 C.ar    1  LIG1        0.0638
     14 C           0.4297    2.1998   -0.3090 C.2     1  LIG1        0.1896
     15 O           1.0214    3.1764   -0.7540 O.2     1  LIG1       -0.2872
     16 C          -0.9620    2.3282    0.2227 C.2     1  LIG1       -0.0137
     17 C          -1.7226    3.3845   -0.1152 C.2     1  LIG1       -0.0510
     18 C          -3.0861    3.6425    0.3889 C.ar    1  LIG1       -0.0249
     19 C          -3.4818    3.2890    1.6864 C.ar    1  LIG1       -0.0546
     20 C          -4.7616    3.6028    2.1581 C.ar    1  LIG1       -0.0612
     21 C          -5.6612    4.2841    1.3423 C.ar    1  LIG1       -0.0617
     22 C          -5.2796    4.6565    0.0560 C.ar    1  LIG1       -0.0612
     23 C          -3.9989    4.3422   -0.4153 C.ar    1  LIG1       -0.0546
     24 H          -1.0776   -1.1887   -0.9976 H       1  LIG1        0.2922
     25 H           0.9625   -4.9603   -0.3696 H       1  LIG1        0.0611
     26 H          -0.4363   -3.0015   -0.2128 H       1  LIG1        0.0624
     27 H           3.0516   -3.8705   -2.6008 H       1  LIG1        0.0271
     28 H           3.0541   -5.5097   -1.9189 H       1  LIG1        0.0271
     29 H           4.5004   -4.4831   -1.8220 H       1  LIG1        0.0271
     30 H           3.1964   -4.3031    1.6997 H       1  LIG1        0.0271
     31 H           4.5865   -4.7412    0.7213 H       1  LIG1        0.0271
     32 H           3.1419   -5.7751    0.7081 H       1  LIG1        0.0271
     33 H           4.3829   -0.2082   -0.2088 H       1  LIG1        0.0654
     34 H           3.0647    1.8748   -0.1773 H       1  LIG1        0.0627
     35 H          -1.3177    1.5561    0.8902 H       1  LIG1        0.0656
     36 H          -1.3381    4.1276   -0.8139 H       1  LIG1        0.0625
     37 H          -2.7928    2.7842    2.3581 H       1  LIG1        0.0623
     38 H          -5.0493    3.3256    3.1691 H       1  LIG1        0.0618
     39 H          -6.6527    4.5334    1.7124 H       1  LIG1        0.0618
     40 H          -5.9752    5.2000   -0.5789 H       1  LIG1        0.0618
     41 H          -3.7230    4.6540   -1.4204 H       1  LIG1        0.0623
@<TRIPOS>BOND
     1     1     2    1
     2     2     3   ar
     3     3     4   ar
     4     4     5    1
     5     5     6    1
     6     6     7    1
     7     7     8    2
     8     3     8    1
     9     6     9    1
    10     6    10    1
    11     4    11   ar
    12    11    12   ar
    13    12    13   ar
    14     2    13   ar
    15    13    14    1
    16    14    15    2
    17    14    16    1
    18    16    17    2
    19    17    18    1
    20    18    19   ar
    21    19    20   ar
    22    20    21   ar
    23    21    22   ar
    24    22    23   ar
    25    18    23   ar
    26     1    24    1
    27     7    25    1
    28     8    26    1
    29     9    27    1
    30     9    28    1
    31     9    29    1
    32    10    30    1
    33    10    31    1
    34    10    32    1
    35    11    33    1
    36    12    34    1
    37    16    35    1
    38    17    36    1
    39    19    37    1
    40    20    38    1
    41    21    39    1
    42    22    40    1
    43    23    41    1
