REMARK  Name = NuBBE_1098
REMARK  12 active torsions:
REMARK  status: ('A' for Active; 'I' for Inactive)
REMARK    1  A    between atoms: C_5  and  C_6
REMARK    2  A    between atoms: C_8  and  O_10
REMARK    3  A    between atoms: O_10  and  C_11
REMARK    4  A    between atoms: C_11  and  C_12
REMARK    5  A    between atoms: C_14  and  O_16
REMARK    6  A    between atoms: O_16  and  C_17
REMARK    7  A    between atoms: C_17  and  C_18
REMARK    8  A    between atoms: C_20  and  C_21
REMARK    9  A    between atoms: C_26  and  C_27
REMARK   10  A    between atoms: C_34  and  C_36
REMARK   11  A    between atoms: C_43  and  C_44
REMARK   12  A    between atoms: C_43  and  C_45
REMARK                            x       y       z     vdW  Elec       q    Type
REMARK                         _______ _______ _______ _____ _____    ______ ____
ROOT
ATOM      1  O   LIG A   1      -2.355   4.443  -2.718  0.00  0.00    -0.292 OA
ATOM      2  C   LIG A   1      -2.062   3.502  -1.980  0.00  0.00    +0.162 C 
ATOM      3  C   LIG A   1      -2.615   2.170  -2.313  0.00  0.00    +0.043 C 
ATOM      4  C   LIG A   1      -2.444   1.098  -1.530  0.00  0.00    -0.016 C 
ATOM      5  C   LIG A   1      -1.682   1.083  -0.200  0.00  0.00    -0.003 C 
ATOM      6  C   LIG A   1      -2.850   1.200   0.806  0.00  0.00    +0.016 C 
ATOM      7  C   LIG A   1      -0.664   2.260  -0.276  0.00  0.00    +0.056 C 
ATOM      8  C   LIG A   1       0.329   2.227   0.892  0.00  0.00    +0.222 C 
ATOM      9  C   LIG A   1       1.349   1.061   0.631  0.00  0.00    +0.226 C 
ATOM     10  C   LIG A   1       0.685  -0.354   0.449  0.00  0.00    +0.045 C 
ATOM     11  C   LIG A   1       0.944  -1.142   1.781  0.00  0.00    +0.018 C 
ATOM     12  C   LIG A   1      -0.827  -0.274  -0.132  0.00  0.00    +0.012 C 
ATOM     13  C   LIG A   1      -1.537  -1.590   0.190  0.00  0.00    +0.006 C 
ATOM     14  C   LIG A   1      -0.792  -2.808  -0.427  0.00  0.00    +0.014 C 
ATOM     15  C   LIG A   1       0.769  -2.761  -0.702  0.00  0.00    +0.042 C 
ATOM     16  C   LIG A   1       1.620  -3.573   0.328  0.00  0.00    +0.018 C 
ATOM     17  C   LIG A   1       1.318  -1.300  -0.665  0.00  0.00    +0.125 C 
ATOM     18  O   LIG A   1       1.364  -0.630  -1.952  0.00  0.00    -0.351 OA
ATOM     19  C   LIG A   1       2.610  -1.091  -1.436  0.00  0.00    +0.260 C 
ATOM     20  C   LIG A   1       3.207  -2.194  -2.242  0.00  0.00    +0.340 C 
ATOM     21  O   LIG A   1       2.458  -3.322  -2.450  0.00  0.00    -0.454 OA
ATOM     22  C   LIG A   1       1.046  -3.382  -2.123  0.00  0.00    +0.218 C 
ATOM     23  O   LIG A   1       4.348  -2.095  -2.661  0.00  0.00    -0.248 OA
ATOM     24  C   LIG A   1      -1.166   3.670  -0.743  0.00  0.00    +0.035 C 
ATOM     25  C   LIG A   1       0.048   4.520  -1.231  0.00  0.00    +0.019 C 
ATOM     26  C   LIG A   1      -1.912   4.517   0.294  0.00  0.00    +0.019 C 
ENDROOT
BRANCH  22  27
ATOM     27  C   LIG A   1       0.544  -4.824  -2.295  0.00  0.00    +0.031 A 
ATOM     28  C   LIG A   1       0.977  -5.987  -1.674  0.00  0.00    +0.202 A 
ATOM     29  O   LIG A   1       0.302  -7.077  -2.107  0.00  0.00    -0.471 OA
ATOM     30  C   LIG A   1      -0.575  -6.644  -3.038  0.00  0.00    +0.195 A 
ATOM     31  C   LIG A   1      -0.490  -5.277  -3.177  0.00  0.00    +0.048 A 
ENDBRANCH  22  27
BRANCH   8  32
ATOM     32  O   LIG A   1      -0.248   2.415   2.228  0.00  0.00    -0.457 OA
BRANCH  32  33
ATOM     33  C   LIG A   1      -0.871   1.485   2.977  0.00  0.00    +0.304 C 
ATOM     34  C   LIG A   1      -1.500   2.020   4.215  0.00  0.00    +0.136 C 
ATOM     35  O   LIG A   1      -1.048   0.304   2.657  0.00  0.00    -0.251 OA
ENDBRANCH  32  33
ENDBRANCH   8  32
BRANCH   9  36
ATOM     36  O   LIG A   1       2.348   1.077   1.686  0.00  0.00    -0.457 OA
BRANCH  36  37
ATOM     37  C   LIG A   1       3.096   2.214   1.763  0.00  0.00    +0.304 C 
ATOM     38  C   LIG A   1       2.783   2.954   3.032  0.00  0.00    +0.136 C 
ATOM     39  O   LIG A   1       3.773   2.658   0.847  0.00  0.00    -0.251 OA
ENDBRANCH  36  37
ENDBRANCH   9  36
TORSDOF 5
