REMARK  Name = NuBBE_2485
REMARK  5 active torsions:
REMARK  status: ('A' for Active; 'I' for Inactive)
REMARK    1  A    between atoms: C_12  and  O_16
REMARK    2  A    between atoms: C_13  and  O_15
REMARK    3  A    between atoms: C_20  and  O_21
REMARK    4  A    between atoms: O_21  and  C_22
REMARK    5  A    between atoms: C_24  and  O_26
REMARK                            x       y       z     vdW  Elec       q    Type
REMARK                         _______ _______ _______ _____ _____    ______ ____
ROOT
ATOM      1  O   LIG A   1      -1.822   0.237   2.669  0.00  0.00    -0.289 OA
ATOM      2  C   LIG A   1      -1.051   0.008   1.742  0.00  0.00    +0.203 C 
ATOM      3  C   LIG A   1      -0.597   1.109   0.812  0.00  0.00    +0.234 C 
ATOM      4  C   LIG A   1      -0.714   0.569  -0.612  0.00  0.00    +0.240 C 
ATOM      5  C   LIG A   1      -0.180   1.605  -1.580  0.00  0.00    +0.005 A 
ATOM      6  C   LIG A   1       0.730   2.585  -1.122  0.00  0.00    -0.011 A 
ATOM      7  C   LIG A   1       1.115   2.659   0.341  0.00  0.00    +0.196 C 
ATOM      8  O   LIG A   1       0.747   1.500   1.094  0.00  0.00    -0.360 OA
ATOM      9  C   LIG A   1       1.244   3.533  -2.023  0.00  0.00    +0.055 A 
ATOM     10  C   LIG A   1       0.863   3.484  -3.360  0.00  0.00    +0.159 A 
ATOM     11  C   LIG A   1      -0.024   2.508  -3.806  0.00  0.00    +0.159 A 
ATOM     12  C   LIG A   1      -0.545   1.566  -2.933  0.00  0.00    +0.057 A 
ATOM     13  O   LIG A   1       0.073  -0.609  -0.827  0.00  0.00    -0.480 OA
ATOM     14  C   LIG A   1      -0.011  -1.560   0.153  0.00  0.00    +0.139 A 
ATOM     15  C   LIG A   1      -0.539  -1.351   1.433  0.00  0.00    +0.103 A 
ATOM     16  C   LIG A   1      -0.564  -2.405   2.370  0.00  0.00    +0.138 A 
ATOM     17  C   LIG A   1      -0.054  -3.657   2.000  0.00  0.00    +0.092 A 
ATOM     18  C   LIG A   1       0.473  -3.845   0.725  0.00  0.00    +0.124 A 
ATOM     19  C   LIG A   1       0.503  -2.808  -0.195  0.00  0.00    +0.092 A 
ENDROOT
BRANCH  11  20
ATOM     20  O   LIG A   1      -0.389   2.470  -5.122  0.00  0.00    -0.503 OA
ATOM     21  H   LIG A   1       0.103   3.208  -5.534  0.00  0.00    +0.292 HD
ENDBRANCH  11  20
BRANCH  10  22
ATOM     22  O   LIG A   1       1.336   4.379  -4.279  0.00  0.00    -0.503 OA
ATOM     23  H   LIG A   1       1.962   4.974  -3.832  0.00  0.00    +0.292 HD
ENDBRANCH  10  22
BRANCH  16  24
ATOM     24  O   LIG A   1      -1.061  -2.130   3.615  0.00  0.00    -0.494 OA
ATOM     25  C   LIG A   1      -1.188  -3.193   4.548  0.00  0.00    +0.277 C 
ENDBRANCH  16  24
BRANCH  18  26
ATOM     26  O   LIG A   1       0.982  -5.049   0.336  0.00  0.00    -0.506 OA
ATOM     27  H   LIG A   1       0.915  -5.681   1.071  0.00  0.00    +0.292 HD
ENDBRANCH  18  26
TORSDOF 4
