REMARK  Name = NuBBE_2094
REMARK  10 active torsions:
REMARK  status: ('A' for Active; 'I' for Inactive)
REMARK    1  A    between atoms: C_1  and  O_2
REMARK    2  A    between atoms: O_2  and  C_3
REMARK    3  A    between atoms: C_6  and  C_7
REMARK    4  A    between atoms: C_7  and  C_8
REMARK    5  A    between atoms: C_9  and  C_10
REMARK    6  A    between atoms: C_11  and  C_12
REMARK    7  A    between atoms: N_14  and  C_15
REMARK    8  A    between atoms: C_15  and  C_16
REMARK    9  A    between atoms: C_16  and  C_17
REMARK   10  A    between atoms: C_16  and  C_18
REMARK                            x       y       z     vdW  Elec       q    Type
REMARK                         _______ _______ _______ _____ _____    ______ ____
ROOT
ATOM      1  C   LIG A   1       1.017   1.753   2.241  0.00  0.00    -0.022 C 
ATOM      2  C   LIG A   1       1.410   0.880   1.301  0.00  0.00    -0.004 C 
ENDROOT
BRANCH   2   3
ATOM      3  C   LIG A   1       1.205  -0.548   1.399  0.00  0.00    +0.005 C 
ATOM      4  C   LIG A   1       1.583  -1.393   0.429  0.00  0.00    +0.067 C 
BRANCH   4   5
ATOM      5  C   LIG A   1       1.339  -2.858   0.556  0.00  0.00    +0.237 C 
ATOM      6  O   LIG A   1       0.797  -3.360   1.524  0.00  0.00    -0.271 OA
ATOM      7  N   LIG A   1       1.798  -3.556  -0.532  0.00  0.00    -0.312 N 
ATOM      8  H   LIG A   1       2.198  -3.064  -1.319  0.00  0.00    +0.149 HD
BRANCH   7   9
ATOM      9  C   LIG A   1       1.693  -5.001  -0.635  0.00  0.00    +0.107 C 
BRANCH   9  10
ATOM     10  C   LIG A   1       0.368  -5.466  -1.260  0.00  0.00    +0.000 C 
ATOM     11  C   LIG A   1       0.189  -4.911  -2.676  0.00  0.00    +0.009 C 
ATOM     12  C   LIG A   1       0.316  -6.995  -1.288  0.00  0.00    +0.009 C 
ENDBRANCH   9  10
ENDBRANCH   7   9
ENDBRANCH   4   5
ENDBRANCH   2   3
BRANCH   1  13
ATOM     13  C   LIG A   1       1.197   3.241   2.113  0.00  0.00    +0.062 C 
BRANCH  13  17
ATOM     14  C   LIG A   1      -2.257   5.216   0.400  0.00  0.00    +0.120 A 
ATOM     15  C   LIG A   1      -1.240   4.730  -0.420  0.00  0.00    +0.046 A 
ATOM     16  C   LIG A   1      -0.129   4.088   0.136  0.00  0.00    +0.007 A 
ATOM     17  C   LIG A   1      -0.011   3.931   1.523  0.00  0.00    -0.043 A 
ATOM     18  C   LIG A   1      -1.040   4.412   2.342  0.00  0.00    +0.007 A 
ATOM     19  C   LIG A   1      -2.151   5.053   1.783  0.00  0.00    +0.046 A 
BRANCH  14  21
ATOM     20  C   LIG A   1      -3.518   6.017  -1.441  0.00  0.00    +0.277 C 
ATOM     21  O   LIG A   1      -3.388   5.856  -0.032  0.00  0.00    -0.495 OA
ENDBRANCH  14  21
ENDBRANCH  13  17
ENDBRANCH   1  13
TORSDOF 7
