REMARK  Name = NuBBE_483
REMARK  14 active torsions:
REMARK  status: ('A' for Active; 'I' for Inactive)
REMARK    1  A    between atoms: C_1  and  C_2
REMARK    2  A    between atoms: C_6  and  C_7
REMARK    3  A    between atoms: C_6  and  C_9
REMARK    4  A    between atoms: C_7  and  O_8
REMARK    5  A    between atoms: C_9  and  O_10
REMARK    6  A    between atoms: C_11  and  O_13
REMARK    7  A    between atoms: C_16  and  C_17
REMARK    8  A    between atoms: C_22  and  C_23
REMARK    9  A    between atoms: C_26  and  C_27
REMARK   10  A    between atoms: C_27  and  O_28
REMARK   11  A    between atoms: O_28  and  C_29
REMARK   12  A    between atoms: C_32  and  O_34
REMARK   13  A    between atoms: C_35  and  C_36
REMARK   14  A    between atoms: C_35  and  C_37
REMARK                            x       y       z     vdW  Elec       q    Type
REMARK                         _______ _______ _______ _____ _____    ______ ____
ROOT
ATOM      1  C   LIG A   1      -2.463  -1.234  -0.375  0.00  0.00    +0.012 C 
ATOM      2  C   LIG A   1      -0.959  -0.930  -0.560  0.00  0.00    -0.019 C 
ATOM      3  C   LIG A   1      -0.390  -1.999  -1.542  0.00  0.00    +0.008 C 
ATOM      4  C   LIG A   1      -0.337  -3.432  -0.999  0.00  0.00    +0.005 C 
ATOM      5  C   LIG A   1       0.462  -3.637   0.321  0.00  0.00    +0.008 C 
ATOM      6  C   LIG A   1       0.484  -5.180   0.769  0.00  0.00    +0.046 C 
ATOM      7  C   LIG A   1      -0.807  -5.554   1.560  0.00  0.00    +0.125 C 
ATOM      8  C   LIG A   1      -1.228  -4.525   2.616  0.00  0.00    +0.032 C 
ATOM      9  C   LIG A   1      -1.324  -3.090   2.071  0.00  0.00    +0.010 C 
ATOM     10  C   LIG A   1      -0.015  -2.594   1.419  0.00  0.00    -0.025 C 
ATOM     11  C   LIG A   1       1.030  -2.472   2.572  0.00  0.00    +0.012 C 
ATOM     12  C   LIG A   1      -0.075  -1.148   0.735  0.00  0.00    +0.006 C 
ATOM     13  C   LIG A   1      -0.226   0.056   1.665  0.00  0.00    +0.031 C 
ATOM     14  C   LIG A   1       0.393   1.232   0.979  0.00  0.00    -0.026 C 
ATOM     15  C   LIG A   1       0.153   1.509  -0.315  0.00  0.00    -0.060 C 
ATOM     16  C   LIG A   1      -0.815   0.641  -1.143  0.00  0.00    -0.005 C 
ATOM     17  C   LIG A   1      -0.442   0.580  -2.652  0.00  0.00    +0.016 C 
ATOM     18  C   LIG A   1      -2.116   1.524  -1.036  0.00  0.00    +0.012 C 
ATOM     19  C   LIG A   1      -1.953   3.007  -1.493  0.00  0.00    +0.019 C 
ATOM     20  C   LIG A   1      -0.732   3.777  -0.876  0.00  0.00    +0.077 C 
ATOM     21  C   LIG A   1       0.528   2.857  -0.923  0.00  0.00    +0.061 C 
ATOM     22  C   LIG A   1       1.825   3.556  -0.429  0.00  0.00    +0.128 C 
ATOM     23  C   LIG A   1       2.115   4.870  -1.214  0.00  0.00    -0.008 C 
ATOM     24  C   LIG A   1       2.588   4.584  -2.660  0.00  0.00    +0.013 C 
ATOM     25  C   LIG A   1       3.258   5.635  -0.513  0.00  0.00    +0.013 C 
ATOM     26  C   LIG A   1       0.854   5.765  -1.244  0.00  0.00    +0.010 C 
ATOM     27  C   LIG A   1      -0.410   5.040  -1.727  0.00  0.00    +0.019 C 
ENDROOT
BRANCH   7  28
ATOM     28  O   LIG A   1      -1.921  -5.712   0.675  0.00  0.00    -0.391 OA
ATOM     29  H   LIG A   1      -1.817  -6.591   0.260  0.00  0.00    +0.210 HD
ENDBRANCH   7  28
BRANCH  20  30
ATOM     30  C   LIG A   1      -1.111   4.249   0.537  0.00  0.00    +0.314 C 
ATOM     31  O   LIG A   1      -0.515   4.013   1.591  0.00  0.00    -0.250 OA
BRANCH  30  32
ATOM     32  O   LIG A   1      -2.208   5.076   0.453  0.00  0.00    -0.468 OA
ATOM     33  C   LIG A   1      -2.646   5.661   1.691  0.00  0.00    +0.280 C 
ENDBRANCH  30  32
ENDBRANCH  20  30
BRANCH  22  34
ATOM     34  O   LIG A   1       2.956   2.686  -0.600  0.00  0.00    -0.391 OA
ATOM     35  H   LIG A   1       2.631   1.763  -0.603  0.00  0.00    +0.210 HD
ENDBRANCH  22  34
BRANCH   6  36
ATOM     36  C   LIG A   1       1.750  -5.478   1.638  0.00  0.00    +0.167 C 
BRANCH  36  37
ATOM     37  O   LIG A   1       1.863  -6.865   1.974  0.00  0.00    -0.394 OA
ATOM     38  H   LIG A   1       2.516  -6.928   2.697  0.00  0.00    +0.209 HD
ENDBRANCH  36  37
ENDBRANCH   6  36
BRANCH   6  39
ATOM     39  C   LIG A   1       0.618  -6.112  -0.485  0.00  0.00    +0.167 C 
BRANCH  39  40
ATOM     40  O   LIG A   1       0.605  -7.501  -0.166  0.00  0.00    -0.394 OA
ATOM     41  H   LIG A   1       1.217  -7.617   0.596  0.00  0.00    +0.209 HD
ENDBRANCH  39  40
ENDBRANCH   6  39
TORSDOF 8
