REMARK  Name = NuBBE_318
REMARK  19 active torsions:
REMARK  status: ('A' for Active; 'I' for Inactive)
REMARK    1  A    between atoms: C_1  and  O_2
REMARK    2  A    between atoms: O_2  and  C_3
REMARK    3  A    between atoms: C_4  and  O_55
REMARK    4  A    between atoms: C_7  and  C_8
REMARK    5  A    between atoms: C_12  and  O_16
REMARK    6  A    between atoms: C_14  and  O_15
REMARK    7  A    between atoms: O_16  and  C_17
REMARK    8  A    between atoms: C_21  and  O_22
REMARK    9  A    between atoms: O_22  and  C_23
REMARK   10  A    between atoms: C_26  and  C_37
REMARK   11  A    between atoms: C_28  and  O_36
REMARK   12  A    between atoms: C_30  and  O_35
REMARK   13  A    between atoms: C_32  and  O_34
REMARK   14  A    between atoms: C_37  and  O_38
REMARK   15  A    between atoms: O_38  and  C_39
REMARK   16  A    between atoms: C_42  and  C_53
REMARK   17  A    between atoms: C_44  and  O_52
REMARK   18  A    between atoms: C_46  and  O_51
REMARK   19  A    between atoms: C_48  and  O_50
REMARK                            x       y       z     vdW  Elec       q    Type
REMARK                         _______ _______ _______ _____ _____    ______ ____
ROOT
ATOM      1  C   LIG A   1      -0.220   1.056  -1.587  0.00  0.00    +0.340 C 
ATOM      2  O   LIG A   1      -0.508   1.026  -0.184  0.00  0.00    -0.331 OA
ATOM      3  C   LIG A   1      -0.544   2.316   0.448  0.00  0.00    +0.179 C 
ATOM      4  C   LIG A   1      -1.690   3.135  -0.164  0.00  0.00    +0.177 C 
ATOM      5  C   LIG A   1      -1.450   3.278  -1.671  0.00  0.00    +0.180 C 
ATOM      6  C   LIG A   1      -1.209   1.941  -2.366  0.00  0.00    +0.214 C 
ENDROOT
BRANCH   4   7
ATOM      7  O   LIG A   1      -1.793   4.456   0.379  0.00  0.00    -0.387 OA
ATOM      8  H   LIG A   1      -1.708   4.370   1.351  0.00  0.00    +0.210 HD
ENDBRANCH   4   7
BRANCH   5   9
ATOM      9  O   LIG A   1      -2.584   3.910  -2.295  0.00  0.00    -0.386 OA
ATOM     10  H   LIG A   1      -2.846   4.626  -1.682  0.00  0.00    +0.210 HD
ENDBRANCH   5   9
BRANCH   6  11
ATOM     11  O   LIG A   1      -0.691   2.208  -3.688  0.00  0.00    -0.383 OA
ATOM     12  H   LIG A   1      -1.284   2.882  -4.070  0.00  0.00    +0.210 HD
ENDBRANCH   6  11
BRANCH   3  13
ATOM     13  C   LIG A   1      -0.736   2.068   1.962  0.00  0.00    +0.197 C 
BRANCH  13  14
ATOM     14  O   LIG A   1      -0.846   3.272   2.746  0.00  0.00    -0.346 OA
BRANCH  14  15
ATOM     15  C   LIG A   1      -1.062   2.949   4.152  0.00  0.00    +0.282 C 
ATOM     16  O   LIG A   1      -2.269   2.198   4.265  0.00  0.00    -0.343 OA
ATOM     17  C   LIG A   1      -2.698   1.927   5.603  0.00  0.00    +0.149 C 
ATOM     18  C   LIG A   1      -2.965   3.246   6.348  0.00  0.00    +0.174 C 
ATOM     19  C   LIG A   1      -1.723   4.133   6.359  0.00  0.00    +0.179 C 
ATOM     20  C   LIG A   1      -1.097   4.277   4.961  0.00  0.00    +0.201 C 
ATOM     21  C   LIG A   1      -1.761   0.962   6.327  0.00  0.00    +0.040 C 
BRANCH  18  22
ATOM     22  O   LIG A   1      -4.018   3.968   5.691  0.00  0.00    -0.387 OA
ATOM     23  H   LIG A   1      -4.758   3.351   5.546  0.00  0.00    +0.210 HD
ENDBRANCH  18  22
BRANCH  19  24
ATOM     24  O   LIG A   1      -0.755   3.624   7.288  0.00  0.00    -0.386 OA
ATOM     25  H   LIG A   1       0.062   4.127   7.088  0.00  0.00    +0.210 HD
ENDBRANCH  19  24
BRANCH  20  26
ATOM     26  O   LIG A   1       0.234   4.811   5.149  0.00  0.00    -0.384 OA
ATOM     27  H   LIG A   1       0.561   5.056   4.265  0.00  0.00    +0.210 HD
ENDBRANCH  20  26
ENDBRANCH  14  15
ENDBRANCH  13  14
ENDBRANCH   3  13
BRANCH   1  28
ATOM     28  O   LIG A   1      -0.362  -0.269  -2.131  0.00  0.00    -0.453 OA
BRANCH  28  39
ATOM     29  C   LIG A   1       0.815  -2.181  -2.978  0.00  0.00    +0.181 A 
ATOM     30  O   LIG A   1       1.904  -3.056  -3.009  0.00  0.00    -0.451 OA
ATOM     31  C   LIG A   1       2.753  -3.075  -1.929  0.00  0.00    +0.146 A 
ATOM     32  C   LIG A   1       3.651  -4.139  -1.814  0.00  0.00    +0.092 A 
ATOM     33  C   LIG A   1       4.500  -4.201  -0.703  0.00  0.00    +0.127 A 
ATOM     34  C   LIG A   1       4.448  -3.196   0.265  0.00  0.00    +0.092 A 
ATOM     35  C   LIG A   1       3.561  -2.139   0.141  0.00  0.00    +0.135 A 
ATOM     36  C   LIG A   1       2.737  -2.069  -0.976  0.00  0.00    +0.109 A 
ATOM     37  C   LIG A   1       1.896  -0.922  -1.252  0.00  0.00    +0.238 A 
ATOM     38  O   LIG A   1       2.231   0.192  -0.813  0.00  0.00    -0.283 OA
ATOM     39  C   LIG A   1       0.723  -1.127  -2.134  0.00  0.00    +0.214 A 
BRANCH  29  44
ATOM     40  C   LIG A   1      -0.672  -3.349  -6.283  0.00  0.00    +0.162 A 
ATOM     41  C   LIG A   1      -2.023  -3.054  -6.088  0.00  0.00    +0.159 A 
ATOM     42  C   LIG A   1      -2.479  -2.544  -4.883  0.00  0.00    +0.050 A 
ATOM     43  C   LIG A   1      -1.567  -2.283  -3.858  0.00  0.00    +0.015 A 
ATOM     44  C   LIG A   1      -0.191  -2.503  -4.035  0.00  0.00    +0.025 A 
ATOM     45  C   LIG A   1       0.237  -3.061  -5.260  0.00  0.00    +0.061 A 
BRANCH  41  46
ATOM     46  O   LIG A   1      -2.931  -3.270  -7.088  0.00  0.00    -0.503 OA
ATOM     47  H   LIG A   1      -2.398  -3.546  -7.858  0.00  0.00    +0.292 HD
ENDBRANCH  41  46
BRANCH  40  49
ATOM     48  C   LIG A   1       0.775  -4.739  -7.530  0.00  0.00    +0.277 C 
ATOM     49  O   LIG A   1      -0.347  -3.860  -7.514  0.00  0.00    -0.491 OA
ENDBRANCH  40  49
ENDBRANCH  29  44
BRANCH  33  50
ATOM     50  O   LIG A   1       5.370  -5.259  -0.623  0.00  0.00    -0.495 OA
ATOM     51  C   LIG A   1       5.754  -5.598   0.714  0.00  0.00    +0.277 C 
ENDBRANCH  33  50
BRANCH  35  52
ATOM     52  O   LIG A   1       3.495  -1.218   1.142  0.00  0.00    -0.506 OA
ATOM     53  H   LIG A   1       4.221  -1.356   1.770  0.00  0.00    +0.292 HD
ENDBRANCH  35  52
ENDBRANCH  28  39
ENDBRANCH   1  28
TORSDOF 16
